MODEL 1
REMARK VINA RESULT:      -8.4      0.000      0.000
REMARK  3 active torsions:
REMARK  status: ('A' for Active; 'I' for Inactive)
REMARK    1  A    between atoms: C7_11  and  O2_2 
REMARK    2  A    between atoms: C15_19  and  O4_4 
REMARK    3  A    between atoms: C1_5  and  C3_7 
ROOT
HETATM    1  O1  UNK     1      19.142  -0.214  32.627  1.00  0.00    -0.309 OA
HETATM    2  O3  UNK     1      18.541   2.852  30.013  1.00  0.00    -0.287 OA
HETATM    3  C1  UNK     1      18.587   0.990  33.033  1.00  0.00     0.093 A 
HETATM    4  C2  UNK     1      19.325   0.651  30.365  1.00  0.00     0.048 A 
HETATM    5  C4  UNK     1      19.502  -0.357  31.312  1.00  0.00     0.090 A 
HETATM    6  C5  UNK     1      18.361   2.032  32.216  1.00  0.00     0.094 A 
HETATM    7  C6  UNK     1      18.728   1.926  30.789  1.00  0.00     0.187 A 
HETATM    8  C9  UNK     1      19.710   0.449  29.037  1.00  0.00     0.018 A 
HETATM    9  C10 UNK     1      20.065  -1.577  30.934  1.00  0.00     0.038 A 
HETATM   10  C12 UNK     1      20.274  -0.771  28.663  1.00  0.00     0.001 A 
HETATM   11  C14 UNK     1      20.452  -1.782  29.609  1.00  0.00     0.003 A 
ENDROOT
BRANCH   3  12
HETATM   12  C3  UNK     1      18.233   1.035  34.466  1.00  0.00     0.031 A 
HETATM   13  C7  UNK     1      17.363   0.096  35.029  1.00  0.00     0.081 A 
HETATM   14  C11 UNK     1      17.044   0.159  36.385  1.00  0.00     0.074 A 
HETATM   15  C15 UNK     1      17.592   1.160  37.184  1.00  0.00     0.068 A 
HETATM   16  C13 UNK     1      18.460   2.100  36.628  1.00  0.00     0.037 A 
HETATM   17  C8  UNK     1      18.779   2.037  35.272  1.00  0.00     0.020 A 
BRANCH  13  18
HETATM   18  O2  UNK     1      16.813  -0.894  34.269  1.00  0.00    -0.360 OA
HETATM   19  H9  UNK     1      17.078  -1.758  34.629  1.00  0.00     0.217 HD
ENDBRANCH  13  18
BRANCH  15  20
HETATM   20  O4  UNK     1      17.280   1.222  38.508  1.00  0.00    -0.361 OA
HETATM   21  H10 UNK     1      16.489   0.680  38.672  1.00  0.00     0.217 HD
ENDBRANCH  15  20
ENDBRANCH   3  12
TORSDOF 3
ENDMDL
MODEL 2
REMARK VINA RESULT:      -8.2      3.122      4.026
REMARK  3 active torsions:
REMARK  status: ('A' for Active; 'I' for Inactive)
REMARK    1  A    between atoms: C7_11  and  O2_2 
REMARK    2  A    between atoms: C15_19  and  O4_4 
REMARK    3  A    between atoms: C1_5  and  C3_7 
ROOT
HETATM    1  O1  UNK     1      19.406   2.087  31.190  1.00  0.00    -0.309 OA
HETATM    2  O3  UNK     1      17.672   1.965  27.506  1.00  0.00    -0.287 OA
HETATM    3  C1  UNK     1      18.652   3.145  30.706  1.00  0.00     0.093 A 
HETATM    4  C2  UNK     1      19.008   0.877  29.122  1.00  0.00     0.048 A 
HETATM    5  C4  UNK     1      19.573   0.984  30.392  1.00  0.00     0.090 A 
HETATM    6  C5  UNK     1      18.053   3.158  29.504  1.00  0.00     0.094 A 
HETATM    7  C6  UNK     1      18.199   1.992  28.609  1.00  0.00     0.187 A 
HETATM    8  C9  UNK     1      19.211  -0.272  28.353  1.00  0.00     0.018 A 
HETATM    9  C10 UNK     1      20.344  -0.061  30.903  1.00  0.00     0.038 A 
HETATM   10  C12 UNK     1      19.983  -1.315  28.866  1.00  0.00     0.001 A 
HETATM   11  C14 UNK     1      20.549  -1.210  30.137  1.00  0.00     0.003 A 
ENDROOT
BRANCH   3  12
HETATM   12  C3  UNK     1      18.533   4.277  31.646  1.00  0.00     0.031 A 
HETATM   13  C7  UNK     1      18.160   4.078  32.979  1.00  0.00     0.081 A 
HETATM   14  C11 UNK     1      18.056   5.164  33.848  1.00  0.00     0.074 A 
HETATM   15  C15 UNK     1      18.323   6.453  33.389  1.00  0.00     0.068 A 
HETATM   16  C13 UNK     1      18.696   6.657  32.060  1.00  0.00     0.037 A 
HETATM   17  C8  UNK     1      18.800   5.571  31.191  1.00  0.00     0.020 A 
BRANCH  13  18
HETATM   18  O2  UNK     1      17.894   2.828  33.454  1.00  0.00    -0.360 OA
HETATM   19  H9  UNK     1      17.695   2.884  34.405  1.00  0.00     0.217 HD
ENDBRANCH  13  18
BRANCH  15  20
HETATM   20  O4  UNK     1      18.221   7.513  34.237  1.00  0.00    -0.361 OA
HETATM   21  H10 UNK     1      19.099   7.915  34.348  1.00  0.00     0.217 HD
ENDBRANCH  15  20
ENDBRANCH   3  12
TORSDOF 3
ENDMDL
MODEL 3
REMARK VINA RESULT:      -8.1     24.085     26.503
REMARK  3 active torsions:
REMARK  status: ('A' for Active; 'I' for Inactive)
REMARK    1  A    between atoms: C7_11  and  O2_2 
REMARK    2  A    between atoms: C15_19  and  O4_4 
REMARK    3  A    between atoms: C1_5  and  C3_7 
ROOT
HETATM    1  O1  UNK     1      13.374   7.732   8.646  1.00  0.00    -0.309 OA
HETATM    2  O3  UNK     1      15.248   4.237   9.579  1.00  0.00    -0.287 OA
HETATM    3  C1  UNK     1      12.760   6.503   8.454  1.00  0.00     0.093 A 
HETATM    4  C2  UNK     1      15.347   6.596   9.492  1.00  0.00     0.048 A 
HETATM    5  C4  UNK     1      14.648   7.754   9.152  1.00  0.00     0.090 A 
HETATM    6  C5  UNK     1      13.326   5.322   8.748  1.00  0.00     0.094 A 
HETATM    7  C6  UNK     1      14.695   5.292   9.300  1.00  0.00     0.187 A 
HETATM    8  C9  UNK     1      16.643   6.679  10.006  1.00  0.00     0.018 A 
HETATM    9  C10 UNK     1      15.243   9.004   9.327  1.00  0.00     0.038 A 
HETATM   10  C12 UNK     1      17.236   7.930  10.179  1.00  0.00     0.001 A 
HETATM   11  C14 UNK     1      16.538   9.090   9.839  1.00  0.00     0.003 A 
ENDROOT
BRANCH   3  12
HETATM   12  C3  UNK     1      11.391   6.595   7.909  1.00  0.00     0.031 A 
HETATM   13  C7  UNK     1      11.141   6.434   6.542  1.00  0.00     0.081 A 
HETATM   14  C11 UNK     1       9.838   6.524   6.051  1.00  0.00     0.074 A 
HETATM   15  C15 UNK     1       8.780   6.775   6.924  1.00  0.00     0.068 A 
HETATM   16  C13 UNK     1       9.024   6.936   8.288  1.00  0.00     0.037 A 
HETATM   17  C8  UNK     1      10.327   6.846   8.779  1.00  0.00     0.020 A 
BRANCH  13  18
HETATM   18  O2  UNK     1      12.157   6.187   5.667  1.00  0.00    -0.360 OA
HETATM   19  H9  UNK     1      12.433   5.259   5.752  1.00  0.00     0.217 HD
ENDBRANCH  13  18
BRANCH  15  20
HETATM   20  O4  UNK     1       7.509   6.864   6.445  1.00  0.00    -0.361 OA
HETATM   21  H10 UNK     1       7.462   6.408   5.587  1.00  0.00     0.217 HD
ENDBRANCH  15  20
ENDBRANCH   3  12
TORSDOF 3
ENDMDL
MODEL 4
REMARK VINA RESULT:      -8.0      6.587      9.261
REMARK  3 active torsions:
REMARK  status: ('A' for Active; 'I' for Inactive)
REMARK    1  A    between atoms: C7_11  and  O2_2 
REMARK    2  A    between atoms: C15_19  and  O4_4 
REMARK    3  A    between atoms: C1_5  and  C3_7 
ROOT
HETATM    1  O1  UNK     1      17.517   8.600  32.927  1.00  0.00    -0.309 OA
HETATM    2  O3  UNK     1      14.099   6.653  31.870  1.00  0.00    -0.287 OA
HETATM    3  C1  UNK     1      17.549   7.370  32.287  1.00  0.00     0.093 A 
HETATM    4  C2  UNK     1      15.090   8.544  32.882  1.00  0.00     0.048 A 
HETATM    5  C4  UNK     1      16.297   9.156  33.216  1.00  0.00     0.090 A 
HETATM    6  C5  UNK     1      16.457   6.687  31.910  1.00  0.00     0.094 A 
HETATM    7  C6  UNK     1      15.119   7.245  32.193  1.00  0.00     0.187 A 
HETATM    8  C9  UNK     1      13.875   9.157  33.200  1.00  0.00     0.018 A 
HETATM    9  C10 UNK     1      16.297  10.389  33.868  1.00  0.00     0.038 A 
HETATM   10  C12 UNK     1      13.878  10.390  33.853  1.00  0.00     0.001 A 
HETATM   11  C14 UNK     1      15.086  11.005  34.187  1.00  0.00     0.003 A 
ENDROOT
BRANCH   3  12
HETATM   12  C3  UNK     1      18.911   6.867  32.021  1.00  0.00     0.031 A 
HETATM   13  C7  UNK     1      19.910   6.923  32.999  1.00  0.00     0.081 A 
HETATM   14  C11 UNK     1      21.189   6.439  32.724  1.00  0.00     0.074 A 
HETATM   15  C15 UNK     1      21.475   5.898  31.472  1.00  0.00     0.068 A 
HETATM   16  C13 UNK     1      20.483   5.839  30.493  1.00  0.00     0.037 A 
HETATM   17  C8  UNK     1      19.204   6.322  30.768  1.00  0.00     0.020 A 
BRANCH  13  18
HETATM   18  O2  UNK     1      19.656   7.448  34.231  1.00  0.00    -0.360 OA
HETATM   19  H9  UNK     1      20.315   7.112  34.863  1.00  0.00     0.217 HD
ENDBRANCH  13  18
BRANCH  15  20
HETATM   20  O4  UNK     1      22.724   5.427  31.204  1.00  0.00    -0.361 OA
HETATM   21  H10 UNK     1      23.316   6.179  31.032  1.00  0.00     0.217 HD
ENDBRANCH  15  20
ENDBRANCH   3  12
TORSDOF 3
ENDMDL
MODEL 5
REMARK VINA RESULT:      -7.9      1.336      2.529
REMARK  3 active torsions:
REMARK  status: ('A' for Active; 'I' for Inactive)
REMARK    1  A    between atoms: C7_11  and  O2_2 
REMARK    2  A    between atoms: C15_19  and  O4_4 
REMARK    3  A    between atoms: C1_5  and  C3_7 
ROOT
HETATM    1  O1  UNK     1      18.730   0.293  32.421  1.00  0.00    -0.309 OA
HETATM    2  O3  UNK     1      20.928  -3.129  32.661  1.00  0.00    -0.287 OA
HETATM    3  C1  UNK     1      18.806  -0.442  33.594  1.00  0.00     0.093 A 
HETATM    4  C2  UNK     1      20.178  -1.325  31.332  1.00  0.00     0.048 A 
HETATM    5  C4  UNK     1      19.408  -0.162  31.319  1.00  0.00     0.090 A 
HETATM    6  C5  UNK     1      19.518  -1.572  33.733  1.00  0.00     0.094 A 
HETATM    7  C6  UNK     1      20.270  -2.101  32.577  1.00  0.00     0.187 A 
HETATM    8  C9  UNK     1      20.848  -1.740  30.179  1.00  0.00     0.018 A 
HETATM    9  C10 UNK     1      19.306   0.594  30.151  1.00  0.00     0.038 A 
HETATM   10  C12 UNK     1      20.744  -0.983  29.012  1.00  0.00     0.001 A 
HETATM   11  C14 UNK     1      19.974   0.181  28.997  1.00  0.00     0.003 A 
ENDROOT
BRANCH   3  12
HETATM   12  C3  UNK     1      18.044   0.139  34.717  1.00  0.00     0.031 A 
HETATM   13  C7  UNK     1      16.741  -0.280  35.005  1.00  0.00     0.081 A 
HETATM   14  C11 UNK     1      16.042   0.283  36.072  1.00  0.00     0.074 A 
HETATM   15  C15 UNK     1      16.641   1.267  36.856  1.00  0.00     0.068 A 
HETATM   16  C13 UNK     1      17.941   1.689  36.575  1.00  0.00     0.037 A 
HETATM   17  C8  UNK     1      18.640   1.125  35.507  1.00  0.00     0.020 A 
BRANCH  13  18
HETATM   18  O2  UNK     1      16.131  -1.241  34.253  1.00  0.00    -0.360 OA
HETATM   19  H9  UNK     1      15.484  -1.714  34.804  1.00  0.00     0.217 HD
ENDBRANCH  13  18
BRANCH  15  20
HETATM   20  O4  UNK     1      15.958   1.818  37.897  1.00  0.00    -0.361 OA
HETATM   21  H10 UNK     1      15.232   1.222  38.149  1.00  0.00     0.217 HD
ENDBRANCH  15  20
ENDBRANCH   3  12
TORSDOF 3
ENDMDL
MODEL 6
REMARK VINA RESULT:      -7.8      2.424      6.878
REMARK  3 active torsions:
REMARK  status: ('A' for Active; 'I' for Inactive)
REMARK    1  A    between atoms: C7_11  and  O2_2 
REMARK    2  A    between atoms: C15_19  and  O4_4 
REMARK    3  A    between atoms: C1_5  and  C3_7 
ROOT
HETATM    1  O1  UNK     1      18.708  -0.723  34.056  1.00  0.00    -0.309 OA
HETATM    2  O3  UNK     1      20.697  -3.669  36.048  1.00  0.00    -0.287 OA
HETATM    3  C1  UNK     1      19.610  -1.556  33.412  1.00  0.00     0.093 A 
HETATM    4  C2  UNK     1      19.147  -1.887  36.142  1.00  0.00     0.048 A 
HETATM    5  C4  UNK     1      18.500  -0.900  35.400  1.00  0.00     0.090 A 
HETATM    6  C5  UNK     1      20.289  -2.546  34.014  1.00  0.00     0.094 A 
HETATM    7  C6  UNK     1      20.096  -2.780  35.460  1.00  0.00     0.187 A 
HETATM    8  C9  UNK     1      18.894  -2.023  37.509  1.00  0.00     0.018 A 
HETATM    9  C10 UNK     1      17.593  -0.042  36.023  1.00  0.00     0.038 A 
HETATM   10  C12 UNK     1      17.988  -1.163  38.130  1.00  0.00     0.001 A 
HETATM   11  C14 UNK     1      17.339  -0.173  37.389  1.00  0.00     0.003 A 
ENDROOT
BRANCH   3  12
HETATM   12  C3  UNK     1      19.755  -1.282  31.968  1.00  0.00     0.031 A 
HETATM   13  C7  UNK     1      19.386  -0.048  31.422  1.00  0.00     0.081 A 
HETATM   14  C11 UNK     1      19.534   0.187  30.055  1.00  0.00     0.074 A 
HETATM   15  C15 UNK     1      20.050  -0.809  29.228  1.00  0.00     0.068 A 
HETATM   16  C13 UNK     1      20.421  -2.042  29.767  1.00  0.00     0.037 A 
HETATM   17  C8  UNK     1      20.273  -2.277  31.134  1.00  0.00     0.020 A 
BRANCH  13  18
HETATM   18  O2  UNK     1      18.878   0.943  32.209  1.00  0.00    -0.360 OA
HETATM   19  H9  UNK     1      19.465   1.077  32.973  1.00  0.00     0.217 HD
ENDBRANCH  13  18
BRANCH  15  20
HETATM   20  O4  UNK     1      20.194  -0.579  27.894  1.00  0.00    -0.361 OA
HETATM   21  H10 UNK     1      20.495   0.335  27.761  1.00  0.00     0.217 HD
ENDBRANCH  15  20
ENDBRANCH   3  12
TORSDOF 3
ENDMDL
MODEL 7
REMARK VINA RESULT:      -7.8     13.825     17.620
REMARK  3 active torsions:
REMARK  status: ('A' for Active; 'I' for Inactive)
REMARK    1  A    between atoms: C7_11  and  O2_2 
REMARK    2  A    between atoms: C15_19  and  O4_4 
REMARK    3  A    between atoms: C1_5  and  C3_7 
ROOT
HETATM    1  O1  UNK     1      18.984  -0.890  17.344  1.00  0.00    -0.309 OA
HETATM    2  O3  UNK     1      19.399   2.734  15.528  1.00  0.00    -0.287 OA
HETATM    3  C1  UNK     1      19.062  -0.772  15.965  1.00  0.00     0.093 A 
HETATM    4  C2  UNK     1      19.179   1.523  17.546  1.00  0.00     0.048 A 
HETATM    5  C4  UNK     1      19.038   0.252  18.102  1.00  0.00     0.090 A 
HETATM    6  C5  UNK     1      19.205   0.393  15.313  1.00  0.00     0.094 A 
HETATM    7  C6  UNK     1      19.272   1.651  16.084  1.00  0.00     0.187 A 
HETATM    8  C9  UNK     1      19.229   2.652  18.367  1.00  0.00     0.018 A 
HETATM    9  C10 UNK     1      18.950   0.103  19.487  1.00  0.00     0.038 A 
HETATM   10  C12 UNK     1      19.139   2.500  19.751  1.00  0.00     0.001 A 
HETATM   11  C14 UNK     1      18.999   1.229  20.310  1.00  0.00     0.003 A 
ENDROOT
BRANCH   3  12
HETATM   12  C3  UNK     1      18.999  -2.061  15.248  1.00  0.00     0.031 A 
HETATM   13  C7  UNK     1      17.992  -2.994  15.518  1.00  0.00     0.081 A 
HETATM   14  C11 UNK     1      17.953  -4.205  14.826  1.00  0.00     0.074 A 
HETATM   15  C15 UNK     1      18.919  -4.488  13.862  1.00  0.00     0.068 A 
HETATM   16  C13 UNK     1      19.925  -3.560  13.587  1.00  0.00     0.037 A 
HETATM   17  C8  UNK     1      19.964  -2.350  14.279  1.00  0.00     0.020 A 
BRANCH  13  18
HETATM   18  O2  UNK     1      17.036  -2.742  16.457  1.00  0.00    -0.360 OA
HETATM   19  H9  UNK     1      16.287  -2.286  16.035  1.00  0.00     0.217 HD
ENDBRANCH  13  18
BRANCH  15  20
HETATM   20  O4  UNK     1      18.881  -5.669  13.187  1.00  0.00    -0.361 OA
HETATM   21  H10 UNK     1      19.791  -5.951  12.991  1.00  0.00     0.217 HD
ENDBRANCH  15  20
ENDBRANCH   3  12
TORSDOF 3
ENDMDL
MODEL 8
REMARK VINA RESULT:      -7.6     13.780     17.568
REMARK  3 active torsions:
REMARK  status: ('A' for Active; 'I' for Inactive)
REMARK    1  A    between atoms: C7_11  and  O2_2 
REMARK    2  A    between atoms: C15_19  and  O4_4 
REMARK    3  A    between atoms: C1_5  and  C3_7 
ROOT
HETATM    1  O1  UNK     1      19.694  -0.763  14.918  1.00  0.00    -0.309 OA
HETATM    2  O3  UNK     1      17.407  -4.131  15.076  1.00  0.00    -0.287 OA
HETATM    3  C1  UNK     1      18.907  -1.057  16.022  1.00  0.00     0.093 A 
HETATM    4  C2  UNK     1      18.923  -2.801  13.845  1.00  0.00     0.048 A 
HETATM    5  C4  UNK     1      19.683  -1.632  13.857  1.00  0.00     0.090 A 
HETATM    6  C5  UNK     1      18.139  -2.153  16.131  1.00  0.00     0.094 A 
HETATM    7  C6  UNK     1      18.096  -3.122  15.017  1.00  0.00     0.187 A 
HETATM    8  C9  UNK     1      18.951  -3.650  12.736  1.00  0.00     0.018 A 
HETATM    9  C10 UNK     1      20.478  -1.306  12.758  1.00  0.00     0.038 A 
HETATM   10  C12 UNK     1      19.746  -3.321  11.638  1.00  0.00     0.001 A 
HETATM   11  C14 UNK     1      20.508  -2.152  11.648  1.00  0.00     0.003 A 
ENDROOT
BRANCH   3  12
HETATM   12  C3  UNK     1      18.998  -0.060  17.106  1.00  0.00     0.031 A 
HETATM   13  C7  UNK     1      19.067   1.310  16.830  1.00  0.00     0.081 A 
HETATM   14  C11 UNK     1      19.151   2.233  17.873  1.00  0.00     0.074 A 
HETATM   15  C15 UNK     1      19.166   1.792  19.195  1.00  0.00     0.068 A 
HETATM   16  C13 UNK     1      19.097   0.427  19.476  1.00  0.00     0.037 A 
HETATM   17  C8  UNK     1      19.013  -0.496  18.434  1.00  0.00     0.020 A 
BRANCH  13  18
HETATM   18  O2  UNK     1      19.054   1.768  15.546  1.00  0.00    -0.360 OA
HETATM   19  H9  UNK     1      18.998   2.738  15.554  1.00  0.00     0.217 HD
ENDBRANCH  13  18
BRANCH  15  20
HETATM   20  O4  UNK     1      19.249   2.692  20.212  1.00  0.00    -0.361 OA
HETATM   21  H10 UNK     1      18.351   2.950  20.479  1.00  0.00     0.217 HD
ENDBRANCH  15  20
ENDBRANCH   3  12
TORSDOF 3
ENDMDL
MODEL 9
REMARK VINA RESULT:      -7.6     25.612     27.128
REMARK  3 active torsions:
REMARK  status: ('A' for Active; 'I' for Inactive)
REMARK    1  A    between atoms: C7_11  and  O2_2 
REMARK    2  A    between atoms: C15_19  and  O4_4 
REMARK    3  A    between atoms: C1_5  and  C3_7 
ROOT
HETATM    1  O1  UNK     1       7.598   4.329   9.349  1.00  0.00    -0.309 OA
HETATM    2  O3  UNK     1       5.590   7.446  11.038  1.00  0.00    -0.287 OA
HETATM    3  C1  UNK     1       7.928   5.647   9.066  1.00  0.00     0.093 A 
HETATM    4  C2  UNK     1       5.832   5.105  10.824  1.00  0.00     0.048 A 
HETATM    5  C4  UNK     1       6.560   4.086  10.211  1.00  0.00     0.090 A 
HETATM    6  C5  UNK     1       7.306   6.712   9.596  1.00  0.00     0.094 A 
HETATM    7  C6  UNK     1       6.185   6.503  10.535  1.00  0.00     0.187 A 
HETATM    8  C9  UNK     1       4.784   4.798  11.696  1.00  0.00     0.018 A 
HETATM    9  C10 UNK     1       6.246   2.752  10.470  1.00  0.00     0.038 A 
HETATM   10  C12 UNK     1       4.472   3.463  11.952  1.00  0.00     0.001 A 
HETATM   11  C14 UNK     1       5.200   2.441  11.340  1.00  0.00     0.003 A 
ENDROOT
BRANCH   3  12
HETATM   12  C3  UNK     1       9.061   5.794   8.130  1.00  0.00     0.031 A 
HETATM   13  C7  UNK     1      10.377   5.554   8.539  1.00  0.00     0.081 A 
HETATM   14  C11 UNK     1      11.430   5.700   7.636  1.00  0.00     0.074 A 
HETATM   15  C15 UNK     1      11.173   6.085   6.322  1.00  0.00     0.068 A 
HETATM   16  C13 UNK     1       9.862   6.326   5.908  1.00  0.00     0.037 A 
HETATM   17  C8  UNK     1       8.809   6.180   6.811  1.00  0.00     0.020 A 
BRANCH  13  18
HETATM   18  O2  UNK     1      10.656   5.176   9.819  1.00  0.00    -0.360 OA
HETATM   19  H9  UNK     1      10.104   5.693  10.432  1.00  0.00     0.217 HD
ENDBRANCH  13  18
BRANCH  15  20
HETATM   20  O4  UNK     1      12.201   6.228   5.441  1.00  0.00    -0.361 OA
HETATM   21  H10 UNK     1      12.929   6.701   5.878  1.00  0.00     0.217 HD
ENDBRANCH  15  20
ENDBRANCH   3  12
TORSDOF 3
ENDMDL
MODEL 10
REMARK VINA RESULT:      -7.6      2.366      4.062
REMARK  3 active torsions:
REMARK  status: ('A' for Active; 'I' for Inactive)
REMARK    1  A    between atoms: C7_11  and  O2_2 
REMARK    2  A    between atoms: C15_19  and  O4_4 
REMARK    3  A    between atoms: C1_5  and  C3_7 
ROOT
HETATM    1  O1  UNK     1      18.101   3.521  33.290  1.00  0.00    -0.309 OA
HETATM    2  O3  UNK     1      19.106   1.863  29.706  1.00  0.00    -0.287 OA
HETATM    3  C1  UNK     1      18.220   2.148  33.131  1.00  0.00     0.093 A 
HETATM    4  C2  UNK     1      18.665   3.825  30.947  1.00  0.00     0.048 A 
HETATM    5  C4  UNK     1      18.319   4.326  32.201  1.00  0.00     0.090 A 
HETATM    6  C5  UNK     1      18.553   1.547  31.977  1.00  0.00     0.094 A 
HETATM    7  C6  UNK     1      18.803   2.371  30.777  1.00  0.00     0.187 A 
HETATM    8  C9  UNK     1      18.876   4.693  29.873  1.00  0.00     0.018 A 
HETATM    9  C10 UNK     1      18.184   5.702  32.389  1.00  0.00     0.038 A 
HETATM   10  C12 UNK     1      18.739   6.068  30.063  1.00  0.00     0.001 A 
HETATM   11  C14 UNK     1      18.393   6.573  31.318  1.00  0.00     0.003 A 
ENDROOT
BRANCH   3  12
HETATM   12  C3  UNK     1      17.970   1.377  34.365  1.00  0.00     0.031 A 
HETATM   13  C7  UNK     1      18.480   1.794  35.599  1.00  0.00     0.081 A 
HETATM   14  C11 UNK     1      18.229   1.049  36.750  1.00  0.00     0.074 A 
HETATM   15  C15 UNK     1      17.466  -0.115  36.675  1.00  0.00     0.068 A 
HETATM   16  C13 UNK     1      16.954  -0.536  35.447  1.00  0.00     0.037 A 
HETATM   17  C8  UNK     1      17.206   0.209  34.295  1.00  0.00     0.020 A 
BRANCH  13  18
HETATM   18  O2  UNK     1      19.228   2.930  35.700  1.00  0.00    -0.360 OA
HETATM   19  H9  UNK     1      18.636   3.693  35.815  1.00  0.00     0.217 HD
ENDBRANCH  13  18
BRANCH  15  20
HETATM   20  O4  UNK     1      17.222  -0.843  37.799  1.00  0.00    -0.361 OA
HETATM   21  H10 UNK     1      17.884  -0.615  38.473  1.00  0.00     0.217 HD
ENDBRANCH  15  20
ENDBRANCH   3  12
TORSDOF 3
ENDMDL
