MODEL 1
REMARK VINA RESULT:      -8.0      0.000      0.000
REMARK  7 active torsions:
REMARK  status: ('A' for Active; 'I' for Inactive)
REMARK    1  A    between atoms: C12_21  and  O2_4 
REMARK    2  A    between atoms: C19_28  and  O2_4 
REMARK    3  A    between atoms: C15_24  and  O3_5 
REMARK    4  A    between atoms: C20_29  and  O3_5 
REMARK    5  A    between atoms: C18_27  and  O4_6 
REMARK    6  A    between atoms: C22_31  and  O4_6 
REMARK    7  A    between atoms: C3_12  and  C8_17 
ROOT
HETATM    1 Cl1  UNK     1      29.525  -3.624  39.689  1.00  0.00    -0.081 Cl
HETATM    2  O1  UNK     1      30.766  -8.397  36.490  1.00  0.00    -0.335 OA
HETATM    3  C1  UNK     1      32.680  -6.130  36.346  1.00  0.00    -0.015 C 
HETATM    4  C2  UNK     1      32.973  -7.567  35.850  1.00  0.00     0.057 C 
HETATM    5  C3  UNK     1      31.722  -8.361  35.411  1.00  0.00     0.095 C 
HETATM    6  C4  UNK     1      31.417  -6.138  37.191  1.00  0.00    -0.015 A 
HETATM    7  C5  UNK     1      32.513  -5.141  35.175  1.00  0.00     0.020 C 
HETATM    8  C6  UNK     1      33.910  -5.680  37.172  1.00  0.00     0.020 C 
HETATM    9  C7  UNK     1      30.570  -7.253  37.215  1.00  0.00     0.080 A 
HETATM   10  C9  UNK     1      32.134  -9.838  35.227  1.00  0.00     0.052 C 
HETATM   11  C10 UNK     1      31.057  -5.018  37.966  1.00  0.00     0.037 A 
HETATM   12  C11 UNK     1      29.426  -7.263  38.025  1.00  0.00     0.076 A 
HETATM   13  C14 UNK     1      29.909  -5.026  38.761  1.00  0.00     0.068 A 
HETATM   14  C15 UNK     1      29.097  -6.152  38.796  1.00  0.00     0.103 A 
ENDROOT
BRANCH   5  15
HETATM   15  C8  UNK     1      31.086  -7.913  34.090  1.00  0.00     0.012 A 
HETATM   16  C12 UNK     1      31.750  -8.108  32.880  1.00  0.00     0.091 A 
HETATM   17  C16 UNK     1      31.157  -7.695  31.687  1.00  0.00     0.077 A 
HETATM   18  C18 UNK     1      29.902  -7.087  31.706  1.00  0.00     0.103 A 
HETATM   19  C17 UNK     1      29.239  -6.892  32.918  1.00  0.00     0.068 A 
HETATM   20  C13 UNK     1      29.832  -7.305  34.111  1.00  0.00     0.040 A 
HETATM   21 Cl2  UNK     1      27.686  -6.141  32.970  1.00  0.00    -0.081 Cl
BRANCH  16  22
HETATM   22  O2  UNK     1      32.976  -8.700  32.844  1.00  0.00    -0.279 OA
BRANCH  22  23
HETATM   23  C19 UNK     1      33.981  -7.901  32.276  1.00  0.00     0.260 C 
HETATM   24  O5  UNK     1      34.347  -6.809  32.692  1.00  0.00    -0.265 OA
HETATM   25  C21 UNK     1      34.553  -8.579  31.068  1.00  0.00     0.126 C 
ENDBRANCH  22  23
ENDBRANCH  16  22
BRANCH  18  26
HETATM   26  O4  UNK     1      29.347  -6.692  30.525  1.00  0.00    -0.277 OA
BRANCH  26  27
HETATM   27  C22 UNK     1      29.034  -7.751  29.659  1.00  0.00     0.260 C 
HETATM   28  O7  UNK     1      29.697  -8.109  28.695  1.00  0.00    -0.265 OA
HETATM   29  C24 UNK     1      27.745  -8.394  30.082  1.00  0.00     0.126 C 
ENDBRANCH  26  27
ENDBRANCH  18  26
ENDBRANCH   5  15
BRANCH  14  30
HETATM   30  O3  UNK     1      27.973  -6.195  39.564  1.00  0.00    -0.277 OA
BRANCH  30  31
HETATM   31  C20 UNK     1      26.779  -6.035  38.843  1.00  0.00     0.260 C 
HETATM   32  O6  UNK     1      26.322  -4.973  38.441  1.00  0.00    -0.265 OA
HETATM   33  C23 UNK     1      26.125  -7.368  38.633  1.00  0.00     0.126 C 
ENDBRANCH  30  31
ENDBRANCH  14  30
TORSDOF 7
ENDMDL
MODEL 2
REMARK VINA RESULT:      -7.8      1.980      2.410
REMARK  7 active torsions:
REMARK  status: ('A' for Active; 'I' for Inactive)
REMARK    1  A    between atoms: C12_21  and  O2_4 
REMARK    2  A    between atoms: C19_28  and  O2_4 
REMARK    3  A    between atoms: C15_24  and  O3_5 
REMARK    4  A    between atoms: C20_29  and  O3_5 
REMARK    5  A    between atoms: C18_27  and  O4_6 
REMARK    6  A    between atoms: C22_31  and  O4_6 
REMARK    7  A    between atoms: C3_12  and  C8_17 
ROOT
HETATM    1 Cl1  UNK     1      29.978  -4.130  37.544  1.00  0.00    -0.081 Cl
HETATM    2  O1  UNK     1      30.179  -9.518  35.203  1.00  0.00    -0.335 OA
HETATM    3  C1  UNK     1      32.640  -7.864  35.018  1.00  0.00    -0.015 C 
HETATM    4  C2  UNK     1      32.578  -9.390  34.761  1.00  0.00     0.057 C 
HETATM    5  C3  UNK     1      31.207  -9.902  34.267  1.00  0.00     0.095 C 
HETATM    6  C4  UNK     1      31.347  -7.414  35.679  1.00  0.00    -0.015 A 
HETATM    7  C5  UNK     1      32.859  -7.071  33.715  1.00  0.00     0.020 C 
HETATM    8  C6  UNK     1      33.862  -7.612  35.935  1.00  0.00     0.020 C 
HETATM    9  C7  UNK     1      30.232  -8.259  35.736  1.00  0.00     0.080 A 
HETATM   10  C9  UNK     1      31.220 -11.445  34.338  1.00  0.00     0.052 C 
HETATM   11  C10 UNK     1      31.232  -6.129  36.243  1.00  0.00     0.037 A 
HETATM   12  C11 UNK     1      29.056  -7.847  36.379  1.00  0.00     0.076 A 
HETATM   13  C14 UNK     1      30.054  -5.716  36.870  1.00  0.00     0.068 A 
HETATM   14  C15 UNK     1      28.968  -6.578  36.944  1.00  0.00     0.103 A 
ENDROOT
BRANCH   5  15
HETATM   15  C8  UNK     1      30.844  -9.530  32.824  1.00  0.00     0.012 A 
HETATM   16  C12 UNK     1      31.767  -9.699  31.793  1.00  0.00     0.091 A 
HETATM   17  C16 UNK     1      31.420  -9.356  30.487  1.00  0.00     0.077 A 
HETATM   18  C18 UNK     1      30.153  -8.843  30.213  1.00  0.00     0.103 A 
HETATM   19  C17 UNK     1      29.231  -8.673  31.247  1.00  0.00     0.068 A 
HETATM   20  C13 UNK     1      29.577  -9.016  32.553  1.00  0.00     0.040 A 
HETATM   21 Cl2  UNK     1      27.656  -8.039  30.936  1.00  0.00    -0.081 Cl
BRANCH  16  22
HETATM   22  O2  UNK     1      33.009 -10.199  32.044  1.00  0.00    -0.279 OA
BRANCH  22  23
HETATM   23  C19 UNK     1      33.467 -11.108  31.076  1.00  0.00     0.260 C 
HETATM   24  O5  UNK     1      34.278 -10.863  30.193  1.00  0.00    -0.265 OA
HETATM   25  C21 UNK     1      32.810 -12.441  31.274  1.00  0.00     0.126 C 
ENDBRANCH  22  23
ENDBRANCH  16  22
BRANCH  18  26
HETATM   26  O4  UNK     1      29.842  -8.515  28.928  1.00  0.00    -0.277 OA
BRANCH  26  27
HETATM   27  C22 UNK     1      29.786  -9.613  28.055  1.00  0.00     0.260 C 
HETATM   28  O7  UNK     1      30.669  -9.963  27.285  1.00  0.00    -0.265 OA
HETATM   29  C24 UNK     1      28.465 -10.312  28.197  1.00  0.00     0.126 C 
ENDBRANCH  26  27
ENDBRANCH  18  26
ENDBRANCH   5  15
BRANCH  14  30
HETATM   30  O3  UNK     1      27.807  -6.209  37.553  1.00  0.00    -0.277 OA
BRANCH  30  31
HETATM   31  C20 UNK     1      27.717  -6.596  38.900  1.00  0.00     0.260 C 
HETATM   32  O6  UNK     1      28.251  -6.029  39.844  1.00  0.00    -0.265 OA
HETATM   33  C23 UNK     1      26.866  -7.824  39.024  1.00  0.00     0.126 C 
ENDBRANCH  30  31
ENDBRANCH  14  30
TORSDOF 7
ENDMDL
MODEL 3
REMARK VINA RESULT:      -7.7      1.599      1.819
REMARK  7 active torsions:
REMARK  status: ('A' for Active; 'I' for Inactive)
REMARK    1  A    between atoms: C12_21  and  O2_4 
REMARK    2  A    between atoms: C19_28  and  O2_4 
REMARK    3  A    between atoms: C15_24  and  O3_5 
REMARK    4  A    between atoms: C20_29  and  O3_5 
REMARK    5  A    between atoms: C18_27  and  O4_6 
REMARK    6  A    between atoms: C22_31  and  O4_6 
REMARK    7  A    between atoms: C3_12  and  C8_17 
ROOT
HETATM    1 Cl1  UNK     1      29.275  -4.362  38.625  1.00  0.00    -0.081 Cl
HETATM    2  O1  UNK     1      32.099  -8.328  35.331  1.00  0.00    -0.335 OA
HETATM    3  C1  UNK     1      32.871  -5.480  34.988  1.00  0.00    -0.015 C 
HETATM    4  C2  UNK     1      33.691  -6.687  34.470  1.00  0.00     0.057 C 
HETATM    5  C3  UNK     1      32.851  -7.946  34.161  1.00  0.00     0.095 C 
HETATM    6  C4  UNK     1      31.808  -5.973  35.956  1.00  0.00    -0.015 A 
HETATM    7  C5  UNK     1      32.203  -4.703  33.838  1.00  0.00     0.020 C 
HETATM    8  C6  UNK     1      33.871  -4.524  35.685  1.00  0.00     0.020 C 
HETATM    9  C7  UNK     1      31.510  -7.337  36.068  1.00  0.00     0.080 A 
HETATM   10  C9  UNK     1      33.824  -9.127  33.940  1.00  0.00     0.052 C 
HETATM   11  C10 UNK     1      31.086  -5.071  36.760  1.00  0.00     0.037 A 
HETATM   12  C11 UNK     1      30.553  -7.785  36.989  1.00  0.00     0.076 A 
HETATM   13  C14 UNK     1      30.123  -5.519  37.667  1.00  0.00     0.068 A 
HETATM   14  C15 UNK     1      29.861  -6.877  37.786  1.00  0.00     0.103 A 
ENDROOT
BRANCH   5  15
HETATM   15  C8  UNK     1      31.970  -7.862  32.909  1.00  0.00     0.012 A 
HETATM   16  C12 UNK     1      32.526  -7.559  31.668  1.00  0.00     0.091 A 
HETATM   17  C16 UNK     1      31.710  -7.486  30.539  1.00  0.00     0.077 A 
HETATM   18  C18 UNK     1      30.339  -7.716  30.653  1.00  0.00     0.103 A 
HETATM   19  C17 UNK     1      29.784  -8.018  31.897  1.00  0.00     0.068 A 
HETATM   20  C13 UNK     1      30.600  -8.091  33.025  1.00  0.00     0.040 A 
HETATM   21 Cl2  UNK     1      28.091  -8.306  32.067  1.00  0.00    -0.081 Cl
BRANCH  16  22
HETATM   22  O2  UNK     1      33.863  -7.331  31.539  1.00  0.00    -0.279 OA
BRANCH  22  23
HETATM   23  C19 UNK     1      34.436  -7.913  30.397  1.00  0.00     0.260 C 
HETATM   24  O5  UNK     1      34.523  -9.113  30.172  1.00  0.00    -0.265 OA
HETATM   25  C21 UNK     1      34.939  -6.843  29.474  1.00  0.00     0.126 C 
ENDBRANCH  22  23
ENDBRANCH  16  22
BRANCH  18  26
HETATM   26  O4  UNK     1      29.566  -7.637  29.534  1.00  0.00    -0.277 OA
BRANCH  26  27
HETATM   27  C22 UNK     1      29.723  -8.719  28.654  1.00  0.00     0.260 C 
HETATM   28  O7  UNK     1      30.651  -8.879  27.872  1.00  0.00    -0.265 OA
HETATM   29  C24 UNK     1      28.571  -9.670  28.801  1.00  0.00     0.126 C 
ENDBRANCH  26  27
ENDBRANCH  18  26
ENDBRANCH   5  15
BRANCH  14  30
HETATM   30  O3  UNK     1      28.932  -7.348  38.664  1.00  0.00    -0.277 OA
BRANCH  30  31
HETATM   31  C20 UNK     1      27.737  -7.774  38.061  1.00  0.00     0.260 C 
HETATM   32  O6  UNK     1      27.061  -7.124  37.276  1.00  0.00    -0.265 OA
HETATM   33  C23 UNK     1      27.396  -9.160  38.522  1.00  0.00     0.126 C 
ENDBRANCH  30  31
ENDBRANCH  14  30
TORSDOF 7
ENDMDL
MODEL 4
REMARK VINA RESULT:      -7.6      3.111      6.728
REMARK  7 active torsions:
REMARK  status: ('A' for Active; 'I' for Inactive)
REMARK    1  A    between atoms: C12_21  and  O2_4 
REMARK    2  A    between atoms: C19_28  and  O2_4 
REMARK    3  A    between atoms: C15_24  and  O3_5 
REMARK    4  A    between atoms: C20_29  and  O3_5 
REMARK    5  A    between atoms: C18_27  and  O4_6 
REMARK    6  A    between atoms: C22_31  and  O4_6 
REMARK    7  A    between atoms: C3_12  and  C8_17 
ROOT
HETATM    1 Cl1  UNK     1      26.528  -6.520  30.606  1.00  0.00    -0.081 Cl
HETATM    2  O1  UNK     1      30.235  -9.853  33.722  1.00  0.00    -0.335 OA
HETATM    3  C1  UNK     1      29.252  -7.357  34.998  1.00  0.00    -0.015 C 
HETATM    4  C2  UNK     1      29.961  -8.513  35.746  1.00  0.00     0.057 C 
HETATM    5  C3  UNK     1      30.933  -9.339  34.875  1.00  0.00     0.095 C 
HETATM    6  C4  UNK     1      28.856  -7.827  33.608  1.00  0.00    -0.015 A 
HETATM    7  C5  UNK     1      30.149  -6.109  34.887  1.00  0.00     0.020 C 
HETATM    8  C6  UNK     1      28.011  -6.972  35.840  1.00  0.00     0.020 C 
HETATM    9  C7  UNK     1      29.355  -9.024  33.080  1.00  0.00     0.080 A 
HETATM   10  C9  UNK     1      31.328 -10.605  35.668  1.00  0.00     0.052 C 
HETATM   11  C10 UNK     1      27.985  -7.064  32.807  1.00  0.00     0.037 A 
HETATM   12  C11 UNK     1      28.956  -9.466  31.811  1.00  0.00     0.076 A 
HETATM   13  C14 UNK     1      27.601  -7.499  31.537  1.00  0.00     0.068 A 
HETATM   14  C15 UNK     1      28.081  -8.705  31.042  1.00  0.00     0.103 A 
ENDROOT
BRANCH   5  15
HETATM   15  C8  UNK     1      32.240  -8.633  34.492  1.00  0.00     0.012 A 
HETATM   16  C12 UNK     1      33.142  -8.229  35.474  1.00  0.00     0.091 A 
HETATM   17  C16 UNK     1      34.326  -7.589  35.109  1.00  0.00     0.077 A 
HETATM   18  C18 UNK     1      34.605  -7.353  33.763  1.00  0.00     0.103 A 
HETATM   19  C17 UNK     1      33.699  -7.757  32.781  1.00  0.00     0.068 A 
HETATM   20  C13 UNK     1      32.516  -8.397  33.147  1.00  0.00     0.040 A 
HETATM   21 Cl2  UNK     1      34.019  -7.476  31.109  1.00  0.00    -0.081 Cl
BRANCH  16  22
HETATM   22  O2  UNK     1      32.885  -8.452  36.793  1.00  0.00    -0.279 OA
BRANCH  22  23
HETATM   23  C19 UNK     1      33.238  -7.385  37.634  1.00  0.00     0.260 C 
HETATM   24  O5  UNK     1      34.375  -7.099  37.988  1.00  0.00    -0.265 OA
HETATM   25  C21 UNK     1      32.011  -6.631  38.048  1.00  0.00     0.126 C 
ENDBRANCH  22  23
ENDBRANCH  16  22
BRANCH  18  26
HETATM   26  O4  UNK     1      35.769  -6.724  33.435  1.00  0.00    -0.277 OA
BRANCH  26  27
HETATM   27  C22 UNK     1      36.924  -7.444  33.779  1.00  0.00     0.260 C 
HETATM   28  O7  UNK     1      37.748  -7.118  34.623  1.00  0.00    -0.265 OA
HETATM   29  C24 UNK     1      37.014  -8.692  32.950  1.00  0.00     0.126 C 
ENDBRANCH  26  27
ENDBRANCH  18  26
ENDBRANCH   5  15
BRANCH  14  30
HETATM   30  O3  UNK     1      27.722  -9.161  29.809  1.00  0.00    -0.277 OA
BRANCH  30  31
HETATM   31  C20 UNK     1      28.775  -9.193  28.881  1.00  0.00     0.260 C 
HETATM   32  O6  UNK     1      29.573  -8.289  28.673  1.00  0.00    -0.265 OA
HETATM   33  C23 UNK     1      28.784 -10.509  28.162  1.00  0.00     0.126 C 
ENDBRANCH  30  31
ENDBRANCH  14  30
TORSDOF 7
ENDMDL
MODEL 5
REMARK VINA RESULT:      -7.6      2.997      5.621
REMARK  7 active torsions:
REMARK  status: ('A' for Active; 'I' for Inactive)
REMARK    1  A    between atoms: C12_21  and  O2_4 
REMARK    2  A    between atoms: C19_28  and  O2_4 
REMARK    3  A    between atoms: C15_24  and  O3_5 
REMARK    4  A    between atoms: C20_29  and  O3_5 
REMARK    5  A    between atoms: C18_27  and  O4_6 
REMARK    6  A    between atoms: C22_31  and  O4_6 
REMARK    7  A    between atoms: C3_12  and  C8_17 
ROOT
HETATM    1 Cl1  UNK     1      30.334  -5.539  37.847  1.00  0.00    -0.081 Cl
HETATM    2  O1  UNK     1      31.780  -6.231  32.191  1.00  0.00    -0.335 OA
HETATM    3  C1  UNK     1      28.996  -6.911  32.975  1.00  0.00    -0.015 C 
HETATM    4  C2  UNK     1      29.482  -6.717  31.518  1.00  0.00     0.057 C 
HETATM    5  C3  UNK     1      30.979  -7.028  31.295  1.00  0.00     0.095 C 
HETATM    6  C4  UNK     1      30.058  -6.394  33.932  1.00  0.00    -0.015 A 
HETATM    7  C5  UNK     1      28.694  -8.390  33.287  1.00  0.00     0.020 C 
HETATM    8  C6  UNK     1      27.673  -6.120  33.116  1.00  0.00     0.020 C 
HETATM    9  C7  UNK     1      31.347  -6.083  33.481  1.00  0.00     0.080 A 
HETATM   10  C9  UNK     1      31.369  -6.515  29.890  1.00  0.00     0.052 C 
HETATM   11  C10 UNK     1      29.777  -6.223  35.301  1.00  0.00     0.037 A 
HETATM   12  C11 UNK     1      32.308  -5.573  34.365  1.00  0.00     0.076 A 
HETATM   13  C14 UNK     1      30.741  -5.728  36.182  1.00  0.00     0.068 A 
HETATM   14  C15 UNK     1      32.005  -5.397  35.712  1.00  0.00     0.103 A 
ENDROOT
BRANCH   5  15
HETATM   15  C8  UNK     1      31.360  -8.512  31.344  1.00  0.00     0.012 A 
HETATM   16  C12 UNK     1      30.611  -9.461  30.650  1.00  0.00     0.091 A 
HETATM   17  C16 UNK     1      30.972 -10.807  30.705  1.00  0.00     0.077 A 
HETATM   18  C18 UNK     1      32.080 -11.202  31.455  1.00  0.00     0.103 A 
HETATM   19  C17 UNK     1      32.827 -10.251  32.149  1.00  0.00     0.068 A 
HETATM   20  C13 UNK     1      32.467  -8.905  32.094  1.00  0.00     0.040 A 
HETATM   21 Cl2  UNK     1      34.202 -10.713  33.085  1.00  0.00    -0.081 Cl
BRANCH  16  22
HETATM   22  O2  UNK     1      29.526  -9.091  29.914  1.00  0.00    -0.279 OA
BRANCH  22  23
HETATM   23  C19 UNK     1      29.605  -9.450  28.558  1.00  0.00     0.260 C 
HETATM   24  O5  UNK     1      30.511  -9.153  27.791  1.00  0.00    -0.265 OA
HETATM   25  C21 UNK     1      28.403 -10.260  28.173  1.00  0.00     0.126 C 
ENDBRANCH  22  23
ENDBRANCH  16  22
BRANCH  18  26
HETATM   26  O4  UNK     1      32.408 -12.525  31.492  1.00  0.00    -0.277 OA
BRANCH  26  27
HETATM   27  C22 UNK     1      31.428 -13.339  32.081  1.00  0.00     0.260 C 
HETATM   28  O7  UNK     1      30.628 -14.046  31.482  1.00  0.00    -0.265 OA
HETATM   29  C24 UNK     1      31.493 -13.219  33.576  1.00  0.00     0.126 C 
ENDBRANCH  26  27
ENDBRANCH  18  26
ENDBRANCH   5  15
BRANCH  14  30
HETATM   30  O3  UNK     1      32.967  -4.907  36.543  1.00  0.00    -0.277 OA
BRANCH  30  31
HETATM   31  C20 UNK     1      34.119  -5.706  36.620  1.00  0.00     0.260 C 
HETATM   32  O6  UNK     1      35.187  -5.477  36.067  1.00  0.00    -0.265 OA
HETATM   33  C23 UNK     1      33.857  -6.902  37.486  1.00  0.00     0.126 C 
ENDBRANCH  30  31
ENDBRANCH  14  30
TORSDOF 7
ENDMDL
MODEL 6
REMARK VINA RESULT:      -7.5      2.129      6.801
REMARK  7 active torsions:
REMARK  status: ('A' for Active; 'I' for Inactive)
REMARK    1  A    between atoms: C12_21  and  O2_4 
REMARK    2  A    between atoms: C19_28  and  O2_4 
REMARK    3  A    between atoms: C15_24  and  O3_5 
REMARK    4  A    between atoms: C20_29  and  O3_5 
REMARK    5  A    between atoms: C18_27  and  O4_6 
REMARK    6  A    between atoms: C22_31  and  O4_6 
REMARK    7  A    between atoms: C3_12  and  C8_17 
ROOT
HETATM    1 Cl1  UNK     1      30.479  -9.498  29.203  1.00  0.00    -0.081 Cl
HETATM    2  O1  UNK     1      31.041  -5.328  33.307  1.00  0.00    -0.335 OA
HETATM    3  C1  UNK     1      33.121  -7.447  33.230  1.00  0.00    -0.015 C 
HETATM    4  C2  UNK     1      33.249  -6.110  34.000  1.00  0.00     0.057 C 
HETATM    5  C3  UNK     1      31.904  -5.499  34.450  1.00  0.00     0.095 C 
HETATM    6  C4  UNK     1      31.937  -7.369  32.281  1.00  0.00    -0.015 A 
HETATM    7  C5  UNK     1      32.942  -8.645  34.184  1.00  0.00     0.020 C 
HETATM    8  C6  UNK     1      34.450  -7.651  32.461  1.00  0.00     0.020 C 
HETATM    9  C7  UNK     1      31.003  -6.329  32.374  1.00  0.00     0.080 A 
HETATM   10  C9  UNK     1      32.173  -4.056  34.934  1.00  0.00     0.052 C 
HETATM   11  C10 UNK     1      31.739  -8.347  31.288  1.00  0.00     0.037 A 
HETATM   12  C11 UNK     1      29.934  -6.246  31.472  1.00  0.00     0.076 A 
HETATM   13  C14 UNK     1      30.664  -8.270  30.399  1.00  0.00     0.068 A 
HETATM   14  C15 UNK     1      29.765  -7.215  30.487  1.00  0.00     0.103 A 
ENDROOT
BRANCH   5  15
HETATM   15  C8  UNK     1      31.200  -6.226  35.602  1.00  0.00     0.012 A 
HETATM   16  C12 UNK     1      31.740  -6.211  36.887  1.00  0.00     0.091 A 
HETATM   17  C16 UNK     1      31.087  -6.878  37.923  1.00  0.00     0.077 A 
HETATM   18  C18 UNK     1      29.896  -7.558  37.674  1.00  0.00     0.103 A 
HETATM   19  C17 UNK     1      29.357  -7.572  36.387  1.00  0.00     0.068 A 
HETATM   20  C13 UNK     1      30.010  -6.906  35.350  1.00  0.00     0.040 A 
HETATM   21 Cl2  UNK     1      27.885  -8.408  36.050  1.00  0.00    -0.081 Cl
BRANCH  16  22
HETATM   22  O2  UNK     1      32.904  -5.551  37.147  1.00  0.00    -0.279 OA
BRANCH  22  23
HETATM   23  C19 UNK     1      34.016  -6.393  37.307  1.00  0.00     0.260 C 
HETATM   24  O5  UNK     1      34.025  -7.460  37.906  1.00  0.00    -0.265 OA
HETATM   25  C21 UNK     1      35.213  -5.793  36.633  1.00  0.00     0.126 C 
ENDBRANCH  22  23
ENDBRANCH  16  22
BRANCH  18  26
HETATM   26  O4  UNK     1      29.280  -8.202  38.705  1.00  0.00    -0.277 OA
BRANCH  26  27
HETATM   27  C22 UNK     1      28.233  -7.473  39.290  1.00  0.00     0.260 C 
HETATM   28  O7  UNK     1      28.265  -6.286  39.588  1.00  0.00    -0.265 OA
HETATM   29  C24 UNK     1      27.047  -8.366  39.508  1.00  0.00     0.126 C 
ENDBRANCH  26  27
ENDBRANCH  18  26
ENDBRANCH   5  15
BRANCH  14  30
HETATM   30  O3  UNK     1      28.710  -7.107  29.633  1.00  0.00    -0.277 OA
BRANCH  30  31
HETATM   31  C20 UNK     1      27.519  -7.671  30.118  1.00  0.00     0.260 C 
HETATM   32  O6  UNK     1      27.351  -8.848  30.406  1.00  0.00    -0.265 OA
HETATM   33  C23 UNK     1      26.461  -6.614  30.235  1.00  0.00     0.126 C 
ENDBRANCH  30  31
ENDBRANCH  14  30
TORSDOF 7
ENDMDL
MODEL 7
REMARK VINA RESULT:      -7.5      2.989      7.683
REMARK  7 active torsions:
REMARK  status: ('A' for Active; 'I' for Inactive)
REMARK    1  A    between atoms: C12_21  and  O2_4 
REMARK    2  A    between atoms: C19_28  and  O2_4 
REMARK    3  A    between atoms: C15_24  and  O3_5 
REMARK    4  A    between atoms: C20_29  and  O3_5 
REMARK    5  A    between atoms: C18_27  and  O4_6 
REMARK    6  A    between atoms: C22_31  and  O4_6 
REMARK    7  A    between atoms: C3_12  and  C8_17 
ROOT
HETATM    1 Cl1  UNK     1      29.899  -9.601  27.941  1.00  0.00    -0.081 Cl
HETATM    2  O1  UNK     1      29.440  -9.641  33.802  1.00  0.00    -0.335 OA
HETATM    3  C1  UNK     1      28.554  -7.184  32.386  1.00  0.00    -0.015 C 
HETATM    4  C2  UNK     1      28.227  -7.521  33.862  1.00  0.00     0.057 C 
HETATM    5  C3  UNK     1      29.269  -8.425  34.558  1.00  0.00     0.095 C 
HETATM    6  C4  UNK     1      29.106  -8.422  31.699  1.00  0.00    -0.015 A 
HETATM    7  C5  UNK     1      29.571  -6.032  32.272  1.00  0.00     0.020 C 
HETATM    8  C6  UNK     1      27.233  -6.714  31.730  1.00  0.00     0.020 C 
HETATM    9  C7  UNK     1      29.492  -9.548  32.437  1.00  0.00     0.080 A 
HETATM   10  C9  UNK     1      28.667  -8.902  35.899  1.00  0.00     0.052 C 
HETATM   11  C10 UNK     1      29.256  -8.467  30.299  1.00  0.00     0.037 A 
HETATM   12  C11 UNK     1      29.967 -10.697  31.790  1.00  0.00     0.076 A 
HETATM   13  C14 UNK     1      29.742  -9.608  29.659  1.00  0.00     0.068 A 
HETATM   14  C15 UNK     1      30.091 -10.727  30.404  1.00  0.00     0.103 A 
ENDROOT
BRANCH   5  15
HETATM   15  C8  UNK     1      30.608  -7.756  34.889  1.00  0.00     0.012 A 
HETATM   16  C12 UNK     1      30.648  -6.573  35.624  1.00  0.00     0.091 A 
HETATM   17  C16 UNK     1      31.875  -5.978  35.917  1.00  0.00     0.077 A 
HETATM   18  C18 UNK     1      33.059  -6.566  35.474  1.00  0.00     0.103 A 
HETATM   19  C17 UNK     1      33.017  -7.750  34.737  1.00  0.00     0.068 A 
HETATM   20  C13 UNK     1      31.790  -8.345  34.445  1.00  0.00     0.040 A 
HETATM   21 Cl2  UNK     1      34.467  -8.499  34.176  1.00  0.00    -0.081 Cl
BRANCH  16  22
HETATM   22  O2  UNK     1      29.500  -5.985  36.064  1.00  0.00    -0.279 OA
BRANCH  22  23
HETATM   23  C19 UNK     1      29.604  -5.413  37.342  1.00  0.00     0.260 C 
HETATM   24  O5  UNK     1      29.777  -4.225  37.583  1.00  0.00    -0.265 OA
HETATM   25  C21 UNK     1      29.475  -6.476  38.391  1.00  0.00     0.126 C 
ENDBRANCH  22  23
ENDBRANCH  16  22
BRANCH  18  26
HETATM   26  O4  UNK     1      34.244  -5.961  35.773  1.00  0.00    -0.277 OA
BRANCH  26  27
HETATM   27  C22 UNK     1      34.673  -5.038  34.807  1.00  0.00     0.260 C 
HETATM   28  O7  UNK     1      35.293  -5.304  33.786  1.00  0.00    -0.265 OA
HETATM   29  C24 UNK     1      34.263  -3.651  35.207  1.00  0.00     0.126 C 
ENDBRANCH  26  27
ENDBRANCH  18  26
ENDBRANCH   5  15
BRANCH  14  30
HETATM   30  O3  UNK     1      30.565 -11.858  29.811  1.00  0.00    -0.277 OA
BRANCH  30  31
HETATM   31  C20 UNK     1      31.956 -12.020  29.912  1.00  0.00     0.260 C 
HETATM   32  O6  UNK     1      32.799 -11.252  29.469  1.00  0.00    -0.265 OA
HETATM   33  C23 UNK     1      32.272 -13.287  30.649  1.00  0.00     0.126 C 
ENDBRANCH  30  31
ENDBRANCH  14  30
TORSDOF 7
ENDMDL
MODEL 8
REMARK VINA RESULT:      -7.5      2.613      7.802
REMARK  7 active torsions:
REMARK  status: ('A' for Active; 'I' for Inactive)
REMARK    1  A    between atoms: C12_21  and  O2_4 
REMARK    2  A    between atoms: C19_28  and  O2_4 
REMARK    3  A    between atoms: C15_24  and  O3_5 
REMARK    4  A    between atoms: C20_29  and  O3_5 
REMARK    5  A    between atoms: C18_27  and  O4_6 
REMARK    6  A    between atoms: C22_31  and  O4_6 
REMARK    7  A    between atoms: C3_12  and  C8_17 
ROOT
HETATM    1 Cl1  UNK     1      32.277  -6.865  29.143  1.00  0.00    -0.081 Cl
HETATM    2  O1  UNK     1      32.441  -9.798  34.236  1.00  0.00    -0.335 OA
HETATM    3  C1  UNK     1      29.792  -8.817  33.317  1.00  0.00    -0.015 C 
HETATM    4  C2  UNK     1      30.008  -9.864  34.438  1.00  0.00     0.057 C 
HETATM    5  C3  UNK     1      31.355  -9.737  35.182  1.00  0.00     0.095 C 
HETATM    6  C4  UNK     1      31.094  -8.618  32.559  1.00  0.00    -0.015 A 
HETATM    7  C5  UNK     1      29.308  -7.466  33.879  1.00  0.00     0.020 C 
HETATM    8  C6  UNK     1      28.679  -9.370  32.394  1.00  0.00     0.020 C 
HETATM    9  C7  UNK     1      32.303  -9.122  33.053  1.00  0.00     0.080 A 
HETATM   10  C9  UNK     1      31.543 -11.003  36.049  1.00  0.00     0.052 C 
HETATM   11  C10 UNK     1      31.122  -7.910  31.342  1.00  0.00     0.037 A 
HETATM   12  C11 UNK     1      33.493  -8.964  32.328  1.00  0.00     0.076 A 
HETATM   13  C14 UNK     1      32.311  -7.740  30.629  1.00  0.00     0.068 A 
HETATM   14  C15 UNK     1      33.495  -8.274  31.120  1.00  0.00     0.103 A 
ENDROOT
BRANCH   5  15
HETATM   15  C8  UNK     1      31.478  -8.535  36.126  1.00  0.00     0.012 A 
HETATM   16  C12 UNK     1      30.510  -8.294  37.099  1.00  0.00     0.091 A 
HETATM   17  C16 UNK     1      30.636  -7.196  37.950  1.00  0.00     0.077 A 
HETATM   18  C18 UNK     1      31.730  -6.340  37.825  1.00  0.00     0.103 A 
HETATM   19  C17 UNK     1      32.698  -6.582  36.850  1.00  0.00     0.068 A 
HETATM   20  C13 UNK     1      32.571  -7.680  35.999  1.00  0.00     0.040 A 
HETATM   21 Cl2  UNK     1      34.061  -5.538  36.673  1.00  0.00    -0.081 Cl
BRANCH  16  22
HETATM   22  O2  UNK     1      29.435  -9.121  37.234  1.00  0.00    -0.279 OA
BRANCH  22  23
HETATM   23  C19 UNK     1      29.291  -9.669  38.518  1.00  0.00     0.260 C 
HETATM   24  O5  UNK     1      30.129 -10.340  39.107  1.00  0.00    -0.265 OA
HETATM   25  C21 UNK     1      27.946  -9.317  39.078  1.00  0.00     0.126 C 
ENDBRANCH  22  23
ENDBRANCH  16  22
BRANCH  18  26
HETATM   26  O4  UNK     1      31.828  -5.274  38.669  1.00  0.00    -0.277 OA
BRANCH  26  27
HETATM   27  C22 UNK     1      30.725  -4.406  38.621  1.00  0.00     0.260 C 
HETATM   28  O7  UNK     1      29.913  -4.229  39.519  1.00  0.00    -0.265 OA
HETATM   29  C24 UNK     1      30.676  -3.714  37.290  1.00  0.00     0.126 C 
ENDBRANCH  26  27
ENDBRANCH  18  26
ENDBRANCH   5  15
BRANCH  14  30
HETATM   30  O3  UNK     1      34.671  -8.131  30.447  1.00  0.00    -0.277 OA
BRANCH  30  31
HETATM   31  C20 UNK     1      35.290  -6.884  30.631  1.00  0.00     0.260 C 
HETATM   32  O6  UNK     1      35.527  -6.067  29.752  1.00  0.00    -0.265 OA
HETATM   33  C23 UNK     1      35.631  -6.690  32.078  1.00  0.00     0.126 C 
ENDBRANCH  30  31
ENDBRANCH  14  30
TORSDOF 7
ENDMDL
MODEL 9
REMARK VINA RESULT:      -7.3      2.236      6.790
REMARK  7 active torsions:
REMARK  status: ('A' for Active; 'I' for Inactive)
REMARK    1  A    between atoms: C12_21  and  O2_4 
REMARK    2  A    between atoms: C19_28  and  O2_4 
REMARK    3  A    between atoms: C15_24  and  O3_5 
REMARK    4  A    between atoms: C20_29  and  O3_5 
REMARK    5  A    between atoms: C18_27  and  O4_6 
REMARK    6  A    between atoms: C22_31  and  O4_6 
REMARK    7  A    between atoms: C3_12  and  C8_17 
ROOT
HETATM    1 Cl1  UNK     1      29.449  -8.370  29.891  1.00  0.00    -0.081 Cl
HETATM    2  O1  UNK     1      32.413  -7.224  34.838  1.00  0.00    -0.335 OA
HETATM    3  C1  UNK     1      31.446 -10.005  34.447  1.00  0.00    -0.015 C 
HETATM    4  C2  UNK     1      32.498  -9.574  35.498  1.00  0.00     0.057 C 
HETATM    5  C3  UNK     1      32.365  -8.111  35.974  1.00  0.00     0.095 C 
HETATM    6  C4  UNK     1      31.232  -8.873  33.456  1.00  0.00    -0.015 A 
HETATM    7  C5  UNK     1      30.102 -10.382  35.100  1.00  0.00     0.020 C 
HETATM    8  C6  UNK     1      32.001 -11.270  33.748  1.00  0.00     0.020 C 
HETATM    9  C7  UNK     1      31.730  -7.588  33.708  1.00  0.00     0.080 A 
HETATM   10  C9  UNK     1      33.635  -7.753  36.779  1.00  0.00     0.052 C 
HETATM   11  C10 UNK     1      30.516  -9.080  32.262  1.00  0.00     0.037 A 
HETATM   12  C11 UNK     1      31.558  -6.559  32.772  1.00  0.00     0.076 A 
HETATM   13  C14 UNK     1      30.333  -8.050  31.337  1.00  0.00     0.068 A 
HETATM   14  C15 UNK     1      30.861  -6.790  31.590  1.00  0.00     0.103 A 
ENDROOT
BRANCH   5  15
HETATM   15  C8  UNK     1      31.168  -7.818  36.886  1.00  0.00     0.012 A 
HETATM   16  C12 UNK     1      30.685  -6.519  37.030  1.00  0.00     0.091 A 
HETATM   17  C16 UNK     1      29.595  -6.271  37.864  1.00  0.00     0.077 A 
HETATM   18  C18 UNK     1      28.991  -7.322  38.553  1.00  0.00     0.103 A 
HETATM   19  C17 UNK     1      29.477  -8.622  38.409  1.00  0.00     0.068 A 
HETATM   20  C13 UNK     1      30.566  -8.870  37.575  1.00  0.00     0.040 A 
HETATM   21 Cl2  UNK     1      28.748  -9.940  39.251  1.00  0.00    -0.081 Cl
BRANCH  16  22
HETATM   22  O2  UNK     1      31.265  -5.481  36.364  1.00  0.00    -0.279 OA
BRANCH  22  23
HETATM   23  C19 UNK     1      31.970  -4.593  37.191  1.00  0.00     0.260 C 
HETATM   24  O5  UNK     1      32.491  -4.874  38.262  1.00  0.00    -0.265 OA
HETATM   25  C21 UNK     1      31.994  -3.227  36.573  1.00  0.00     0.126 C 
ENDBRANCH  22  23
ENDBRANCH  16  22
BRANCH  18  26
HETATM   26  O4  UNK     1      27.929  -7.050  39.363  1.00  0.00    -0.277 OA
BRANCH  26  27
HETATM   27  C22 UNK     1      26.749  -6.733  38.670  1.00  0.00     0.260 C 
HETATM   28  O7  UNK     1      26.426  -5.620  38.277  1.00  0.00    -0.265 OA
HETATM   29  C24 UNK     1      25.921  -7.969  38.478  1.00  0.00     0.126 C 
ENDBRANCH  26  27
ENDBRANCH  18  26
ENDBRANCH   5  15
BRANCH  14  30
HETATM   30  O3  UNK     1      30.705  -5.764  30.707  1.00  0.00    -0.277 OA
BRANCH  30  31
HETATM   31  C20 UNK     1      29.755  -4.808  31.101  1.00  0.00     0.260 C 
HETATM   32  O6  UNK     1      28.830  -4.998  31.879  1.00  0.00    -0.265 OA
HETATM   33  C23 UNK     1      30.031  -3.501  30.421  1.00  0.00     0.126 C 
ENDBRANCH  30  31
ENDBRANCH  14  30
TORSDOF 7
ENDMDL
MODEL 10
REMARK VINA RESULT:      -7.3      2.830      5.608
REMARK  7 active torsions:
REMARK  status: ('A' for Active; 'I' for Inactive)
REMARK    1  A    between atoms: C12_21  and  O2_4 
REMARK    2  A    between atoms: C19_28  and  O2_4 
REMARK    3  A    between atoms: C15_24  and  O3_5 
REMARK    4  A    between atoms: C20_29  and  O3_5 
REMARK    5  A    between atoms: C18_27  and  O4_6 
REMARK    6  A    between atoms: C22_31  and  O4_6 
REMARK    7  A    between atoms: C3_12  and  C8_17 
ROOT
HETATM    1 Cl1  UNK     1      30.657  -7.844  38.116  1.00  0.00    -0.081 Cl
HETATM    2  O1  UNK     1      30.469  -6.601  32.373  1.00  0.00    -0.335 OA
HETATM    3  C1  UNK     1      30.021  -9.428  33.166  1.00  0.00    -0.015 C 
HETATM    4  C2  UNK     1      29.702  -8.840  31.770  1.00  0.00     0.057 C 
HETATM    5  C3  UNK     1      30.576  -7.631  31.369  1.00  0.00     0.095 C 
HETATM    6  C4  UNK     1      30.286  -8.292  34.141  1.00  0.00    -0.015 A 
HETATM    7  C5  UNK     1      31.239 -10.372  33.128  1.00  0.00     0.020 C 
HETATM    8  C6  UNK     1      28.790 -10.264  33.593  1.00  0.00     0.020 C 
HETATM    9  C7  UNK     1      30.475  -6.981  33.688  1.00  0.00     0.080 A 
HETATM   10  C9  UNK     1      29.954  -6.989  30.109  1.00  0.00     0.052 C 
HETATM   11  C10 UNK     1      30.359  -8.530  35.527  1.00  0.00     0.037 A 
HETATM   12  C11 UNK     1      30.684  -5.934  34.598  1.00  0.00     0.076 A 
HETATM   13  C14 UNK     1      30.581  -7.488  36.430  1.00  0.00     0.068 A 
HETATM   14  C15 UNK     1      30.737  -6.188  35.965  1.00  0.00     0.103 A 
ENDROOT
BRANCH   5  15
HETATM   15  C8  UNK     1      32.035  -7.954  31.025  1.00  0.00     0.012 A 
HETATM   16  C12 UNK     1      32.345  -9.007  30.167  1.00  0.00     0.091 A 
HETATM   17  C16 UNK     1      33.677  -9.288  29.865  1.00  0.00     0.077 A 
HETATM   18  C18 UNK     1      34.696  -8.516  30.421  1.00  0.00     0.103 A 
HETATM   19  C17 UNK     1      34.383  -7.462  31.281  1.00  0.00     0.068 A 
HETATM   20  C13 UNK     1      33.051  -7.182  31.583  1.00  0.00     0.040 A 
HETATM   21 Cl2  UNK     1      35.625  -6.492  31.984  1.00  0.00    -0.081 Cl
BRANCH  16  22
HETATM   22  O2  UNK     1      31.361  -9.771  29.615  1.00  0.00    -0.279 OA
BRANCH  22  23
HETATM   23  C19 UNK     1      31.095  -9.477  28.268  1.00  0.00     0.260 C 
HETATM   24  O5  UNK     1      31.846  -8.885  27.504  1.00  0.00    -0.265 OA
HETATM   25  C21 UNK     1      29.740  -9.993  27.889  1.00  0.00     0.126 C 
ENDBRANCH  22  23
ENDBRANCH  16  22
BRANCH  18  26
HETATM   26  O4  UNK     1      35.989  -8.814  30.109  1.00  0.00    -0.277 OA
BRANCH  26  27
HETATM   27  C22 UNK     1      36.453 -10.009  30.681  1.00  0.00     0.260 C 
HETATM   28  O7  UNK     1      36.375 -11.122  30.179  1.00  0.00    -0.265 OA
HETATM   29  C24 UNK     1      37.068  -9.730  32.021  1.00  0.00     0.126 C 
ENDBRANCH  26  27
ENDBRANCH  18  26
ENDBRANCH   5  15
BRANCH  14  30
HETATM   30  O3  UNK     1      30.950  -5.149  36.819  1.00  0.00    -0.277 OA
BRANCH  30  31
HETATM   31  C20 UNK     1      32.256  -4.635  36.782  1.00  0.00     0.260 C 
HETATM   32  O6  UNK     1      33.281  -5.273  36.984  1.00  0.00    -0.265 OA
HETATM   33  C23 UNK     1      32.222  -3.171  36.462  1.00  0.00     0.126 C 
ENDBRANCH  30  31
ENDBRANCH  14  30
TORSDOF 7
ENDMDL
