MODEL 1
REMARK VINA RESULT:      -6.8      0.000      0.000
REMARK  3 active torsions:
REMARK  status: ('A' for Active; 'I' for Inactive)
REMARK    1  A    between atoms: C14_17  and  O2_2 
REMARK    2  A    between atoms: C8_11  and  O2_2 
REMARK    3  A    between atoms: C4_7  and  C6_9 
ROOT
HETATM    1  O1  UNK     1      18.481   0.686  32.182  1.00  0.00    -0.274 OA
HETATM    2  O3  UNK     1      18.621  -1.532  32.642  1.00  0.00    -0.259 OA
HETATM    3  C1  UNK     1      18.320   2.306  33.990  1.00  0.00     0.005 A 
HETATM    4  C2  UNK     1      18.383   1.198  34.965  1.00  0.00    -0.037 A 
HETATM    5  C3  UNK     1      18.373   2.012  32.632  1.00  0.00     0.099 A 
HETATM    6  C4  UNK     1      18.452  -0.075  34.519  1.00  0.00     0.024 A 
HETATM    7  C5  UNK     1      18.320   2.999  31.645  1.00  0.00     0.006 A 
HETATM    8  C7  UNK     1      18.198   3.658  34.347  1.00  0.00     0.017 A 
HETATM    9  C8  UNK     1      18.206   4.332  32.021  1.00  0.00     0.077 A 
HETATM   10  C9  UNK     1      18.522  -0.383  33.062  1.00  0.00     0.295 A 
HETATM   11  C10 UNK     1      18.380   1.574  36.426  1.00  0.00     0.050 C 
HETATM   12  C11 UNK     1      18.143   4.661  33.372  1.00  0.00     0.038 A 
HETATM   13  C12 UNK     1      18.384   2.632  30.197  1.00  0.00     0.054 C 
ENDROOT
BRANCH   9  14
HETATM   14  O2  UNK     1      18.151   5.322  31.088  1.00  0.00    -0.351 OA
BRANCH  14  15
HETATM   15  C14 UNK     1      19.185   6.305  31.123  1.00  0.00     0.171 C 
HETATM   16  C15 UNK     1      20.330   5.847  30.244  1.00  0.00     0.034 C 
ENDBRANCH  14  15
ENDBRANCH   9  14
BRANCH   6  17
HETATM   17  C6  UNK     1      18.458  -1.298  35.400  1.00  0.00     0.041 C 
HETATM   18  C13 UNK     1      19.878  -1.688  35.733  1.00  0.00     0.010 C 
ENDBRANCH   6  17
TORSDOF 3
ENDMDL
MODEL 2
REMARK VINA RESULT:      -6.8      1.435      5.713
REMARK  3 active torsions:
REMARK  status: ('A' for Active; 'I' for Inactive)
REMARK    1  A    between atoms: C14_17  and  O2_2 
REMARK    2  A    between atoms: C8_11  and  O2_2 
REMARK    3  A    between atoms: C4_7  and  C6_9 
ROOT
HETATM    1  O1  UNK     1      18.601   1.528  31.440  1.00  0.00    -0.274 OA
HETATM    2  O3  UNK     1      18.751   2.662  29.480  1.00  0.00    -0.259 OA
HETATM    3  C1  UNK     1      18.316   2.732  33.535  1.00  0.00     0.005 A 
HETATM    4  C2  UNK     1      18.316   4.003  32.784  1.00  0.00    -0.037 A 
HETATM    5  C3  UNK     1      18.457   1.537  32.836  1.00  0.00     0.099 A 
HETATM    6  C4  UNK     1      18.489   3.982  31.445  1.00  0.00     0.024 A 
HETATM    7  C5  UNK     1      18.467   0.291  33.469  1.00  0.00     0.006 A 
HETATM    8  C7  UNK     1      18.190   2.645  34.930  1.00  0.00     0.017 A 
HETATM    9  C8  UNK     1      18.336   0.229  34.851  1.00  0.00     0.077 A 
HETATM   10  C9  UNK     1      18.628   2.698  30.700  1.00  0.00     0.295 A 
HETATM   11  C10 UNK     1      18.101   5.266  33.580  1.00  0.00     0.050 C 
HETATM   12  C11 UNK     1      18.199   1.406  35.582  1.00  0.00     0.038 A 
HETATM   13  C12 UNK     1      18.619  -0.965  32.675  1.00  0.00     0.054 C 
ENDROOT
BRANCH   9  14
HETATM   14  O2  UNK     1      18.341  -0.966  35.504  1.00  0.00    -0.351 OA
BRANCH  14  15
HETATM   15  C14 UNK     1      17.479  -1.092  36.634  1.00  0.00     0.171 C 
HETATM   16  C15 UNK     1      18.291  -1.555  37.824  1.00  0.00     0.034 C 
ENDBRANCH  14  15
ENDBRANCH   9  14
BRANCH   6  17
HETATM   17  C6  UNK     1      18.574   5.206  30.568  1.00  0.00     0.041 C 
HETATM   18  C13 UNK     1      19.995   5.711  30.522  1.00  0.00     0.010 C 
ENDBRANCH   6  17
TORSDOF 3
ENDMDL
MODEL 3
REMARK VINA RESULT:      -6.7      1.863      6.214
REMARK  3 active torsions:
REMARK  status: ('A' for Active; 'I' for Inactive)
REMARK    1  A    between atoms: C14_17  and  O2_2 
REMARK    2  A    between atoms: C8_11  and  O2_2 
REMARK    3  A    between atoms: C4_7  and  C6_9 
ROOT
HETATM    1  O1  UNK     1      17.872   4.170  33.534  1.00  0.00    -0.274 OA
HETATM    2  O3  UNK     1      17.390   6.201  34.425  1.00  0.00    -0.259 OA
HETATM    3  C1  UNK     1      18.569   3.983  31.210  1.00  0.00     0.005 A 
HETATM    4  C2  UNK     1      18.460   5.450  31.079  1.00  0.00    -0.037 A 
HETATM    5  C3  UNK     1      18.272   3.393  32.435  1.00  0.00     0.099 A 
HETATM    6  C4  UNK     1      18.042   6.182  32.134  1.00  0.00     0.024 A 
HETATM    7  C5  UNK     1      18.349   2.014  32.644  1.00  0.00     0.006 A 
HETATM    8  C7  UNK     1      18.948   3.128  30.164  1.00  0.00     0.017 A 
HETATM    9  C8  UNK     1      18.732   1.187  31.596  1.00  0.00     0.077 A 
HETATM   10  C9  UNK     1      17.737   5.545  33.447  1.00  0.00     0.295 A 
HETATM   11  C10 UNK     1      18.849   6.047  29.748  1.00  0.00     0.050 C 
HETATM   12  C11 UNK     1      19.030   1.743  30.355  1.00  0.00     0.038 A 
HETATM   13  C12 UNK     1      18.023   1.428  33.980  1.00  0.00     0.054 C 
ENDROOT
BRANCH   9  14
HETATM   14  O2  UNK     1      18.819  -0.162  31.762  1.00  0.00    -0.351 OA
BRANCH  14  15
HETATM   15  C14 UNK     1      19.836  -0.842  31.028  1.00  0.00     0.171 C 
HETATM   16  C15 UNK     1      20.445  -1.914  31.906  1.00  0.00     0.034 C 
ENDBRANCH  14  15
ENDBRANCH   9  14
BRANCH   6  17
HETATM   17  C6  UNK     1      17.826   7.674  32.116  1.00  0.00     0.041 C 
HETATM   18  C13 UNK     1      16.448   7.990  31.588  1.00  0.00     0.010 C 
ENDBRANCH   6  17
TORSDOF 3
ENDMDL
MODEL 4
REMARK VINA RESULT:      -6.6      2.298      6.634
REMARK  3 active torsions:
REMARK  status: ('A' for Active; 'I' for Inactive)
REMARK    1  A    between atoms: C14_17  and  O2_2 
REMARK    2  A    between atoms: C8_11  and  O2_2 
REMARK    3  A    between atoms: C4_7  and  C6_9 
ROOT
HETATM    1  O1  UNK     1      18.187   1.228  32.950  1.00  0.00    -0.274 OA
HETATM    2  O3  UNK     1      17.604   3.000  31.658  1.00  0.00    -0.259 OA
HETATM    3  C1  UNK     1      19.596  -0.538  32.046  1.00  0.00     0.005 A 
HETATM    4  C2  UNK     1      19.657   0.192  30.764  1.00  0.00    -0.037 A 
HETATM    5  C3  UNK     1      18.864   0.007  33.097  1.00  0.00     0.099 A 
HETATM    6  C4  UNK     1      18.974   1.348  30.625  1.00  0.00     0.024 A 
HETATM    7  C5  UNK     1      18.755  -0.617  34.342  1.00  0.00     0.006 A 
HETATM    8  C7  UNK     1      20.230  -1.769  32.279  1.00  0.00     0.017 A 
HETATM    9  C8  UNK     1      19.395  -1.833  34.552  1.00  0.00     0.077 A 
HETATM   10  C9  UNK     1      18.201   1.933  31.758  1.00  0.00     0.295 A 
HETATM   11  C10 UNK     1      20.511  -0.411  29.675  1.00  0.00     0.050 C 
HETATM   12  C11 UNK     1      20.131  -2.409  33.520  1.00  0.00     0.038 A 
HETATM   13  C12 UNK     1      17.959   0.009  35.440  1.00  0.00     0.054 C 
ENDROOT
BRANCH   9  14
HETATM   14  O2  UNK     1      19.312  -2.471  35.752  1.00  0.00    -0.351 OA
BRANCH  14  15
HETATM   15  C14 UNK     1      20.540  -2.762  36.419  1.00  0.00     0.171 C 
HETATM   16  C15 UNK     1      20.380  -4.042  37.210  1.00  0.00     0.034 C 
ENDBRANCH  14  15
ENDBRANCH   9  14
BRANCH   6  17
HETATM   17  C6  UNK     1      18.898   2.157  29.355  1.00  0.00     0.041 C 
HETATM   18  C13 UNK     1      17.768   1.654  28.489  1.00  0.00     0.010 C 
ENDBRANCH   6  17
TORSDOF 3
ENDMDL
MODEL 5
REMARK VINA RESULT:      -6.6     23.661     25.586
REMARK  3 active torsions:
REMARK  status: ('A' for Active; 'I' for Inactive)
REMARK    1  A    between atoms: C14_17  and  O2_2 
REMARK    2  A    between atoms: C8_11  and  O2_2 
REMARK    3  A    between atoms: C4_7  and  C6_9 
ROOT
HETATM    1  O1  UNK     1      14.312   6.148   9.312  1.00  0.00    -0.274 OA
HETATM    2  O3  UNK     1      16.488   6.325   9.932  1.00  0.00    -0.259 OA
HETATM    3  C1  UNK     1      12.822   8.062   9.502  1.00  0.00     0.005 A 
HETATM    4  C2  UNK     1      13.947   8.863  10.023  1.00  0.00    -0.037 A 
HETATM    5  C3  UNK     1      13.043   6.731   9.163  1.00  0.00     0.099 A 
HETATM    6  C4  UNK     1      15.154   8.281  10.193  1.00  0.00     0.024 A 
HETATM    7  C5  UNK     1      12.035   5.903   8.663  1.00  0.00     0.006 A 
HETATM    8  C7  UNK     1      11.519   8.556   9.332  1.00  0.00     0.017 A 
HETATM    9  C8  UNK     1      10.753   6.415   8.498  1.00  0.00     0.077 A 
HETATM   10  C9  UNK     1      15.388   6.858   9.816  1.00  0.00     0.295 A 
HETATM   11  C10 UNK     1      13.670  10.316  10.321  1.00  0.00     0.050 C 
HETATM   12  C11 UNK     1      10.495   7.741   8.834  1.00  0.00     0.038 A 
HETATM   13  C12 UNK     1      12.323   4.480   8.310  1.00  0.00     0.054 C 
ENDROOT
BRANCH   9  14
HETATM   14  O2  UNK     1       9.744   5.640   8.014  1.00  0.00    -0.351 OA
BRANCH  14  15
HETATM   15  C14 UNK     1       8.985   6.167   6.927  1.00  0.00     0.171 C 
HETATM   16  C15 UNK     1       9.819   6.102   5.666  1.00  0.00     0.034 C 
ENDBRANCH  14  15
ENDBRANCH   9  14
BRANCH   6  17
HETATM   17  C6  UNK     1      16.366   8.964  10.774  1.00  0.00     0.041 C 
HETATM   18  C13 UNK     1      17.144   9.652   9.679  1.00  0.00     0.010 C 
ENDBRANCH   6  17
TORSDOF 3
ENDMDL
MODEL 6
REMARK VINA RESULT:      -6.5      2.816      5.620
REMARK  3 active torsions:
REMARK  status: ('A' for Active; 'I' for Inactive)
REMARK    1  A    between atoms: C14_17  and  O2_2 
REMARK    2  A    between atoms: C8_11  and  O2_2 
REMARK    3  A    between atoms: C4_7  and  C6_9 
ROOT
HETATM    1  O1  UNK     1      19.869  -1.825  32.611  1.00  0.00    -0.274 OA
HETATM    2  O3  UNK     1      20.857  -2.605  30.723  1.00  0.00    -0.259 OA
HETATM    3  C1  UNK     1      18.886   0.401  32.652  1.00  0.00     0.005 A 
HETATM    4  C2  UNK     1      19.278   0.580  31.239  1.00  0.00    -0.037 A 
HETATM    5  C3  UNK     1      19.194  -0.797  33.289  1.00  0.00     0.099 A 
HETATM    6  C4  UNK     1      19.956  -0.403  30.609  1.00  0.00     0.024 A 
HETATM    7  C5  UNK     1      18.859  -1.049  34.622  1.00  0.00     0.006 A 
HETATM    8  C7  UNK     1      18.222   1.376  33.411  1.00  0.00     0.017 A 
HETATM    9  C8  UNK     1      18.197  -0.071  35.353  1.00  0.00     0.077 A 
HETATM   10  C9  UNK     1      20.272  -1.689  31.293  1.00  0.00     0.295 A 
HETATM   11  C10 UNK     1      18.870   1.873  30.577  1.00  0.00     0.050 C 
HETATM   12  C11 UNK     1      17.879   1.142  34.749  1.00  0.00     0.038 A 
HETATM   13  C12 UNK     1      19.209  -2.353  35.261  1.00  0.00     0.054 C 
ENDROOT
BRANCH   9  14
HETATM   14  O2  UNK     1      17.854  -0.279  36.655  1.00  0.00    -0.351 OA
BRANCH  14  15
HETATM   15  C14 UNK     1      16.903   0.618  37.227  1.00  0.00     0.171 C 
HETATM   16  C15 UNK     1      17.548   1.348  38.385  1.00  0.00     0.034 C 
ENDBRANCH  14  15
ENDBRANCH   9  14
BRANCH   6  17
HETATM   17  C6  UNK     1      20.471  -0.324  29.193  1.00  0.00     0.041 C 
HETATM   18  C13 UNK     1      19.361  -0.647  28.223  1.00  0.00     0.010 C 
ENDBRANCH   6  17
TORSDOF 3
ENDMDL
MODEL 7
REMARK VINA RESULT:      -6.4      1.670      2.742
REMARK  3 active torsions:
REMARK  status: ('A' for Active; 'I' for Inactive)
REMARK    1  A    between atoms: C14_17  and  O2_2 
REMARK    2  A    between atoms: C8_11  and  O2_2 
REMARK    3  A    between atoms: C4_7  and  C6_9 
ROOT
HETATM    1  O1  UNK     1      18.342   2.868  35.167  1.00  0.00    -0.274 OA
HETATM    2  O3  UNK     1      18.443   1.785  37.159  1.00  0.00    -0.259 OA
HETATM    3  C1  UNK     1      18.428   1.615  33.083  1.00  0.00     0.005 A 
HETATM    4  C2  UNK     1      18.520   0.363  33.861  1.00  0.00    -0.037 A 
HETATM    5  C3  UNK     1      18.340   2.825  33.764  1.00  0.00     0.099 A 
HETATM    6  C4  UNK     1      18.554   0.421  35.210  1.00  0.00     0.024 A 
HETATM    7  C5  UNK     1      18.250   4.054  33.105  1.00  0.00     0.006 A 
HETATM    8  C7  UNK     1      18.432   1.669  31.681  1.00  0.00     0.017 A 
HETATM    9  C8  UNK     1      18.251   4.084  31.716  1.00  0.00     0.077 A 
HETATM   10  C9  UNK     1      18.448   1.720  35.933  1.00  0.00     0.295 A 
HETATM   11  C10 UNK     1      18.553  -0.926  33.077  1.00  0.00     0.050 C 
HETATM   12  C11 UNK     1      18.343   2.891  31.004  1.00  0.00     0.038 A 
HETATM   13  C12 UNK     1      18.156   5.328  33.881  1.00  0.00     0.054 C 
ENDROOT
BRANCH   9  14
HETATM   14  O2  UNK     1      18.165   5.262  31.039  1.00  0.00    -0.351 OA
BRANCH  14  15
HETATM   15  C14 UNK     1      19.127   5.491  30.010  1.00  0.00     0.171 C 
HETATM   16  C15 UNK     1      20.457   5.834  30.646  1.00  0.00     0.034 C 
ENDBRANCH  14  15
ENDBRANCH   9  14
BRANCH   6  17
HETATM   17  C6  UNK     1      18.710  -0.772  36.120  1.00  0.00     0.041 C 
HETATM   18  C13 UNK     1      17.356  -1.359  36.436  1.00  0.00     0.010 C 
ENDBRANCH   6  17
TORSDOF 3
ENDMDL
MODEL 8
REMARK VINA RESULT:      -6.3      5.018      7.248
REMARK  3 active torsions:
REMARK  status: ('A' for Active; 'I' for Inactive)
REMARK    1  A    between atoms: C14_17  and  O2_2 
REMARK    2  A    between atoms: C8_11  and  O2_2 
REMARK    3  A    between atoms: C4_7  and  C6_9 
ROOT
HETATM    1  O1  UNK     1      16.297   6.532  32.813  1.00  0.00    -0.274 OA
HETATM    2  O3  UNK     1      17.675   4.733  32.674  1.00  0.00    -0.259 OA
HETATM    3  C1  UNK     1      17.128   8.650  33.674  1.00  0.00     0.005 A 
HETATM    4  C2  UNK     1      18.458   8.034  33.856  1.00  0.00    -0.037 A 
HETATM    5  C3  UNK     1      16.093   7.878  33.156  1.00  0.00     0.099 A 
HETATM    6  C4  UNK     1      18.632   6.729  33.553  1.00  0.00     0.024 A 
HETATM    7  C5  UNK     1      14.807   8.382  32.953  1.00  0.00     0.006 A 
HETATM    8  C7  UNK     1      16.830   9.982  34.002  1.00  0.00     0.017 A 
HETATM    9  C8  UNK     1      14.535   9.705  33.279  1.00  0.00     0.077 A 
HETATM   10  C9  UNK     1      17.522   5.910  32.987  1.00  0.00     0.295 A 
HETATM   11  C10 UNK     1      19.561   8.929  34.365  1.00  0.00     0.050 C 
HETATM   12  C11 UNK     1      15.546  10.505  33.805  1.00  0.00     0.038 A 
HETATM   13  C12 UNK     1      13.728   7.513  32.391  1.00  0.00     0.054 C 
ENDROOT
BRANCH   9  14
HETATM   14  O2  UNK     1      13.293  10.233  33.095  1.00  0.00    -0.351 OA
BRANCH  14  15
HETATM   15  C14 UNK     1      13.221  11.609  32.725  1.00  0.00     0.171 C 
HETATM   16  C15 UNK     1      12.123  12.277  33.524  1.00  0.00     0.034 C 
ENDBRANCH  14  15
ENDBRANCH   9  14
BRANCH   6  17
HETATM   17  C6  UNK     1      19.915   5.963  33.750  1.00  0.00     0.041 C 
HETATM   18  C13 UNK     1      20.864   6.243  32.610  1.00  0.00     0.010 C 
ENDBRANCH   6  17
TORSDOF 3
ENDMDL
MODEL 9
REMARK VINA RESULT:      -6.3      4.242      8.145
REMARK  3 active torsions:
REMARK  status: ('A' for Active; 'I' for Inactive)
REMARK    1  A    between atoms: C14_17  and  O2_2 
REMARK    2  A    between atoms: C8_11  and  O2_2 
REMARK    3  A    between atoms: C4_7  and  C6_9 
ROOT
HETATM    1  O1  UNK     1      16.437   9.044  33.291  1.00  0.00    -0.274 OA
HETATM    2  O3  UNK     1      15.797  11.152  33.840  1.00  0.00    -0.259 OA
HETATM    3  C1  UNK     1      18.749   8.349  33.585  1.00  0.00     0.005 A 
HETATM    4  C2  UNK     1      19.067   9.691  34.113  1.00  0.00    -0.037 A 
HETATM    5  C3  UNK     1      17.444   8.071  33.194  1.00  0.00     0.099 A 
HETATM    6  C4  UNK     1      18.097  10.628  34.170  1.00  0.00     0.024 A 
HETATM    7  C5  UNK     1      17.058   6.828  32.685  1.00  0.00     0.006 A 
HETATM    8  C7  UNK     1      19.693   7.319  33.440  1.00  0.00     0.017 A 
HETATM    9  C8  UNK     1      18.008   5.822  32.556  1.00  0.00     0.077 A 
HETATM   10  C9  UNK     1      16.697  10.321  33.761  1.00  0.00     0.295 A 
HETATM   11  C10 UNK     1      20.484   9.923  34.578  1.00  0.00     0.050 C 
HETATM   12  C11 UNK     1      19.325   6.068  32.932  1.00  0.00     0.038 A 
HETATM   13  C12 UNK     1      15.642   6.577  32.281  1.00  0.00     0.054 C 
ENDROOT
BRANCH   9  14
HETATM   14  O2  UNK     1      17.670   4.598  32.064  1.00  0.00    -0.351 OA
BRANCH  14  15
HETATM   15  C14 UNK     1      18.530   4.038  31.071  1.00  0.00     0.171 C 
HETATM   16  C15 UNK     1      18.241   2.557  30.947  1.00  0.00     0.034 C 
ENDBRANCH  14  15
ENDBRANCH   9  14
BRANCH   6  17
HETATM   17  C6  UNK     1      18.299  12.052  34.625  1.00  0.00     0.041 C 
HETATM   18  C13 UNK     1      18.596  12.935  33.437  1.00  0.00     0.010 C 
ENDBRANCH   6  17
TORSDOF 3
ENDMDL
MODEL 10
REMARK VINA RESULT:      -6.3     13.131     15.531
REMARK  3 active torsions:
REMARK  status: ('A' for Active; 'I' for Inactive)
REMARK    1  A    between atoms: C14_17  and  O2_2 
REMARK    2  A    between atoms: C8_11  and  O2_2 
REMARK    3  A    between atoms: C4_7  and  C6_9 
ROOT
HETATM    1  O1  UNK     1      28.314  -5.366  38.244  1.00  0.00    -0.274 OA
HETATM    2  O3  UNK     1      26.059  -5.313  38.498  1.00  0.00    -0.259 OA
HETATM    3  C1  UNK     1      29.517  -7.474  38.411  1.00  0.00     0.005 A 
HETATM    4  C2  UNK     1      28.235  -8.167  38.647  1.00  0.00    -0.037 A 
HETATM    5  C3  UNK     1      29.512  -6.097  38.215  1.00  0.00     0.099 A 
HETATM    6  C4  UNK     1      27.093  -7.448  38.706  1.00  0.00     0.024 A 
HETATM    7  C5  UNK     1      30.680  -5.365  37.985  1.00  0.00     0.006 A 
HETATM    8  C7  UNK     1      30.763  -8.120  38.379  1.00  0.00     0.017 A 
HETATM    9  C8  UNK     1      31.902  -6.025  37.952  1.00  0.00     0.077 A 
HETATM   10  C9  UNK     1      27.093  -5.974  38.483  1.00  0.00     0.295 A 
HETATM   11  C10 UNK     1      28.287  -9.668  38.795  1.00  0.00     0.050 C 
HETATM   12  C11 UNK     1      31.944  -7.402  38.150  1.00  0.00     0.038 A 
HETATM   13  C12 UNK     1      30.622  -3.886  37.777  1.00  0.00     0.054 C 
ENDROOT
BRANCH   9  14
HETATM   14  O2  UNK     1      33.061  -5.346  37.730  1.00  0.00    -0.351 OA
BRANCH  14  15
HETATM   15  C14 UNK     1      34.259  -6.117  37.643  1.00  0.00     0.171 C 
HETATM   16  C15 UNK     1      35.066  -5.642  36.454  1.00  0.00     0.034 C 
ENDBRANCH  14  15
ENDBRANCH   9  14
BRANCH   6  17
HETATM   17  C6  UNK     1      25.730  -8.019  39.003  1.00  0.00     0.041 C 
HETATM   18  C13 UNK     1      25.136  -8.614  37.750  1.00  0.00     0.010 C 
ENDBRANCH   6  17
TORSDOF 3
ENDMDL
