MODEL 1
REMARK VINA RESULT:      -9.2      0.000      0.000
REMARK  3 active torsions:
REMARK  status: ('A' for Active; 'I' for Inactive)
REMARK    1  A    between atoms: C12_16  and  O2_2 
REMARK    2  A    between atoms: C6_10  and  O2_2 
REMARK    3  A    between atoms: C11_15  and  C12_16 
ROOT
HETATM    1  O1  UNK     1      16.423   6.932  33.290  1.00  0.00    -0.275 OA
HETATM    2  O3  UNK     1      15.343   8.433  34.636  1.00  0.00    -0.260 OA
HETATM    3  C1  UNK     1      18.855   7.047  33.083  1.00  0.00     0.004 A 
HETATM    4  C2  UNK     1      17.635   6.453  32.754  1.00  0.00     0.092 A 
HETATM    5  C3  UNK     1      18.854   8.189  34.006  1.00  0.00    -0.043 A 
HETATM    6  C4  UNK     1      20.014   6.511  32.508  1.00  0.00     0.017 A 
HETATM    7  C5  UNK     1      17.546   5.364  31.885  1.00  0.00     0.075 A 
HETATM    8  C6  UNK     1      18.710   4.847  31.324  1.00  0.00     0.082 A 
HETATM    9  C7  UNK     1      19.942   5.420  31.635  1.00  0.00     0.038 A 
HETATM   10  C8  UNK     1      17.686   8.624  34.501  1.00  0.00     0.090 A 
HETATM   11  C9  UNK     1      20.148   8.851  34.380  1.00  0.00     0.049 C 
HETATM   12  C10 UNK     1      16.392   8.008  34.163  1.00  0.00     0.288 A 
ENDROOT
BRANCH   8  13
HETATM   13  O2  UNK     1      18.645   3.786  30.475  1.00  0.00    -0.275 OA
BRANCH  13  14
HETATM   14  C12 UNK     1      18.451   2.533  31.095  1.00  0.00     0.298 C 
HETATM   15  O4  UNK     1      17.902   2.401  32.184  1.00  0.00    -0.259 OA
BRANCH  14  16
HETATM   16  C11 UNK     1      18.978   1.434  30.284  1.00  0.00     0.039 A 
HETATM   17  C14 UNK     1      19.989   0.627  30.792  1.00  0.00     0.017 A 
HETATM   18  C16 UNK     1      20.490  -0.421  30.019  1.00  0.00     0.001 A 
HETATM   19  C17 UNK     1      19.977  -0.653  28.742  1.00  0.00     0.000 A 
HETATM   20  C15 UNK     1      18.963   0.162  28.240  1.00  0.00     0.001 A 
HETATM   21  C13 UNK     1      18.462   1.208  29.013  1.00  0.00     0.017 A 
ENDBRANCH  14  16
ENDBRANCH  13  14
ENDBRANCH   8  13
TORSDOF 3
ENDMDL
MODEL 2
REMARK VINA RESULT:      -8.7      2.034      7.393
REMARK  3 active torsions:
REMARK  status: ('A' for Active; 'I' for Inactive)
REMARK    1  A    between atoms: C12_16  and  O2_2 
REMARK    2  A    between atoms: C6_10  and  O2_2 
REMARK    3  A    between atoms: C11_15  and  C12_16 
ROOT
HETATM    1  O1  UNK     1      18.920   0.364  33.107  1.00  0.00    -0.275 OA
HETATM    2  O3  UNK     1      19.325  -1.519  34.340  1.00  0.00    -0.260 OA
HETATM    3  C1  UNK     1      19.360   0.337  30.705  1.00  0.00     0.004 A 
HETATM    4  C2  UNK     1      18.931   1.005  31.853  1.00  0.00     0.092 A 
HETATM    5  C3  UNK     1      19.804  -1.058  30.828  1.00  0.00    -0.043 A 
HETATM    6  C4  UNK     1      19.342   1.044  29.496  1.00  0.00     0.017 A 
HETATM    7  C5  UNK     1      18.495   2.330  31.825  1.00  0.00     0.075 A 
HETATM    8  C6  UNK     1      18.484   3.016  30.613  1.00  0.00     0.082 A 
HETATM    9  C7  UNK     1      18.907   2.374  29.451  1.00  0.00     0.038 A 
HETATM   10  C8  UNK     1      19.782  -1.643  32.034  1.00  0.00     0.090 A 
HETATM   11  C9  UNK     1      20.271  -1.805  29.612  1.00  0.00     0.049 C 
HETATM   12  C10 UNK     1      19.332  -0.952  33.253  1.00  0.00     0.288 A 
ENDROOT
BRANCH   8  13
HETATM   13  O2  UNK     1      18.061   4.308  30.564  1.00  0.00    -0.275 OA
BRANCH  13  14
HETATM   14  C12 UNK     1      19.054   5.275  30.830  1.00  0.00     0.298 C 
HETATM   15  O4  UNK     1      20.010   5.476  30.089  1.00  0.00    -0.259 OA
BRANCH  14  16
HETATM   16  C11 UNK     1      18.797   5.993  32.080  1.00  0.00     0.039 A 
HETATM   17  C14 UNK     1      17.519   5.986  32.627  1.00  0.00     0.017 A 
HETATM   18  C16 UNK     1      17.274   6.669  33.818  1.00  0.00     0.001 A 
HETATM   19  C17 UNK     1      18.310   7.355  34.454  1.00  0.00     0.000 A 
HETATM   20  C15 UNK     1      19.589   7.357  33.899  1.00  0.00     0.001 A 
HETATM   21  C13 UNK     1      19.834   6.673  32.709  1.00  0.00     0.017 A 
ENDBRANCH  14  16
ENDBRANCH  13  14
ENDBRANCH   8  13
TORSDOF 3
ENDMDL
MODEL 3
REMARK VINA RESULT:      -8.6      7.822      9.850
REMARK  3 active torsions:
REMARK  status: ('A' for Active; 'I' for Inactive)
REMARK    1  A    between atoms: C12_16  and  O2_2 
REMARK    2  A    between atoms: C6_10  and  O2_2 
REMARK    3  A    between atoms: C11_15  and  C12_16 
ROOT
HETATM    1  O1  UNK     1      19.148  -0.618  33.967  1.00  0.00    -0.275 OA
HETATM    2  O3  UNK     1      18.314   1.086  32.690  1.00  0.00    -0.260 OA
HETATM    3  C1  UNK     1      18.387  -0.864  36.275  1.00  0.00     0.004 A 
HETATM    4  C2  UNK     1      19.173  -1.292  35.204  1.00  0.00     0.092 A 
HETATM    5  C3  UNK     1      17.526   0.311  36.090  1.00  0.00    -0.043 A 
HETATM    6  C4  UNK     1      18.470  -1.588  37.472  1.00  0.00     0.017 A 
HETATM    7  C5  UNK     1      20.019  -2.398  35.295  1.00  0.00     0.075 A 
HETATM    8  C6  UNK     1      20.086  -3.104  36.493  1.00  0.00     0.082 A 
HETATM    9  C7  UNK     1      19.313  -2.700  37.579  1.00  0.00     0.038 A 
HETATM   10  C8  UNK     1      17.522   0.932  34.902  1.00  0.00     0.090 A 
HETATM   11  C9  UNK     1      16.669   0.797  37.222  1.00  0.00     0.049 C 
HETATM   12  C10 UNK     1      18.344   0.493  33.763  1.00  0.00     0.288 A 
ENDROOT
BRANCH   8  13
HETATM   13  O2  UNK     1      20.904  -4.186  36.602  1.00  0.00    -0.275 OA
BRANCH  13  14
HETATM   14  C12 UNK     1      20.337  -5.411  36.191  1.00  0.00     0.298 C 
HETATM   15  O4  UNK     1      20.033  -5.653  35.027  1.00  0.00    -0.259 OA
BRANCH  14  16
HETATM   16  C11 UNK     1      20.165  -6.337  37.312  1.00  0.00     0.039 A 
HETATM   17  C14 UNK     1      19.221  -7.354  37.225  1.00  0.00     0.017 A 
HETATM   18  C16 UNK     1      19.057  -8.237  38.293  1.00  0.00     0.001 A 
HETATM   19  C17 UNK     1      19.839  -8.095  39.441  1.00  0.00     0.000 A 
HETATM   20  C15 UNK     1      20.783  -7.072  39.519  1.00  0.00     0.001 A 
HETATM   21  C13 UNK     1      20.946  -6.190  38.452  1.00  0.00     0.017 A 
ENDBRANCH  14  16
ENDBRANCH  13  14
ENDBRANCH   8  13
TORSDOF 3
ENDMDL
MODEL 4
REMARK VINA RESULT:      -8.5     21.683     24.290
REMARK  3 active torsions:
REMARK  status: ('A' for Active; 'I' for Inactive)
REMARK    1  A    between atoms: C12_16  and  O2_2 
REMARK    2  A    between atoms: C6_10  and  O2_2 
REMARK    3  A    between atoms: C11_15  and  C12_16 
ROOT
HETATM    1  O1  UNK     1       9.562   5.574   9.460  1.00  0.00    -0.275 OA
HETATM    2  O3  UNK     1       7.316   5.715   9.049  1.00  0.00    -0.260 OA
HETATM    3  C1  UNK     1      11.136   5.909   7.622  1.00  0.00     0.004 A 
HETATM    4  C2  UNK     1      10.880   5.641   8.968  1.00  0.00     0.092 A 
HETATM    5  C3  UNK     1       9.997   6.121   6.719  1.00  0.00    -0.043 A 
HETATM    6  C4  UNK     1      12.474   5.959   7.212  1.00  0.00     0.017 A 
HETATM    7  C5  UNK     1      11.904   5.427   9.892  1.00  0.00     0.075 A 
HETATM    8  C6  UNK     1      13.227   5.481   9.465  1.00  0.00     0.082 A 
HETATM    9  C7  UNK     1      13.512   5.746   8.127  1.00  0.00     0.038 A 
HETATM   10  C8  UNK     1       8.753   6.052   7.215  1.00  0.00     0.090 A 
HETATM   11  C9  UNK     1      10.237   6.411   5.266  1.00  0.00     0.049 C 
HETATM   12  C10 UNK     1       8.468   5.771   8.631  1.00  0.00     0.288 A 
ENDROOT
BRANCH   8  13
HETATM   13  O2  UNK     1      14.239   5.276  10.351  1.00  0.00    -0.275 OA
BRANCH  13  14
HETATM   14  C12 UNK     1      15.516   5.680   9.907  1.00  0.00     0.298 C 
HETATM   15  O4  UNK     1      16.294   4.928   9.329  1.00  0.00    -0.259 OA
BRANCH  14  16
HETATM   16  C11 UNK     1      15.783   7.086  10.217  1.00  0.00     0.039 A 
HETATM   17  C14 UNK     1      16.861   7.730   9.620  1.00  0.00     0.017 A 
HETATM   18  C16 UNK     1      17.114   9.069   9.915  1.00  0.00     0.001 A 
HETATM   19  C17 UNK     1      16.289   9.755  10.807  1.00  0.00     0.000 A 
HETATM   20  C15 UNK     1      15.210   9.101  11.402  1.00  0.00     0.001 A 
HETATM   21  C13 UNK     1      14.956   7.763  11.106  1.00  0.00     0.017 A 
ENDBRANCH  14  16
ENDBRANCH  13  14
ENDBRANCH   8  13
TORSDOF 3
ENDMDL
MODEL 5
REMARK VINA RESULT:      -8.5      4.021      6.036
REMARK  3 active torsions:
REMARK  status: ('A' for Active; 'I' for Inactive)
REMARK    1  A    between atoms: C12_16  and  O2_2 
REMARK    2  A    between atoms: C6_10  and  O2_2 
REMARK    3  A    between atoms: C11_15  and  C12_16 
ROOT
HETATM    1  O1  UNK     1      18.190   1.871  30.658  1.00  0.00    -0.275 OA
HETATM    2  O3  UNK     1      18.313   1.533  28.399  1.00  0.00    -0.260 OA
HETATM    3  C1  UNK     1      18.625   4.100  31.558  1.00  0.00     0.004 A 
HETATM    4  C2  UNK     1      18.297   2.757  31.748  1.00  0.00     0.092 A 
HETATM    5  C3  UNK     1      18.858   4.579  30.189  1.00  0.00    -0.043 A 
HETATM    6  C4  UNK     1      18.711   4.916  32.693  1.00  0.00     0.017 A 
HETATM    7  C5  UNK     1      18.060   2.220  33.015  1.00  0.00     0.075 A 
HETATM    8  C6  UNK     1      18.151   3.047  34.130  1.00  0.00     0.082 A 
HETATM    9  C7  UNK     1      18.476   4.392  33.970  1.00  0.00     0.038 A 
HETATM   10  C8  UNK     1      18.749   3.714  29.171  1.00  0.00     0.090 A 
HETATM   11  C9  UNK     1      19.213   6.018  29.949  1.00  0.00     0.049 C 
HETATM   12  C10 UNK     1      18.404   2.295  29.355  1.00  0.00     0.288 A 
ENDROOT
BRANCH   8  13
HETATM   13  O2  UNK     1      17.923   2.543  35.373  1.00  0.00    -0.275 OA
BRANCH  13  14
HETATM   14  C12 UNK     1      19.016   1.869  35.958  1.00  0.00     0.298 C 
HETATM   15  O4  UNK     1      20.100   2.404  36.165  1.00  0.00    -0.259 OA
BRANCH  14  16
HETATM   16  C11 UNK     1      18.692   0.478  36.281  1.00  0.00     0.039 A 
HETATM   17  C14 UNK     1      17.907   0.195  37.393  1.00  0.00     0.017 A 
HETATM   18  C16 UNK     1      17.597  -1.130  37.700  1.00  0.00     0.001 A 
HETATM   19  C17 UNK     1      18.075  -2.162  36.892  1.00  0.00     0.000 A 
HETATM   20  C15 UNK     1      18.862  -1.869  35.779  1.00  0.00     0.001 A 
HETATM   21  C13 UNK     1      19.171  -0.545  35.472  1.00  0.00     0.017 A 
ENDBRANCH  14  16
ENDBRANCH  13  14
ENDBRANCH   8  13
TORSDOF 3
ENDMDL
MODEL 6
REMARK VINA RESULT:      -8.4     14.323     19.196
REMARK  3 active torsions:
REMARK  status: ('A' for Active; 'I' for Inactive)
REMARK    1  A    between atoms: C12_16  and  O2_2 
REMARK    2  A    between atoms: C6_10  and  O2_2 
REMARK    3  A    between atoms: C11_15  and  C12_16 
ROOT
HETATM    1  O1  UNK     1      20.193  -1.321  12.418  1.00  0.00    -0.275 OA
HETATM    2  O3  UNK     1      21.195  -1.267  10.362  1.00  0.00    -0.260 OA
HETATM    3  C1  UNK     1      19.068  -3.364  13.146  1.00  0.00     0.004 A 
HETATM    4  C2  UNK     1      19.459  -2.044  13.379  1.00  0.00     0.092 A 
HETATM    5  C3  UNK     1      19.437  -3.991  11.870  1.00  0.00    -0.043 A 
HETATM    6  C4  UNK     1      18.341  -4.013  14.152  1.00  0.00     0.017 A 
HETATM    7  C5  UNK     1      19.150  -1.373  14.563  1.00  0.00     0.075 A 
HETATM    8  C6  UNK     1      18.427  -2.036  15.550  1.00  0.00     0.082 A 
HETATM    9  C7  UNK     1      18.023  -3.354  15.345  1.00  0.00     0.038 A 
HETATM   10  C8  UNK     1      20.136  -3.279  10.974  1.00  0.00     0.090 A 
HETATM   11  C9  UNK     1      19.032  -5.409  11.588  1.00  0.00     0.049 C 
HETATM   12  C10 UNK     1      20.556  -1.888  11.206  1.00  0.00     0.288 A 
ENDROOT
BRANCH   8  13
HETATM   13  O2  UNK     1      18.116  -1.400  16.712  1.00  0.00    -0.275 OA
BRANCH  13  14
HETATM   14  C12 UNK     1      19.221  -1.034  17.510  1.00  0.00     0.298 C 
HETATM   15  O4  UNK     1      20.211  -1.744  17.651  1.00  0.00    -0.259 OA
BRANCH  14  16
HETATM   16  C11 UNK     1      19.034   0.278  18.132  1.00  0.00     0.039 A 
HETATM   17  C14 UNK     1      19.201   1.430  17.372  1.00  0.00     0.017 A 
HETATM   18  C16 UNK     1      19.023   2.681  17.965  1.00  0.00     0.001 A 
HETATM   19  C17 UNK     1      18.679   2.769  19.314  1.00  0.00     0.000 A 
HETATM   20  C15 UNK     1      18.514   1.608  20.070  1.00  0.00     0.001 A 
HETATM   21  C13 UNK     1      18.692   0.360  19.477  1.00  0.00     0.017 A 
ENDBRANCH  14  16
ENDBRANCH  13  14
ENDBRANCH   8  13
TORSDOF 3
ENDMDL
MODEL 7
REMARK VINA RESULT:      -8.4      1.912      7.673
REMARK  3 active torsions:
REMARK  status: ('A' for Active; 'I' for Inactive)
REMARK    1  A    between atoms: C12_16  and  O2_2 
REMARK    2  A    between atoms: C6_10  and  O2_2 
REMARK    3  A    between atoms: C11_15  and  C12_16 
ROOT
HETATM    1  O1  UNK     1      19.523   0.977  29.142  1.00  0.00    -0.275 OA
HETATM    2  O3  UNK     1      20.349  -0.846  28.037  1.00  0.00    -0.260 OA
HETATM    3  C1  UNK     1      19.036   0.809  31.530  1.00  0.00     0.004 A 
HETATM    4  C2  UNK     1      19.070   1.550  30.347  1.00  0.00     0.092 A 
HETATM    5  C3  UNK     1      19.484  -0.589  31.496  1.00  0.00    -0.043 A 
HETATM    6  C4  UNK     1      18.572   1.451  32.685  1.00  0.00     0.017 A 
HETATM    7  C5  UNK     1      18.662   2.883  30.291  1.00  0.00     0.075 A 
HETATM    8  C6  UNK     1      18.204   3.502  31.450  1.00  0.00     0.082 A 
HETATM    9  C7  UNK     1      18.160   2.787  32.645  1.00  0.00     0.038 A 
HETATM   10  C8  UNK     1      19.910  -1.107  30.336  1.00  0.00     0.090 A 
HETATM   11  C9  UNK     1      19.460  -1.414  32.751  1.00  0.00     0.049 C 
HETATM   12  C10 UNK     1      19.952  -0.339  29.081  1.00  0.00     0.288 A 
ENDROOT
BRANCH   8  13
HETATM   13  O2  UNK     1      17.803   4.802  31.417  1.00  0.00    -0.275 OA
BRANCH  13  14
HETATM   14  C12 UNK     1      18.777   5.741  31.817  1.00  0.00     0.298 C 
HETATM   15  O4  UNK     1      19.844   5.891  31.233  1.00  0.00    -0.259 OA
BRANCH  14  16
HETATM   16  C11 UNK     1      18.352   6.499  32.996  1.00  0.00     0.039 A 
HETATM   17  C14 UNK     1      19.278   7.274  33.686  1.00  0.00     0.017 A 
HETATM   18  C16 UNK     1      18.873   7.997  34.808  1.00  0.00     0.001 A 
HETATM   19  C17 UNK     1      17.546   7.939  35.234  1.00  0.00     0.000 A 
HETATM   20  C15 UNK     1      16.624   7.159  34.536  1.00  0.00     0.001 A 
HETATM   21  C13 UNK     1      17.028   6.437  33.414  1.00  0.00     0.017 A 
ENDBRANCH  14  16
ENDBRANCH  13  14
ENDBRANCH   8  13
TORSDOF 3
ENDMDL
MODEL 8
REMARK VINA RESULT:      -8.3      4.043      5.243
REMARK  3 active torsions:
REMARK  status: ('A' for Active; 'I' for Inactive)
REMARK    1  A    between atoms: C12_16  and  O2_2 
REMARK    2  A    between atoms: C6_10  and  O2_2 
REMARK    3  A    between atoms: C11_15  and  C12_16 
ROOT
HETATM    1  O1  UNK     1      18.254   5.511  34.213  1.00  0.00    -0.275 OA
HETATM    2  O3  UNK     1      18.337   7.780  34.481  1.00  0.00    -0.260 OA
HETATM    3  C1  UNK     1      18.463   4.564  31.970  1.00  0.00     0.004 A 
HETATM    4  C2  UNK     1      18.298   4.400  33.347  1.00  0.00     0.092 A 
HETATM    5  C3  UNK     1      18.591   5.926  31.435  1.00  0.00    -0.043 A 
HETATM    6  C4  UNK     1      18.496   3.410  31.177  1.00  0.00     0.017 A 
HETATM    7  C5  UNK     1      18.167   3.142  33.937  1.00  0.00     0.075 A 
HETATM    8  C6  UNK     1      18.203   2.008  33.132  1.00  0.00     0.082 A 
HETATM    9  C7  UNK     1      18.367   2.141  31.754  1.00  0.00     0.038 A 
HETATM   10  C8  UNK     1      18.547   6.964  32.283  1.00  0.00     0.090 A 
HETATM   11  C9  UNK     1      18.770   6.137  29.960  1.00  0.00     0.049 C 
HETATM   12  C10 UNK     1      18.374   6.807  33.736  1.00  0.00     0.288 A 
ENDROOT
BRANCH   8  13
HETATM   13  O2  UNK     1      18.079   0.772  33.688  1.00  0.00    -0.275 OA
BRANCH  13  14
HETATM   14  C12 UNK     1      16.958   0.602  34.528  1.00  0.00     0.298 C 
HETATM   15  O4  UNK     1      15.804   0.780  34.151  1.00  0.00    -0.259 OA
BRANCH  14  16
HETATM   16  C11 UNK     1      17.345   0.191  35.879  1.00  0.00     0.039 A 
HETATM   17  C14 UNK     1      17.293   1.112  36.919  1.00  0.00     0.017 A 
HETATM   18  C16 UNK     1      17.661   0.720  38.207  1.00  0.00     0.001 A 
HETATM   19  C17 UNK     1      18.078  -0.590  38.444  1.00  0.00     0.000 A 
HETATM   20  C15 UNK     1      18.128  -1.507  37.394  1.00  0.00     0.001 A 
HETATM   21  C13 UNK     1      17.760  -1.116  36.108  1.00  0.00     0.017 A 
ENDBRANCH  14  16
ENDBRANCH  13  14
ENDBRANCH   8  13
TORSDOF 3
ENDMDL
MODEL 9
REMARK VINA RESULT:      -8.3      2.218      6.848
REMARK  3 active torsions:
REMARK  status: ('A' for Active; 'I' for Inactive)
REMARK    1  A    between atoms: C12_16  and  O2_2 
REMARK    2  A    between atoms: C6_10  and  O2_2 
REMARK    3  A    between atoms: C11_15  and  C12_16 
ROOT
HETATM    1  O1  UNK     1      17.893   1.880  34.167  1.00  0.00    -0.275 OA
HETATM    2  O3  UNK     1      17.637   0.476  35.954  1.00  0.00    -0.260 OA
HETATM    3  C1  UNK     1      18.745   0.987  32.058  1.00  0.00     0.004 A 
HETATM    4  C2  UNK     1      18.275   2.057  32.822  1.00  0.00     0.092 A 
HETATM    5  C3  UNK     1      18.836  -0.338  32.686  1.00  0.00    -0.043 A 
HETATM    6  C4  UNK     1      19.104   1.246  30.729  1.00  0.00     0.017 A 
HETATM    7  C5  UNK     1      18.157   3.347  32.304  1.00  0.00     0.075 A 
HETATM    8  C6  UNK     1      18.519   3.583  30.982  1.00  0.00     0.082 A 
HETATM    9  C7  UNK     1      18.992   2.534  30.196  1.00  0.00     0.038 A 
HETATM   10  C8  UNK     1      18.466  -0.477  33.967  1.00  0.00     0.090 A 
HETATM   11  C9  UNK     1      19.338  -1.509  31.892  1.00  0.00     0.049 C 
HETATM   12  C10 UNK     1      17.967   0.641  34.785  1.00  0.00     0.288 A 
ENDROOT
BRANCH   8  13
HETATM   13  O2  UNK     1      18.411   4.834  30.457  1.00  0.00    -0.275 OA
BRANCH  13  14
HETATM   14  C12 UNK     1      19.463   5.716  30.787  1.00  0.00     0.298 C 
HETATM   15  O4  UNK     1      20.533   5.738  30.188  1.00  0.00    -0.259 OA
BRANCH  14  16
HETATM   16  C11 UNK     1      19.114   6.584  31.914  1.00  0.00     0.039 A 
HETATM   17  C14 UNK     1      17.881   7.226  31.932  1.00  0.00     0.017 A 
HETATM   18  C16 UNK     1      17.549   8.053  33.005  1.00  0.00     0.001 A 
HETATM   19  C17 UNK     1      18.453   8.232  34.053  1.00  0.00     0.000 A 
HETATM   20  C15 UNK     1      19.688   7.585  34.027  1.00  0.00     0.001 A 
HETATM   21  C13 UNK     1      20.019   6.758  32.954  1.00  0.00     0.017 A 
ENDBRANCH  14  16
ENDBRANCH  13  14
ENDBRANCH   8  13
TORSDOF 3
ENDMDL
MODEL 10
REMARK VINA RESULT:      -8.2     22.325     24.715
REMARK  3 active torsions:
REMARK  status: ('A' for Active; 'I' for Inactive)
REMARK    1  A    between atoms: C12_16  and  O2_2 
REMARK    2  A    between atoms: C6_10  and  O2_2 
REMARK    3  A    between atoms: C11_15  and  C12_16 
ROOT
HETATM    1  O1  UNK     1      10.263   5.546   9.723  1.00  0.00    -0.275 OA
HETATM    2  O3  UNK     1       8.038   5.121  10.035  1.00  0.00    -0.260 OA
HETATM    3  C1  UNK     1      11.049   6.241   7.517  1.00  0.00     0.004 A 
HETATM    4  C2  UNK     1      11.303   5.933   8.854  1.00  0.00     0.092 A 
HETATM    5  C3  UNK     1       9.668   6.153   7.025  1.00  0.00    -0.043 A 
HETATM    6  C4  UNK     1      12.137   6.617   6.719  1.00  0.00     0.017 A 
HETATM    7  C5  UNK     1      12.585   5.990   9.402  1.00  0.00     0.075 A 
HETATM    8  C6  UNK     1      13.653   6.366   8.592  1.00  0.00     0.082 A 
HETATM    9  C7  UNK     1      13.429   6.678   7.253  1.00  0.00     0.038 A 
HETATM   10  C8  UNK     1       8.698   5.783   7.874  1.00  0.00     0.090 A 
HETATM   11  C9  UNK     1       9.361   6.477   5.592  1.00  0.00     0.049 C 
HETATM   12  C10 UNK     1       8.950   5.456   9.287  1.00  0.00     0.288 A 
ENDROOT
BRANCH   8  13
HETATM   13  O2  UNK     1      14.911   6.428   9.107  1.00  0.00    -0.275 OA
BRANCH  13  14
HETATM   14  C12 UNK     1      15.099   7.398  10.114  1.00  0.00     0.298 C 
HETATM   15  O4  UNK     1      14.841   7.197  11.296  1.00  0.00    -0.259 OA
BRANCH  14  16
HETATM   16  C11 UNK     1      15.635   8.650   9.574  1.00  0.00     0.039 A 
HETATM   17  C14 UNK     1      16.971   8.972   9.781  1.00  0.00     0.017 A 
HETATM   18  C16 UNK     1      17.482  10.164   9.266  1.00  0.00     0.001 A 
HETATM   19  C17 UNK     1      16.651  11.025   8.547  1.00  0.00     0.000 A 
HETATM   20  C15 UNK     1      15.312  10.694   8.345  1.00  0.00     0.001 A 
HETATM   21  C13 UNK     1      14.802   9.503   8.859  1.00  0.00     0.017 A 
ENDBRANCH  14  16
ENDBRANCH  13  14
ENDBRANCH   8  13
TORSDOF 3
ENDMDL
