MODEL 1
REMARK VINA RESULT:      -8.8      0.000      0.000
REMARK  6 active torsions:
REMARK  status: ('A' for Active; 'I' for Inactive)
REMARK    1  A    between atoms: C18_27  and  O2_3 
REMARK    2  A    between atoms: C9_18  and  O2_3 
REMARK    3  A    between atoms: C3_12  and  N1_8 
REMARK       I    between atoms: C8_17  and  N1_8 
REMARK       I    between atoms: C12_21  and  N2_9 
REMARK    4  A    between atoms: C1_10  and  C9_18 
REMARK    5  A    between atoms: C12_21  and  C4_13 
REMARK    6  A    between atoms: C6_15  and  C8_17 
ROOT
HETATM    1  S1  UNK     1      19.308  -1.610  12.148  1.00  0.00    -0.065 SA
HETATM    2  C1  UNK     1      20.235  -3.532  13.579  1.00  0.00     0.080 A 
HETATM    3  C2  UNK     1      20.136  -4.040  12.251  1.00  0.00    -0.020 A 
HETATM    4  C3  UNK     1      19.818  -2.241  13.642  1.00  0.00     0.094 A 
HETATM    5  C4  UNK     1      19.646  -3.099  11.373  1.00  0.00     0.081 A 
HETATM    6  C5  UNK     1      20.516  -5.421  11.860  1.00  0.00     0.051 C 
ENDROOT
BRANCH   4   7
HETATM    7  N1  UNK     1      19.747  -1.364  14.728  1.00  0.00    -0.316 N 
HETATM    8  C8  UNK     1      18.818  -1.411  15.758  1.00  0.00     0.262 C 
HETATM    9  O3  UNK     1      17.895  -2.208  15.924  1.00  0.00    -0.267 OA
HETATM   10  H1  UNK     1      20.447  -0.626  14.717  1.00  0.00     0.169 HD
BRANCH   8  11
HETATM   11  C6  UNK     1      19.031  -0.337  16.736  1.00  0.00     0.108 A 
HETATM   12  C10 UNK     1      19.018  -0.701  18.024  1.00  0.00     0.037 A 
HETATM   13  C7  UNK     1      19.219   0.293  19.067  1.00  0.00    -0.001 A 
HETATM   14  C11 UNK     1      19.426   1.619  18.704  1.00  0.00     0.089 A 
HETATM   15  C14 UNK     1      19.214  -0.041  20.424  1.00  0.00     0.014 A 
HETATM   16  O1  UNK     1      19.440   1.995  17.346  1.00  0.00    -0.274 OA
HETATM   17  C15 UNK     1      19.625   2.619  19.653  1.00  0.00     0.038 A 
HETATM   18  C13 UNK     1      19.250   1.068  16.325  1.00  0.00     0.304 A 
HETATM   19  O6  UNK     1      19.261   1.404  15.146  1.00  0.00    -0.259 OA
HETATM   20  C17 UNK     1      19.618   2.278  21.004  1.00  0.00     0.003 A 
HETATM   21  C16 UNK     1      19.413   0.951  21.389  1.00  0.00     0.001 A 
ENDBRANCH   8  11
ENDBRANCH   4   7
BRANCH   2  22
HETATM   22  C9  UNK     1      20.711  -4.270  14.723  1.00  0.00     0.296 C 
HETATM   23  O4  UNK     1      20.087  -5.199  15.255  1.00  0.00    -0.259 OA
BRANCH  22  24
HETATM   24  O2  UNK     1      21.940  -3.849  15.187  1.00  0.00    -0.318 OA
BRANCH  24  25
HETATM   25  C18 UNK     1      22.481  -4.552  16.312  1.00  0.00     0.174 C 
HETATM   26  C19 UNK     1      23.867  -4.018  16.605  1.00  0.00     0.034 C 
ENDBRANCH  24  25
ENDBRANCH  22  24
ENDBRANCH   2  22
BRANCH   5  27
HETATM   27  C12 UNK     1      19.401  -3.213   9.971  1.00  0.00     0.256 C 
HETATM   28  O5  UNK     1      20.144  -2.741   9.077  1.00  0.00    -0.267 OA
HETATM   29  N2  UNK     1      18.238  -3.876   9.555  1.00  0.00    -0.365 N 
HETATM   30  H12 UNK     1      18.019  -3.975   8.569  1.00  0.00     0.159 HD
HETATM   31  H13 UNK     1      17.581  -4.279  10.216  1.00  0.00     0.159 HD
ENDBRANCH   5  27
TORSDOF 6
ENDMDL
MODEL 2
REMARK VINA RESULT:      -8.7      0.893      1.567
REMARK  6 active torsions:
REMARK  status: ('A' for Active; 'I' for Inactive)
REMARK    1  A    between atoms: C18_27  and  O2_3 
REMARK    2  A    between atoms: C9_18  and  O2_3 
REMARK    3  A    between atoms: C3_12  and  N1_8 
REMARK       I    between atoms: C8_17  and  N1_8 
REMARK       I    between atoms: C12_21  and  N2_9 
REMARK    4  A    between atoms: C1_10  and  C9_18 
REMARK    5  A    between atoms: C12_21  and  C4_13 
REMARK    6  A    between atoms: C6_15  and  C8_17 
ROOT
HETATM    1  S1  UNK     1      19.404  -1.756  12.182  1.00  0.00    -0.065 SA
HETATM    2  C1  UNK     1      20.257  -3.670  13.668  1.00  0.00     0.080 A 
HETATM    3  C2  UNK     1      20.180  -4.200  12.347  1.00  0.00    -0.020 A 
HETATM    4  C3  UNK     1      19.866  -2.371  13.698  1.00  0.00     0.094 A 
HETATM    5  C4  UNK     1      19.731  -3.265  11.441  1.00  0.00     0.081 A 
HETATM    6  C5  UNK     1      20.541  -5.595  11.991  1.00  0.00     0.051 C 
ENDROOT
BRANCH   4   7
HETATM    7  N1  UNK     1      19.786  -1.472  14.767  1.00  0.00    -0.316 N 
HETATM    8  C8  UNK     1      18.788  -1.435  15.732  1.00  0.00     0.262 C 
HETATM    9  O3  UNK     1      17.801  -2.161  15.843  1.00  0.00    -0.267 OA
HETATM   10  H1  UNK     1      20.537  -0.788  14.795  1.00  0.00     0.169 HD
BRANCH   8  11
HETATM   11  C6  UNK     1      19.013  -0.364  16.709  1.00  0.00     0.108 A 
HETATM   12  C10 UNK     1      18.998  -0.727  17.997  1.00  0.00     0.037 A 
HETATM   13  C7  UNK     1      19.210   0.264  19.041  1.00  0.00    -0.001 A 
HETATM   14  C11 UNK     1      19.430   1.588  18.677  1.00  0.00     0.089 A 
HETATM   15  C14 UNK     1      19.203  -0.070  20.397  1.00  0.00     0.014 A 
HETATM   16  O1  UNK     1      19.446   1.964  17.319  1.00  0.00    -0.274 OA
HETATM   17  C15 UNK     1      19.641   2.586  19.626  1.00  0.00     0.038 A 
HETATM   18  C13 UNK     1      19.246   1.039  16.299  1.00  0.00     0.304 A 
HETATM   19  O6  UNK     1      19.260   1.375  15.119  1.00  0.00    -0.259 OA
HETATM   20  C17 UNK     1      19.631   2.245  20.977  1.00  0.00     0.003 A 
HETATM   21  C16 UNK     1      19.413   0.920  21.362  1.00  0.00     0.001 A 
ENDBRANCH   8  11
ENDBRANCH   4   7
BRANCH   2  22
HETATM   22  C9  UNK     1      20.691  -4.397  14.837  1.00  0.00     0.296 C 
HETATM   23  O4  UNK     1      21.879  -4.621  15.110  1.00  0.00    -0.259 OA
BRANCH  22  24
HETATM   24  O2  UNK     1      19.657  -4.831  15.639  1.00  0.00    -0.318 OA
BRANCH  24  25
HETATM   25  C18 UNK     1      19.055  -6.085  15.295  1.00  0.00     0.174 C 
HETATM   26  C19 UNK     1      17.707  -6.188  15.977  1.00  0.00     0.034 C 
ENDBRANCH  24  25
ENDBRANCH  22  24
ENDBRANCH   2  22
BRANCH   5  27
HETATM   27  C12 UNK     1      19.517  -3.399  10.036  1.00  0.00     0.256 C 
HETATM   28  O5  UNK     1      20.386  -3.177   9.159  1.00  0.00    -0.267 OA
HETATM   29  N2  UNK     1      18.243  -3.783   9.594  1.00  0.00    -0.365 N 
HETATM   30  H12 UNK     1      18.043  -3.884   8.605  1.00  0.00     0.159 HD
HETATM   31  H13 UNK     1      17.483  -3.973  10.240  1.00  0.00     0.159 HD
ENDBRANCH   5  27
TORSDOF 6
ENDMDL
MODEL 3
REMARK VINA RESULT:      -8.4     20.203     22.084
REMARK  6 active torsions:
REMARK  status: ('A' for Active; 'I' for Inactive)
REMARK    1  A    between atoms: C18_27  and  O2_3 
REMARK    2  A    between atoms: C9_18  and  O2_3 
REMARK    3  A    between atoms: C3_12  and  N1_8 
REMARK       I    between atoms: C8_17  and  N1_8 
REMARK       I    between atoms: C12_21  and  N2_9 
REMARK    4  A    between atoms: C1_10  and  C9_18 
REMARK    5  A    between atoms: C12_21  and  C4_13 
REMARK    6  A    between atoms: C6_15  and  C8_17 
ROOT
HETATM    1  S1  UNK     1      20.190  -6.681  38.732  1.00  0.00    -0.065 SA
HETATM    2  C1  UNK     1      20.002  -7.475  36.297  1.00  0.00     0.080 A 
HETATM    3  C2  UNK     1      20.327  -8.631  37.066  1.00  0.00    -0.020 A 
HETATM    4  C3  UNK     1      19.903  -6.374  37.085  1.00  0.00     0.094 A 
HETATM    5  C4  UNK     1      20.459  -8.340  38.405  1.00  0.00     0.081 A 
HETATM    6  C5  UNK     1      20.505  -9.988  36.490  1.00  0.00     0.051 C 
ENDROOT
BRANCH   4   7
HETATM    7  N1  UNK     1      19.605  -5.048  36.758  1.00  0.00    -0.316 N 
HETATM    8  C8  UNK     1      20.492  -3.980  36.784  1.00  0.00     0.262 C 
HETATM    9  O3  UNK     1      21.683  -3.979  37.092  1.00  0.00    -0.267 OA
HETATM   10  H1  UNK     1      18.636  -4.889  36.497  1.00  0.00     0.169 HD
BRANCH   8  11
HETATM   11  C6  UNK     1      19.847  -2.725  36.380  1.00  0.00     0.108 A 
HETATM   12  C10 UNK     1      19.136  -2.096  37.324  1.00  0.00     0.037 A 
HETATM   13  C7  UNK     1      18.459  -0.845  37.019  1.00  0.00    -0.001 A 
HETATM   14  C11 UNK     1      18.565  -0.317  35.737  1.00  0.00     0.089 A 
HETATM   15  C14 UNK     1      17.706  -0.155  37.972  1.00  0.00     0.014 A 
HETATM   16  O1  UNK     1      19.316  -0.983  34.749  1.00  0.00    -0.274 OA
HETATM   17  C15 UNK     1      17.941   0.877  35.380  1.00  0.00     0.038 A 
HETATM   18  C13 UNK     1      19.974  -2.182  35.010  1.00  0.00     0.304 A 
HETATM   19  O6  UNK     1      20.625  -2.756  34.143  1.00  0.00    -0.259 OA
HETATM   20  C17 UNK     1      17.192   1.559  36.336  1.00  0.00     0.003 A 
HETATM   21  C16 UNK     1      17.075   1.045  37.629  1.00  0.00     0.001 A 
ENDBRANCH   8  11
ENDBRANCH   4   7
BRANCH   2  22
HETATM   22  C9  UNK     1      19.798  -7.451  34.869  1.00  0.00     0.296 C 
HETATM   23  O4  UNK     1      20.703  -7.622  34.039  1.00  0.00    -0.259 OA
BRANCH  22  24
HETATM   24  O2  UNK     1      18.492  -7.216  34.496  1.00  0.00    -0.318 OA
BRANCH  24  25
HETATM   25  C18 UNK     1      17.473  -7.858  35.272  1.00  0.00     0.174 C 
HETATM   26  C19 UNK     1      16.225  -7.000  35.251  1.00  0.00     0.034 C 
ENDBRANCH  24  25
ENDBRANCH  22  24
ENDBRANCH   2  22
BRANCH   5  27
HETATM   27  C12 UNK     1      20.775  -9.210  39.492  1.00  0.00     0.256 C 
HETATM   28  O5  UNK     1      19.985 -10.052  39.984  1.00  0.00    -0.267 OA
HETATM   29  N2  UNK     1      22.048  -9.108  40.072  1.00  0.00    -0.365 N 
HETATM   30  H12 UNK     1      22.314  -9.701  40.851  1.00  0.00     0.159 HD
HETATM   31  H13 UNK     1      22.741  -8.447  39.737  1.00  0.00     0.159 HD
ENDBRANCH   5  27
TORSDOF 6
ENDMDL
MODEL 4
REMARK VINA RESULT:      -8.4      2.251      3.499
REMARK  6 active torsions:
REMARK  status: ('A' for Active; 'I' for Inactive)
REMARK    1  A    between atoms: C18_27  and  O2_3 
REMARK    2  A    between atoms: C9_18  and  O2_3 
REMARK    3  A    between atoms: C3_12  and  N1_8 
REMARK       I    between atoms: C8_17  and  N1_8 
REMARK       I    between atoms: C12_21  and  N2_9 
REMARK    4  A    between atoms: C1_10  and  C9_18 
REMARK    5  A    between atoms: C12_21  and  C4_13 
REMARK    6  A    between atoms: C6_15  and  C8_17 
ROOT
HETATM    1  S1  UNK     1      20.464  -5.254  14.821  1.00  0.00    -0.065 SA
HETATM    2  C1  UNK     1      20.145  -3.970  12.620  1.00  0.00     0.080 A 
HETATM    3  C2  UNK     1      20.402  -5.323  12.254  1.00  0.00    -0.020 A 
HETATM    4  C3  UNK     1      20.154  -3.817  13.969  1.00  0.00     0.094 A 
HETATM    5  C4  UNK     1      20.595  -6.128  13.354  1.00  0.00     0.081 A 
HETATM    6  C5  UNK     1      20.457  -5.808  10.851  1.00  0.00     0.051 C 
ENDROOT
BRANCH   4   7
HETATM    7  N1  UNK     1      19.950  -2.678  14.753  1.00  0.00    -0.316 N 
HETATM    8  C8  UNK     1      18.810  -2.384  15.489  1.00  0.00     0.262 C 
HETATM    9  O3  UNK     1      17.777  -3.044  15.599  1.00  0.00    -0.267 OA
HETATM   10  H1  UNK     1      20.725  -2.020  14.745  1.00  0.00     0.169 HD
BRANCH   8  11
HETATM   11  C6  UNK     1      18.931  -1.106  16.198  1.00  0.00     0.108 A 
HETATM   12  C10 UNK     1      18.720  -1.141  17.520  1.00  0.00     0.037 A 
HETATM   13  C7  UNK     1      18.817   0.077  18.310  1.00  0.00    -0.001 A 
HETATM   14  C11 UNK     1      19.133   1.271  17.671  1.00  0.00     0.089 A 
HETATM   15  C14 UNK     1      18.604   0.087  19.691  1.00  0.00     0.014 A 
HETATM   16  O1  UNK     1      19.356   1.301  16.280  1.00  0.00    -0.274 OA
HETATM   17  C15 UNK     1      19.242   2.472  18.369  1.00  0.00     0.038 A 
HETATM   18  C13 UNK     1      19.270   0.153  15.497  1.00  0.00     0.304 A 
HETATM   19  O6  UNK     1      19.464   0.189  14.287  1.00  0.00    -0.259 OA
HETATM   20  C17 UNK     1      19.028   2.473  19.746  1.00  0.00     0.003 A 
HETATM   21  C16 UNK     1      18.710   1.284  20.405  1.00  0.00     0.001 A 
ENDBRANCH   8  11
ENDBRANCH   4   7
BRANCH   2  22
HETATM   22  C9  UNK     1      19.902  -2.887  11.699  1.00  0.00     0.296 C 
HETATM   23  O4  UNK     1      18.835  -2.722  11.091  1.00  0.00    -0.259 OA
BRANCH  22  24
HETATM   24  O2  UNK     1      20.974  -2.033  11.546  1.00  0.00    -0.318 OA
BRANCH  24  25
HETATM   25  C18 UNK     1      21.209  -1.521  10.229  1.00  0.00     0.174 C 
HETATM   26  C19 UNK     1      21.823  -2.613   9.378  1.00  0.00     0.034 C 
ENDBRANCH  24  25
ENDBRANCH  22  24
ENDBRANCH   2  22
BRANCH   5  27
HETATM   27  C12 UNK     1      20.874  -7.527  13.412  1.00  0.00     0.256 C 
HETATM   28  O5  UNK     1      21.975  -8.020  13.759  1.00  0.00    -0.267 OA
HETATM   29  N2  UNK     1      19.861  -8.421  13.035  1.00  0.00    -0.365 N 
HETATM   30  H12 UNK     1      20.017  -9.423  13.054  1.00  0.00     0.159 HD
HETATM   31  H13 UNK     1      18.946  -8.101  12.734  1.00  0.00     0.159 HD
ENDBRANCH   5  27
TORSDOF 6
ENDMDL
MODEL 5
REMARK VINA RESULT:      -8.3     15.665     19.420
REMARK  6 active torsions:
REMARK  status: ('A' for Active; 'I' for Inactive)
REMARK    1  A    between atoms: C18_27  and  O2_3 
REMARK    2  A    between atoms: C9_18  and  O2_3 
REMARK    3  A    between atoms: C3_12  and  N1_8 
REMARK       I    between atoms: C8_17  and  N1_8 
REMARK       I    between atoms: C12_21  and  N2_9 
REMARK    4  A    between atoms: C1_10  and  C9_18 
REMARK    5  A    between atoms: C12_21  and  C4_13 
REMARK    6  A    between atoms: C6_15  and  C8_17 
ROOT
HETATM    1  S1  UNK     1      15.750   6.537  32.380  1.00  0.00    -0.065 SA
HETATM    2  C1  UNK     1      18.037   7.208  33.338  1.00  0.00     0.080 A 
HETATM    3  C2  UNK     1      17.224   8.377  33.398  1.00  0.00    -0.020 A 
HETATM    4  C3  UNK     1      17.351   6.162  32.810  1.00  0.00     0.094 A 
HETATM    5  C4  UNK     1      15.957   8.152  32.908  1.00  0.00     0.081 A 
HETATM    6  C5  UNK     1      17.690   9.685  33.926  1.00  0.00     0.051 C 
ENDROOT
BRANCH   4   7
HETATM    7  N1  UNK     1      17.751   4.844  32.571  1.00  0.00    -0.316 N 
HETATM    8  C8  UNK     1      18.206   4.333  31.362  1.00  0.00     0.262 C 
HETATM    9  O3  UNK     1      18.347   4.916  30.288  1.00  0.00    -0.267 OA
HETATM   10  H1  UNK     1      17.671   4.229  33.376  1.00  0.00     0.169 HD
BRANCH   8  11
HETATM   11  C6  UNK     1      18.542   2.909  31.463  1.00  0.00     0.108 A 
HETATM   12  C10 UNK     1      19.040   2.340  30.358  1.00  0.00     0.037 A 
HETATM   13  C7  UNK     1      19.402   0.931  30.359  1.00  0.00    -0.001 A 
HETATM   14  C11 UNK     1      19.225   0.190  31.523  1.00  0.00     0.089 A 
HETATM   15  C14 UNK     1      19.925   0.296  29.230  1.00  0.00     0.014 A 
HETATM   16  O1  UNK     1      18.701   0.795  32.682  1.00  0.00    -0.274 OA
HETATM   17  C15 UNK     1      19.551  -1.162  31.591  1.00  0.00     0.038 A 
HETATM   18  C13 UNK     1      18.345   2.141  32.712  1.00  0.00     0.304 A 
HETATM   19  O6  UNK     1      17.888   2.659  33.726  1.00  0.00    -0.259 OA
HETATM   20  C17 UNK     1      20.072  -1.788  30.460  1.00  0.00     0.003 A 
HETATM   21  C16 UNK     1      20.259  -1.061  29.282  1.00  0.00     0.001 A 
ENDBRANCH   8  11
ENDBRANCH   4   7
BRANCH   2  22
HETATM   22  C9  UNK     1      19.409   7.120  33.774  1.00  0.00     0.296 C 
HETATM   23  O4  UNK     1      19.926   7.896  34.590  1.00  0.00    -0.259 OA
BRANCH  22  24
HETATM   24  O2  UNK     1      20.112   6.083  33.198  1.00  0.00    -0.318 OA
BRANCH  24  25
HETATM   25  C18 UNK     1      21.416   6.390  32.691  1.00  0.00     0.174 C 
HETATM   26  C19 UNK     1      21.492   5.965  31.239  1.00  0.00     0.034 C 
ENDBRANCH  24  25
ENDBRANCH  22  24
ENDBRANCH   2  22
BRANCH   5  27
HETATM   27  C12 UNK     1      14.858   9.056  32.796  1.00  0.00     0.256 C 
HETATM   28  O5  UNK     1      14.950  10.305  32.880  1.00  0.00    -0.267 OA
HETATM   29  N2  UNK     1      13.577   8.519  32.601  1.00  0.00    -0.365 N 
HETATM   30  H12 UNK     1      12.766   9.123  32.522  1.00  0.00     0.159 HD
HETATM   31  H13 UNK     1      13.417   7.519  32.530  1.00  0.00     0.159 HD
ENDBRANCH   5  27
TORSDOF 6
ENDMDL
MODEL 6
REMARK VINA RESULT:      -8.3     15.581     19.693
REMARK  6 active torsions:
REMARK  status: ('A' for Active; 'I' for Inactive)
REMARK    1  A    between atoms: C18_27  and  O2_3 
REMARK    2  A    between atoms: C9_18  and  O2_3 
REMARK    3  A    between atoms: C3_12  and  N1_8 
REMARK       I    between atoms: C8_17  and  N1_8 
REMARK       I    between atoms: C12_21  and  N2_9 
REMARK    4  A    between atoms: C1_10  and  C9_18 
REMARK    5  A    between atoms: C12_21  and  C4_13 
REMARK    6  A    between atoms: C6_15  and  C8_17 
ROOT
HETATM    1  S1  UNK     1      20.106  -1.984  31.218  1.00  0.00    -0.065 SA
HETATM    2  C1  UNK     1      18.959  -0.199  32.665  1.00  0.00     0.080 A 
HETATM    3  C2  UNK     1      19.134   0.388  31.378  1.00  0.00    -0.020 A 
HETATM    4  C3  UNK     1      19.443  -1.467  32.695  1.00  0.00     0.094 A 
HETATM    5  C4  UNK     1      19.746  -0.474  30.496  1.00  0.00     0.081 A 
HETATM    6  C5  UNK     1      18.707   1.767  31.030  1.00  0.00     0.051 C 
ENDROOT
BRANCH   4   7
HETATM    7  N1  UNK     1      19.478  -2.399  33.736  1.00  0.00    -0.316 N 
HETATM    8  C8  UNK     1      20.537  -2.612  34.609  1.00  0.00     0.262 C 
HETATM    9  O3  UNK     1      21.627  -2.043  34.645  1.00  0.00    -0.267 OA
HETATM   10  H1  UNK     1      18.639  -2.966  33.819  1.00  0.00     0.169 HD
BRANCH   8  11
HETATM   11  C6  UNK     1      20.238  -3.668  35.583  1.00  0.00     0.108 A 
HETATM   12  C10 UNK     1      20.116  -4.907  35.092  1.00  0.00     0.037 A 
HETATM   13  C7  UNK     1      19.819  -6.021  35.980  1.00  0.00    -0.001 A 
HETATM   14  C11 UNK     1      19.668  -5.776  37.340  1.00  0.00     0.089 A 
HETATM   15  C14 UNK     1      19.682  -7.330  35.511  1.00  0.00     0.014 A 
HETATM   16  O1  UNK     1      19.800  -4.470  37.851  1.00  0.00    -0.274 OA
HETATM   17  C15 UNK     1      19.383  -6.798  38.244  1.00  0.00     0.038 A 
HETATM   18  C13 UNK     1      20.082  -3.384  37.027  1.00  0.00     0.304 A 
HETATM   19  O6  UNK     1      20.194  -2.250  37.480  1.00  0.00    -0.259 OA
HETATM   20  C17 UNK     1      19.248  -8.100  37.769  1.00  0.00     0.003 A 
HETATM   21  C16 UNK     1      19.397  -8.366  36.405  1.00  0.00     0.001 A 
ENDBRANCH   8  11
ENDBRANCH   4   7
BRANCH   2  22
HETATM   22  C9  UNK     1      18.351   0.447  33.803  1.00  0.00     0.296 C 
HETATM   23  O4  UNK     1      17.235   0.986  33.778  1.00  0.00    -0.259 OA
BRANCH  22  24
HETATM   24  O2  UNK     1      19.128   0.417  34.942  1.00  0.00    -0.318 OA
BRANCH  24  25
HETATM   25  C18 UNK     1      18.761   1.315  35.997  1.00  0.00     0.174 C 
HETATM   26  C19 UNK     1      18.019   0.540  37.066  1.00  0.00     0.034 C 
ENDBRANCH  24  25
ENDBRANCH  22  24
ENDBRANCH   2  22
BRANCH   5  27
HETATM   27  C12 UNK     1      20.095  -0.269  29.127  1.00  0.00     0.256 C 
HETATM   28  O5  UNK     1      21.271  -0.186  28.696  1.00  0.00    -0.267 OA
HETATM   29  N2  UNK     1      19.058  -0.125  28.194  1.00  0.00    -0.365 N 
HETATM   30  H12 UNK     1      19.259   0.029  27.212  1.00  0.00     0.159 HD
HETATM   31  H13 UNK     1      18.080  -0.172  28.464  1.00  0.00     0.159 HD
ENDBRANCH   5  27
TORSDOF 6
ENDMDL
MODEL 7
REMARK VINA RESULT:      -8.1     17.486     21.573
REMARK  6 active torsions:
REMARK  status: ('A' for Active; 'I' for Inactive)
REMARK    1  A    between atoms: C18_27  and  O2_3 
REMARK    2  A    between atoms: C9_18  and  O2_3 
REMARK    3  A    between atoms: C3_12  and  N1_8 
REMARK       I    between atoms: C8_17  and  N1_8 
REMARK       I    between atoms: C12_21  and  N2_9 
REMARK    4  A    between atoms: C1_10  and  C9_18 
REMARK    5  A    between atoms: C12_21  and  C4_13 
REMARK    6  A    between atoms: C6_15  and  C8_17 
ROOT
HETATM    1  S1  UNK     1      20.166  -2.339  33.034  1.00  0.00    -0.065 SA
HETATM    2  C1  UNK     1      18.722  -1.148  34.793  1.00  0.00     0.080 A 
HETATM    3  C2  UNK     1      18.785  -0.269  33.673  1.00  0.00    -0.020 A 
HETATM    4  C3  UNK     1      19.425  -2.286  34.562  1.00  0.00     0.094 A 
HETATM    5  C4  UNK     1      19.538  -0.793  32.646  1.00  0.00     0.081 A 
HETATM    6  C5  UNK     1      18.117   1.057  33.619  1.00  0.00     0.051 C 
ENDROOT
BRANCH   4   7
HETATM    7  N1  UNK     1      19.630  -3.405  35.375  1.00  0.00    -0.316 N 
HETATM    8  C8  UNK     1      20.197  -3.404  36.642  1.00  0.00     0.262 C 
HETATM    9  O3  UNK     1      20.622  -2.449  37.291  1.00  0.00    -0.267 OA
HETATM   10  H1  UNK     1      19.340  -4.285  34.956  1.00  0.00     0.169 HD
BRANCH   8  11
HETATM   11  C6  UNK     1      20.262  -4.754  37.213  1.00  0.00     0.108 A 
HETATM   12  C10 UNK     1      21.369  -5.051  37.905  1.00  0.00     0.037 A 
HETATM   13  C7  UNK     1      21.526  -6.365  38.508  1.00  0.00    -0.001 A 
HETATM   14  C11 UNK     1      20.509  -7.302  38.356  1.00  0.00     0.089 A 
HETATM   15  C14 UNK     1      22.664  -6.718  39.238  1.00  0.00     0.014 A 
HETATM   16  O1  UNK     1      19.346  -6.983  37.629  1.00  0.00    -0.274 OA
HETATM   17  C15 UNK     1      20.596  -8.578  38.909  1.00  0.00     0.038 A 
HETATM   18  C13 UNK     1      19.167  -5.734  37.039  1.00  0.00     0.304 A 
HETATM   19  O6  UNK     1      18.151  -5.466  36.406  1.00  0.00    -0.259 OA
HETATM   20  C17 UNK     1      21.735  -8.922  39.635  1.00  0.00     0.003 A 
HETATM   21  C16 UNK     1      22.766  -7.994  39.799  1.00  0.00     0.001 A 
ENDBRANCH   8  11
ENDBRANCH   4   7
BRANCH   2  22
HETATM   22  C9  UNK     1      18.012  -0.888  36.021  1.00  0.00     0.296 C 
HETATM   23  O4  UNK     1      17.090  -1.596  36.450  1.00  0.00    -0.259 OA
BRANCH  22  24
HETATM   24  O2  UNK     1      18.450   0.235  36.692  1.00  0.00    -0.318 OA
BRANCH  24  25
HETATM   25  C18 UNK     1      17.656   0.675  37.801  1.00  0.00     0.174 C 
HETATM   26  C19 UNK     1      16.626   1.668  37.306  1.00  0.00     0.034 C 
ENDBRANCH  24  25
ENDBRANCH  22  24
ENDBRANCH   2  22
BRANCH   5  27
HETATM   27  C12 UNK     1      19.841  -0.231  31.369  1.00  0.00     0.256 C 
HETATM   28  O5  UNK     1      20.995   0.067  30.977  1.00  0.00    -0.267 OA
HETATM   29  N2  UNK     1      18.778   0.032  30.493  1.00  0.00    -0.365 N 
HETATM   30  H12 UNK     1      18.945   0.437  29.579  1.00  0.00     0.159 HD
HETATM   31  H13 UNK     1      17.814  -0.173  30.739  1.00  0.00     0.159 HD
ENDBRANCH   5  27
TORSDOF 6
ENDMDL
MODEL 8
REMARK VINA RESULT:      -8.0     16.894     19.606
REMARK  6 active torsions:
REMARK  status: ('A' for Active; 'I' for Inactive)
REMARK    1  A    between atoms: C18_27  and  O2_3 
REMARK    2  A    between atoms: C9_18  and  O2_3 
REMARK    3  A    between atoms: C3_12  and  N1_8 
REMARK       I    between atoms: C8_17  and  N1_8 
REMARK       I    between atoms: C12_21  and  N2_9 
REMARK    4  A    between atoms: C1_10  and  C9_18 
REMARK    5  A    between atoms: C12_21  and  C4_13 
REMARK    6  A    between atoms: C6_15  and  C8_17 
ROOT
HETATM    1  S1  UNK     1      18.202   2.158  34.948  1.00  0.00    -0.065 SA
HETATM    2  C1  UNK     1      18.357   2.197  32.384  1.00  0.00     0.080 A 
HETATM    3  C2  UNK     1      18.573   0.843  32.773  1.00  0.00    -0.020 A 
HETATM    4  C3  UNK     1      18.148   2.990  33.467  1.00  0.00     0.094 A 
HETATM    5  C4  UNK     1      18.516   0.682  34.139  1.00  0.00     0.081 A 
HETATM    6  C5  UNK     1      18.830  -0.264  31.817  1.00  0.00     0.051 C 
ENDROOT
BRANCH   4   7
HETATM    7  N1  UNK     1      17.897   4.363  33.550  1.00  0.00    -0.316 N 
HETATM    8  C8  UNK     1      18.829   5.348  33.846  1.00  0.00     0.262 C 
HETATM    9  O3  UNK     1      20.029   5.222  34.088  1.00  0.00    -0.267 OA
HETATM   10  H1  UNK     1      16.927   4.622  33.390  1.00  0.00     0.169 HD
BRANCH   8  11
HETATM   11  C6  UNK     1      18.227   6.686  33.851  1.00  0.00     0.108 A 
HETATM   12  C10 UNK     1      16.891   6.732  33.931  1.00  0.00     0.037 A 
HETATM   13  C7  UNK     1      16.202   8.013  33.942  1.00  0.00    -0.001 A 
HETATM   14  C11 UNK     1      16.951   9.182  33.870  1.00  0.00     0.089 A 
HETATM   15  C14 UNK     1      14.810   8.108  34.024  1.00  0.00     0.014 A 
HETATM   16  O1  UNK     1      18.356   9.127  33.788  1.00  0.00    -0.274 OA
HETATM   17  C15 UNK     1      16.353  10.441  33.876  1.00  0.00     0.038 A 
HETATM   18  C13 UNK     1      19.045   7.917  33.775  1.00  0.00     0.304 A 
HETATM   19  O6  UNK     1      20.268   7.878  33.701  1.00  0.00    -0.259 OA
HETATM   20  C17 UNK     1      14.965  10.527  33.958  1.00  0.00     0.003 A 
HETATM   21  C16 UNK     1      14.195   9.364  34.032  1.00  0.00     0.001 A 
ENDBRANCH   8  11
ENDBRANCH   4   7
BRANCH   2  22
HETATM   22  C9  UNK     1      18.354   2.688  31.028  1.00  0.00     0.296 C 
HETATM   23  O4  UNK     1      17.535   2.335  30.167  1.00  0.00    -0.259 OA
BRANCH  22  24
HETATM   24  O2  UNK     1      19.356   3.597  30.761  1.00  0.00    -0.318 OA
BRANCH  24  25
HETATM   25  C18 UNK     1      18.969   4.810  30.104  1.00  0.00     0.174 C 
HETATM   26  C19 UNK     1      19.991   5.884  30.412  1.00  0.00     0.034 C 
ENDBRANCH  24  25
ENDBRANCH  22  24
ENDBRANCH   2  22
BRANCH   5  27
HETATM   27  C12 UNK     1      18.679  -0.504  34.917  1.00  0.00     0.256 C 
HETATM   28  O5  UNK     1      19.773  -0.908  35.381  1.00  0.00    -0.267 OA
HETATM   29  N2  UNK     1      17.546  -1.293  35.164  1.00  0.00    -0.365 N 
HETATM   30  H12 UNK     1      17.616  -2.148  35.706  1.00  0.00     0.159 HD
HETATM   31  H13 UNK     1      16.627  -1.040  34.816  1.00  0.00     0.159 HD
ENDBRANCH   5  27
TORSDOF 6
ENDMDL
MODEL 9
REMARK VINA RESULT:      -7.9     15.562     18.980
REMARK  6 active torsions:
REMARK  status: ('A' for Active; 'I' for Inactive)
REMARK    1  A    between atoms: C18_27  and  O2_3 
REMARK    2  A    between atoms: C9_18  and  O2_3 
REMARK    3  A    between atoms: C3_12  and  N1_8 
REMARK       I    between atoms: C8_17  and  N1_8 
REMARK       I    between atoms: C12_21  and  N2_9 
REMARK    4  A    between atoms: C1_10  and  C9_18 
REMARK    5  A    between atoms: C12_21  and  C4_13 
REMARK    6  A    between atoms: C6_15  and  C8_17 
ROOT
HETATM    1  S1  UNK     1      17.908   0.840  35.136  1.00  0.00    -0.065 SA
HETATM    2  C1  UNK     1      18.938   0.385  32.827  1.00  0.00     0.080 A 
HETATM    3  C2  UNK     1      19.107  -0.814  33.579  1.00  0.00    -0.020 A 
HETATM    4  C3  UNK     1      18.307   1.338  33.561  1.00  0.00     0.094 A 
HETATM    5  C4  UNK     1      18.593  -0.703  34.851  1.00  0.00     0.081 A 
HETATM    6  C5  UNK     1      19.763  -2.038  33.052  1.00  0.00     0.051 C 
ENDROOT
BRANCH   4   7
HETATM    7  N1  UNK     1      17.940   2.645  33.225  1.00  0.00    -0.316 N 
HETATM    8  C8  UNK     1      18.486   3.809  33.751  1.00  0.00     0.262 C 
HETATM    9  O3  UNK     1      19.376   3.926  34.592  1.00  0.00    -0.267 OA
HETATM   10  H1  UNK     1      17.189   2.707  32.543  1.00  0.00     0.169 HD
BRANCH   8  11
HETATM   11  C6  UNK     1      17.867   5.009  33.178  1.00  0.00     0.108 A 
HETATM   12  C10 UNK     1      17.177   5.781  34.026  1.00  0.00     0.037 A 
HETATM   13  C7  UNK     1      16.527   6.992  33.552  1.00  0.00    -0.001 A 
HETATM   14  C11 UNK     1      16.636   7.333  32.208  1.00  0.00     0.089 A 
HETATM   15  C14 UNK     1      15.796   7.827  34.402  1.00  0.00     0.014 A 
HETATM   16  O1  UNK     1      17.365   6.518  31.320  1.00  0.00    -0.274 OA
HETATM   17  C15 UNK     1      16.038   8.480  31.689  1.00  0.00     0.038 A 
HETATM   18  C13 UNK     1      17.998   5.353  31.744  1.00  0.00     0.304 A 
HETATM   19  O6  UNK     1      18.629   4.648  30.964  1.00  0.00    -0.259 OA
HETATM   20  C17 UNK     1      15.311   9.307  32.543  1.00  0.00     0.003 A 
HETATM   21  C16 UNK     1      15.191   8.981  33.896  1.00  0.00     0.001 A 
ENDBRANCH   8  11
ENDBRANCH   4   7
BRANCH   2  22
HETATM   22  C9  UNK     1      19.368   0.586  31.465  1.00  0.00     0.296 C 
HETATM   23  O4  UNK     1      20.523   0.378  31.067  1.00  0.00    -0.259 OA
BRANCH  22  24
HETATM   24  O2  UNK     1      18.372   1.038  30.626  1.00  0.00    -0.318 OA
BRANCH  24  25
HETATM   25  C18 UNK     1      18.676   1.079  29.226  1.00  0.00     0.174 C 
HETATM   26  C19 UNK     1      17.847   2.166  28.574  1.00  0.00     0.034 C 
ENDBRANCH  24  25
ENDBRANCH  22  24
ENDBRANCH   2  22
BRANCH   5  27
HETATM   27  C12 UNK     1      18.566  -1.669  35.902  1.00  0.00     0.256 C 
HETATM   28  O5  UNK     1      19.561  -2.005  36.588  1.00  0.00    -0.267 OA
HETATM   29  N2  UNK     1      17.349  -2.310  36.179  1.00  0.00    -0.365 N 
HETATM   30  H12 UNK     1      17.284  -3.008  36.912  1.00  0.00     0.159 HD
HETATM   31  H13 UNK     1      16.500  -2.100  35.664  1.00  0.00     0.159 HD
ENDBRANCH   5  27
TORSDOF 6
ENDMDL
MODEL 10
REMARK VINA RESULT:      -7.7     19.709     23.204
REMARK  6 active torsions:
REMARK  status: ('A' for Active; 'I' for Inactive)
REMARK    1  A    between atoms: C18_27  and  O2_3 
REMARK    2  A    between atoms: C9_18  and  O2_3 
REMARK    3  A    between atoms: C3_12  and  N1_8 
REMARK       I    between atoms: C8_17  and  N1_8 
REMARK       I    between atoms: C12_21  and  N2_9 
REMARK    4  A    between atoms: C1_10  and  C9_18 
REMARK    5  A    between atoms: C12_21  and  C4_13 
REMARK    6  A    between atoms: C6_15  and  C8_17 
ROOT
HETATM    1  S1  UNK     1      28.228  -6.959  36.310  1.00  0.00    -0.065 SA
HETATM    2  C1  UNK     1      30.484  -5.731  36.298  1.00  0.00     0.080 A 
HETATM    3  C2  UNK     1      29.906  -5.482  37.576  1.00  0.00    -0.020 A 
HETATM    4  C3  UNK     1      29.673  -6.510  35.537  1.00  0.00     0.094 A 
HETATM    5  C4  UNK     1      28.679  -6.091  37.716  1.00  0.00     0.081 A 
HETATM    6  C5  UNK     1      30.551  -4.663  38.634  1.00  0.00     0.051 C 
ENDROOT
BRANCH   4   7
HETATM    7  N1  UNK     1      29.841  -6.994  34.236  1.00  0.00    -0.316 N 
HETATM    8  C8  UNK     1      29.146  -6.573  33.110  1.00  0.00     0.262 C 
HETATM    9  O3  UNK     1      28.267  -5.716  33.027  1.00  0.00    -0.267 OA
HETATM   10  H1  UNK     1      30.534  -7.733  34.150  1.00  0.00     0.169 HD
BRANCH   8  11
HETATM   11  C6  UNK     1      29.572  -7.292  31.904  1.00  0.00     0.108 A 
HETATM   12  C10 UNK     1      28.613  -7.942  31.234  1.00  0.00     0.037 A 
HETATM   13  C7  UNK     1      28.938  -8.685  30.026  1.00  0.00    -0.001 A 
HETATM   14  C11 UNK     1      30.256  -8.706  29.582  1.00  0.00     0.089 A 
HETATM   15  C14 UNK     1      27.969  -9.378  29.295  1.00  0.00     0.014 A 
HETATM   16  O1  UNK     1      31.260  -8.019  30.291  1.00  0.00    -0.274 OA
HETATM   17  C15 UNK     1      30.634  -9.398  28.433  1.00  0.00     0.038 A 
HETATM   18  C13 UNK     1      30.981  -7.300  31.450  1.00  0.00     0.304 A 
HETATM   19  O6  UNK     1      31.862  -6.706  32.062  1.00  0.00    -0.259 OA
HETATM   20  C17 UNK     1      29.662 -10.086  27.710  1.00  0.00     0.003 A 
HETATM   21  C16 UNK     1      28.333 -10.076  28.140  1.00  0.00     0.001 A 
ENDBRANCH   8  11
ENDBRANCH   4   7
BRANCH   2  22
HETATM   22  C9  UNK     1      31.761  -5.233  35.846  1.00  0.00     0.296 C 
HETATM   23  O4  UNK     1      32.020  -4.030  35.697  1.00  0.00    -0.259 OA
BRANCH  22  24
HETATM   24  O2  UNK     1      32.685  -6.223  35.587  1.00  0.00    -0.318 OA
BRANCH  24  25
HETATM   25  C18 UNK     1      33.141  -6.990  36.708  1.00  0.00     0.174 C 
HETATM   26  C19 UNK     1      34.144  -6.170  37.491  1.00  0.00     0.034 C 
ENDBRANCH  24  25
ENDBRANCH  22  24
ENDBRANCH   2  22
BRANCH   5  27
HETATM   27  C12 UNK     1      27.789  -6.084  38.832  1.00  0.00     0.256 C 
HETATM   28  O5  UNK     1      26.908  -5.213  39.036  1.00  0.00    -0.267 OA
HETATM   29  N2  UNK     1      27.914  -7.106  39.784  1.00  0.00    -0.365 N 
HETATM   30  H12 UNK     1      27.308  -7.137  40.597  1.00  0.00     0.159 HD
HETATM   31  H13 UNK     1      28.607  -7.842  39.696  1.00  0.00     0.159 HD
ENDBRANCH   5  27
TORSDOF 6
ENDMDL
