MODEL 1
REMARK VINA RESULT:     -10.0      0.000      0.000
REMARK  3 active torsions:
REMARK  status: ('A' for Active; 'I' for Inactive)
REMARK    1  A    between atoms: C10_17  and  N2_7 
REMARK       I    between atoms: C13_20  and  N2_7 
REMARK    2  A    between atoms: C2_9  and  C5_12 
REMARK    3  A    between atoms: C13_20  and  C14_21 
ROOT
HETATM    1  S1  UNK     1      19.284  -1.310  35.790  1.00  0.00    -0.061 SA
HETATM    2  N1  UNK     1      20.231  -3.613  35.099  1.00  0.00    -0.223 NA
HETATM    3  C5  UNK     1      19.892  -3.677  36.432  1.00  0.00     0.082 A 
HETATM    4  C9  UNK     1      19.364  -2.536  36.986  1.00  0.00     0.086 A 
HETATM    5  C10 UNK     1      19.953  -2.409  34.654  1.00  0.00     0.174 A 
ENDROOT
BRANCH   3   6
HETATM    6  C2  UNK     1      20.102  -4.910  37.150  1.00  0.00     0.070 A 
HETATM    7  C3  UNK     1      21.256  -5.173  37.785  1.00  0.00     0.034 A 
HETATM    8  C1  UNK     1      21.460  -6.416  38.511  1.00  0.00    -0.001 A 
HETATM    9  C4  UNK     1      20.429  -7.345  38.549  1.00  0.00     0.089 A 
HETATM   10  C7  UNK     1      22.655  -6.704  39.175  1.00  0.00     0.014 A 
HETATM   11  O1  UNK     1      19.215  -7.086  37.889  1.00  0.00    -0.274 OA
HETATM   12  C8  UNK     1      20.557  -8.555  39.229  1.00  0.00     0.038 A 
HETATM   13  C6  UNK     1      18.995  -5.913  37.172  1.00  0.00     0.301 A 
HETATM   14  O2  UNK     1      17.934  -5.728  36.583  1.00  0.00    -0.259 OA
HETATM   15  C12 UNK     1      21.751  -8.836  39.888  1.00  0.00     0.003 A 
HETATM   16  C11 UNK     1      22.798  -7.914  39.862  1.00  0.00     0.001 A 
ENDBRANCH   3   6
BRANCH   5  17
HETATM   17  N2  UNK     1      20.137  -1.920  33.387  1.00  0.00    -0.301 N 
HETATM   18  C13 UNK     1      19.169  -1.422  32.479  1.00  0.00     0.264 C 
HETATM   19  O3  UNK     1      17.962  -1.343  32.682  1.00  0.00    -0.267 OA
HETATM   20  H7  UNK     1      21.104  -1.927  33.074  1.00  0.00     0.171 HD
BRANCH  18  21
HETATM   21  C14 UNK     1      19.679  -0.984  31.154  1.00  0.00     0.072 A 
HETATM   22  S2  UNK     1      19.414   0.621  30.714  1.00  0.00    -0.097 SA
HETATM   23  C17 UNK     1      20.215   0.346  29.225  1.00  0.00     0.050 A 
HETATM   24  C16 UNK     1      20.658  -0.953  29.108  1.00  0.00     0.009 A 
HETATM   25  C15 UNK     1      20.335  -1.734  30.255  1.00  0.00     0.025 A 
ENDBRANCH  18  21
ENDBRANCH   5  17
TORSDOF 3
ENDMDL
MODEL 2
REMARK VINA RESULT:      -9.7      1.282      1.980
REMARK  3 active torsions:
REMARK  status: ('A' for Active; 'I' for Inactive)
REMARK    1  A    between atoms: C10_17  and  N2_7 
REMARK       I    between atoms: C13_20  and  N2_7 
REMARK    2  A    between atoms: C2_9  and  C5_12 
REMARK    3  A    between atoms: C13_20  and  C14_21 
ROOT
HETATM    1  S1  UNK     1      19.476  -1.508  35.853  1.00  0.00    -0.061 SA
HETATM    2  N1  UNK     1      20.357  -3.806  35.062  1.00  0.00    -0.223 NA
HETATM    3  C5  UNK     1      20.075  -3.900  36.407  1.00  0.00     0.082 A 
HETATM    4  C9  UNK     1      19.590  -2.766  37.013  1.00  0.00     0.086 A 
HETATM    5  C10 UNK     1      20.078  -2.586  34.661  1.00  0.00     0.174 A 
ENDROOT
BRANCH   3   6
HETATM    6  C2  UNK     1      20.298  -5.154  37.083  1.00  0.00     0.070 A 
HETATM    7  C3  UNK     1      19.376  -6.131  37.086  1.00  0.00     0.034 A 
HETATM    8  C1  UNK     1      19.608  -7.395  37.766  1.00  0.00    -0.001 A 
HETATM    9  C4  UNK     1      20.817  -7.590  38.421  1.00  0.00     0.089 A 
HETATM   10  C7  UNK     1      18.660  -8.420  37.779  1.00  0.00     0.014 A 
HETATM   11  O1  UNK     1      21.792  -6.577  38.429  1.00  0.00    -0.274 OA
HETATM   12  C8  UNK     1      21.105  -8.778  39.090  1.00  0.00     0.038 A 
HETATM   13  C6  UNK     1      21.593  -5.350  37.801  1.00  0.00     0.301 A 
HETATM   14  O2  UNK     1      22.453  -4.475  37.848  1.00  0.00    -0.259 OA
HETATM   15  C12 UNK     1      20.155  -9.796  39.100  1.00  0.00     0.003 A 
HETATM   16  C11 UNK     1      18.934  -9.618  38.446  1.00  0.00     0.001 A 
ENDBRANCH   3   6
BRANCH   5  17
HETATM   17  N2  UNK     1      20.213  -2.068  33.400  1.00  0.00    -0.301 N 
HETATM   18  C13 UNK     1      19.235  -1.439  32.589  1.00  0.00     0.264 C 
HETATM   19  O3  UNK     1      18.062  -1.249  32.891  1.00  0.00    -0.267 OA
HETATM   20  H7  UNK     1      21.148  -2.158  33.010  1.00  0.00     0.171 HD
BRANCH  18  21
HETATM   21  C14 UNK     1      19.684  -1.000  31.242  1.00  0.00     0.072 A 
HETATM   22  S2  UNK     1      19.331   0.582  30.786  1.00  0.00    -0.097 SA
HETATM   23  C17 UNK     1      20.099   0.319  29.278  1.00  0.00     0.050 A 
HETATM   24  C16 UNK     1      20.598  -0.959  29.167  1.00  0.00     0.009 A 
HETATM   25  C15 UNK     1      20.347  -1.735  30.336  1.00  0.00     0.025 A 
ENDBRANCH  18  21
ENDBRANCH   5  17
TORSDOF 3
ENDMDL
MODEL 3
REMARK VINA RESULT:      -9.1      7.109     10.532
REMARK  3 active torsions:
REMARK  status: ('A' for Active; 'I' for Inactive)
REMARK    1  A    between atoms: C10_17  and  N2_7 
REMARK       I    between atoms: C13_20  and  N2_7 
REMARK    2  A    between atoms: C2_9  and  C5_12 
REMARK    3  A    between atoms: C13_20  and  C14_21 
ROOT
HETATM    1  S1  UNK     1      18.487   6.445  30.467  1.00  0.00    -0.061 SA
HETATM    2  N1  UNK     1      17.751   4.623  32.146  1.00  0.00    -0.223 NA
HETATM    3  C5  UNK     1      18.539   4.024  31.190  1.00  0.00     0.082 A 
HETATM    4  C9  UNK     1      19.031   4.841  30.200  1.00  0.00     0.086 A 
HETATM    5  C10 UNK     1      17.654   5.903  31.867  1.00  0.00     0.174 A 
ENDROOT
BRANCH   3   6
HETATM    6  C2  UNK     1      18.799   2.608  31.281  1.00  0.00     0.070 A 
HETATM    7  C3  UNK     1      19.349   1.921  30.266  1.00  0.00     0.034 A 
HETATM    8  C1  UNK     1      19.612   0.495  30.366  1.00  0.00    -0.001 A 
HETATM    9  C4  UNK     1      19.289  -0.164  31.545  1.00  0.00     0.089 A 
HETATM   10  C7  UNK     1      20.182  -0.234  29.320  1.00  0.00     0.014 A 
HETATM   11  O1  UNK     1      18.711   0.540  32.617  1.00  0.00    -0.274 OA
HETATM   12  C8  UNK     1      19.517  -1.528  31.710  1.00  0.00     0.038 A 
HETATM   13  C6  UNK     1      18.432   1.903  32.546  1.00  0.00     0.301 A 
HETATM   14  O2  UNK     1      17.902   2.484  33.488  1.00  0.00    -0.259 OA
HETATM   15  C12 UNK     1      20.086  -2.249  30.662  1.00  0.00     0.003 A 
HETATM   16  C11 UNK     1      20.418  -1.604  29.470  1.00  0.00     0.001 A 
ENDBRANCH   3   6
BRANCH   5  17
HETATM   17  N2  UNK     1      16.963   6.862  32.559  1.00  0.00    -0.301 N 
HETATM   18  C13 UNK     1      16.279   7.999  32.060  1.00  0.00     0.264 C 
HETATM   19  O3  UNK     1      16.189   8.326  30.881  1.00  0.00    -0.267 OA
HETATM   20  H7  UNK     1      16.953   6.723  33.567  1.00  0.00     0.171 HD
BRANCH  18  21
HETATM   21  C14 UNK     1      15.639   8.877  33.073  1.00  0.00     0.072 A 
HETATM   22  S2  UNK     1      16.656   9.779  34.068  1.00  0.00    -0.097 SA
HETATM   23  C17 UNK     1      15.291  10.444  34.861  1.00  0.00     0.050 A 
HETATM   24  C16 UNK     1      14.108   9.962  34.347  1.00  0.00     0.009 A 
HETATM   25  C15 UNK     1      14.324   9.033  33.288  1.00  0.00     0.025 A 
ENDBRANCH  18  21
ENDBRANCH   5  17
TORSDOF 3
ENDMDL
MODEL 4
REMARK VINA RESULT:      -8.9      2.052      8.814
REMARK  3 active torsions:
REMARK  status: ('A' for Active; 'I' for Inactive)
REMARK    1  A    between atoms: C10_17  and  N2_7 
REMARK       I    between atoms: C13_20  and  N2_7 
REMARK    2  A    between atoms: C2_9  and  C5_12 
REMARK    3  A    between atoms: C13_20  and  C14_21 
ROOT
HETATM    1  S1  UNK     1      18.040  -1.715  37.434  1.00  0.00    -0.061 SA
HETATM    2  N1  UNK     1      19.476  -2.421  35.404  1.00  0.00    -0.223 NA
HETATM    3  C5  UNK     1      18.760  -1.301  35.047  1.00  0.00     0.082 A 
HETATM    4  C9  UNK     1      17.930  -0.771  36.006  1.00  0.00     0.086 A 
HETATM    5  C10 UNK     1      19.176  -2.731  36.646  1.00  0.00     0.174 A 
ENDROOT
BRANCH   3   6
HETATM    6  C2  UNK     1      18.921  -0.760  33.720  1.00  0.00     0.070 A 
HETATM    7  C3  UNK     1      19.467  -1.476  32.724  1.00  0.00     0.034 A 
HETATM    8  C1  UNK     1      19.623  -0.926  31.387  1.00  0.00    -0.001 A 
HETATM    9  C4  UNK     1      19.189   0.370  31.143  1.00  0.00     0.089 A 
HETATM   10  C7  UNK     1      20.189  -1.658  30.341  1.00  0.00     0.014 A 
HETATM   11  O1  UNK     1      18.616   1.134  32.174  1.00  0.00    -0.274 OA
HETATM   12  C8  UNK     1      19.305   0.957  29.884  1.00  0.00     0.038 A 
HETATM   13  C6  UNK     1      18.468   0.641  33.469  1.00  0.00     0.301 A 
HETATM   14  O2  UNK     1      17.989   1.343  34.355  1.00  0.00    -0.259 OA
HETATM   15  C12 UNK     1      19.871   0.222  28.845  1.00  0.00     0.003 A 
HETATM   16  C11 UNK     1      20.313  -1.083  29.072  1.00  0.00     0.001 A 
ENDBRANCH   3   6
BRANCH   5  17
HETATM   17  N2  UNK     1      19.662  -3.774  37.389  1.00  0.00    -0.301 N 
HETATM   18  C13 UNK     1      20.135  -5.036  36.948  1.00  0.00     0.264 C 
HETATM   19  O3  UNK     1      20.189  -5.418  35.784  1.00  0.00    -0.267 OA
HETATM   20  H7  UNK     1      19.674  -3.601  38.391  1.00  0.00     0.171 HD
BRANCH  18  21
HETATM   21  C14 UNK     1      20.576  -5.978  38.008  1.00  0.00     0.072 A 
HETATM   22  S2  UNK     1      22.204  -5.951  38.438  1.00  0.00    -0.097 SA
HETATM   23  C17 UNK     1      21.922  -7.189  39.589  1.00  0.00     0.050 A 
HETATM   24  C16 UNK     1      20.602  -7.583  39.611  1.00  0.00     0.009 A 
HETATM   25  C15 UNK     1      19.812  -6.860  38.670  1.00  0.00     0.025 A 
ENDBRANCH  18  21
ENDBRANCH   5  17
TORSDOF 3
ENDMDL
MODEL 5
REMARK VINA RESULT:      -8.7      2.799      8.646
REMARK  3 active torsions:
REMARK  status: ('A' for Active; 'I' for Inactive)
REMARK    1  A    between atoms: C10_17  and  N2_7 
REMARK       I    between atoms: C13_20  and  N2_7 
REMARK    2  A    between atoms: C2_9  and  C5_12 
REMARK    3  A    between atoms: C13_20  and  C14_21 
ROOT
HETATM    1  S1  UNK     1      20.481  -3.891  37.360  1.00  0.00    -0.061 SA
HETATM    2  N1  UNK     1      20.074  -4.362  34.851  1.00  0.00    -0.223 NA
HETATM    3  C5  UNK     1      20.076  -2.997  35.031  1.00  0.00     0.082 A 
HETATM    4  C9  UNK     1      20.280  -2.547  36.314  1.00  0.00     0.086 A 
HETATM    5  C10 UNK     1      20.280  -4.937  36.014  1.00  0.00     0.174 A 
ENDROOT
BRANCH   3   6
HETATM    6  C2  UNK     1      19.872  -2.139  33.890  1.00  0.00     0.070 A 
HETATM    7  C3  UNK     1      20.491  -2.358  32.718  1.00  0.00     0.034 A 
HETATM    8  C1  UNK     1      20.277  -1.493  31.570  1.00  0.00    -0.001 A 
HETATM    9  C4  UNK     1      19.406  -0.419  31.695  1.00  0.00     0.089 A 
HETATM   10  C7  UNK     1      20.914  -1.707  30.345  1.00  0.00     0.014 A 
HETATM   11  O1  UNK     1      18.750  -0.174  32.914  1.00  0.00    -0.274 OA
HETATM   12  C8  UNK     1      19.153   0.448  30.634  1.00  0.00     0.038 A 
HETATM   13  C6  UNK     1      18.947  -0.975  34.037  1.00  0.00     0.301 A 
HETATM   14  O2  UNK     1      18.381  -0.720  35.096  1.00  0.00    -0.259 OA
HETATM   15  C12 UNK     1      19.792   0.230  29.416  1.00  0.00     0.003 A 
HETATM   16  C11 UNK     1      20.671  -0.845  29.271  1.00  0.00     0.001 A 
ENDBRANCH   3   6
BRANCH   5  17
HETATM   17  N2  UNK     1      20.351  -6.278  36.285  1.00  0.00    -0.301 N 
HETATM   18  C13 UNK     1      19.381  -7.285  36.046  1.00  0.00     0.264 C 
HETATM   19  O3  UNK     1      18.277  -7.116  35.541  1.00  0.00    -0.267 OA
HETATM   20  H7  UNK     1      21.224  -6.570  36.717  1.00  0.00     0.171 HD
BRANCH  18  21
HETATM   21  C14 UNK     1      19.743  -8.659  36.479  1.00  0.00     0.072 A 
HETATM   22  S2  UNK     1      21.272  -9.226  36.057  1.00  0.00    -0.097 SA
HETATM   23  C17 UNK     1      20.938 -10.712  36.840  1.00  0.00     0.050 A 
HETATM   24  C16 UNK     1      19.679 -10.732  37.396  1.00  0.00     0.009 A 
HETATM   25  C15 UNK     1      18.977  -9.512  37.177  1.00  0.00     0.025 A 
ENDBRANCH  18  21
ENDBRANCH   5  17
TORSDOF 3
ENDMDL
MODEL 6
REMARK VINA RESULT:      -8.6      7.456     10.513
REMARK  3 active torsions:
REMARK  status: ('A' for Active; 'I' for Inactive)
REMARK    1  A    between atoms: C10_17  and  N2_7 
REMARK       I    between atoms: C13_20  and  N2_7 
REMARK    2  A    between atoms: C2_9  and  C5_12 
REMARK    3  A    between atoms: C13_20  and  C14_21 
ROOT
HETATM    1  S1  UNK     1      26.644  -9.135  39.342  1.00  0.00    -0.061 SA
HETATM    2  N1  UNK     1      26.626  -6.815  38.202  1.00  0.00    -0.223 NA
HETATM    3  C5  UNK     1      27.938  -7.212  38.335  1.00  0.00     0.082 A 
HETATM    4  C9  UNK     1      28.153  -8.434  38.925  1.00  0.00     0.086 A 
HETATM    5  C10 UNK     1      25.853  -7.754  38.700  1.00  0.00     0.174 A 
ENDROOT
BRANCH   3   6
HETATM    6  C2  UNK     1      28.984  -6.343  37.855  1.00  0.00     0.070 A 
HETATM    7  C3  UNK     1      29.646  -6.594  36.713  1.00  0.00     0.034 A 
HETATM    8  C1  UNK     1      30.697  -5.712  36.233  1.00  0.00    -0.001 A 
HETATM    9  C4  UNK     1      31.014  -4.583  36.976  1.00  0.00     0.089 A 
HETATM   10  C7  UNK     1      31.395  -5.959  35.048  1.00  0.00     0.014 A 
HETATM   11  O1  UNK     1      30.332  -4.306  38.173  1.00  0.00    -0.274 OA
HETATM   12  C8  UNK     1      32.008  -3.693  36.571  1.00  0.00     0.038 A 
HETATM   13  C6  UNK     1      29.332  -5.140  38.668  1.00  0.00     0.301 A 
HETATM   14  O2  UNK     1      28.774  -4.886  39.732  1.00  0.00    -0.259 OA
HETATM   15  C12 UNK     1      32.700  -3.946  35.390  1.00  0.00     0.003 A 
HETATM   16  C11 UNK     1      32.395  -5.077  34.629  1.00  0.00     0.001 A 
ENDBRANCH   3   6
BRANCH   5  17
HETATM   17  N2  UNK     1      24.485  -7.763  38.771  1.00  0.00    -0.301 N 
HETATM   18  C13 UNK     1      23.598  -6.672  38.954  1.00  0.00     0.264 C 
HETATM   19  O3  UNK     1      23.920  -5.496  39.084  1.00  0.00    -0.267 OA
HETATM   20  H7  UNK     1      24.069  -8.687  38.682  1.00  0.00     0.171 HD
BRANCH  18  21
HETATM   21  C14 UNK     1      22.152  -7.006  39.016  1.00  0.00     0.072 A 
HETATM   22  S2  UNK     1      21.077  -5.937  38.282  1.00  0.00    -0.097 SA
HETATM   23  C17 UNK     1      19.765  -6.934  38.750  1.00  0.00     0.050 A 
HETATM   24  C16 UNK     1      20.183  -8.045  39.448  1.00  0.00     0.009 A 
HETATM   25  C15 UNK     1      21.599  -8.080  39.601  1.00  0.00     0.025 A 
ENDBRANCH  18  21
ENDBRANCH   5  17
TORSDOF 3
ENDMDL
MODEL 7
REMARK VINA RESULT:      -8.5      9.006     13.462
REMARK  3 active torsions:
REMARK  status: ('A' for Active; 'I' for Inactive)
REMARK    1  A    between atoms: C10_17  and  N2_7 
REMARK       I    between atoms: C13_20  and  N2_7 
REMARK    2  A    between atoms: C2_9  and  C5_12 
REMARK    3  A    between atoms: C13_20  and  C14_21 
ROOT
HETATM    1  S1  UNK     1      19.314   5.495  33.606  1.00  0.00    -0.061 SA
HETATM    2  N1  UNK     1      17.291   6.128  32.127  1.00  0.00    -0.223 NA
HETATM    3  C5  UNK     1      17.386   7.059  33.137  1.00  0.00     0.082 A 
HETATM    4  C9  UNK     1      18.412   6.889  34.035  1.00  0.00     0.086 A 
HETATM    5  C10 UNK     1      18.260   5.253  32.273  1.00  0.00     0.174 A 
ENDROOT
BRANCH   3   6
HETATM    6  C2  UNK     1      16.426   8.134  33.191  1.00  0.00     0.070 A 
HETATM    7  C3  UNK     1      15.997   8.645  34.357  1.00  0.00     0.034 A 
HETATM    8  C1  UNK     1      15.033   9.732  34.404  1.00  0.00    -0.001 A 
HETATM    9  C4  UNK     1      14.554  10.253  33.210  1.00  0.00     0.089 A 
HETATM   10  C7  UNK     1      14.577  10.272  35.608  1.00  0.00     0.014 A 
HETATM   11  O1  UNK     1      14.991   9.730  31.980  1.00  0.00    -0.274 OA
HETATM   12  C8  UNK     1      13.631  11.297  33.183  1.00  0.00     0.038 A 
HETATM   13  C6  UNK     1      15.901   8.678  31.902  1.00  0.00     0.301 A 
HETATM   14  O2  UNK     1      16.243   8.225  30.814  1.00  0.00    -0.259 OA
HETATM   15  C12 UNK     1      13.180  11.831  34.387  1.00  0.00     0.003 A 
HETATM   16  C11 UNK     1      13.651  11.320  35.598  1.00  0.00     0.001 A 
ENDBRANCH   3   6
BRANCH   5  17
HETATM   17  N2  UNK     1      18.531   4.163  31.488  1.00  0.00    -0.301 N 
HETATM   18  C13 UNK     1      18.272   2.794  31.750  1.00  0.00     0.264 C 
HETATM   19  O3  UNK     1      17.746   2.340  32.761  1.00  0.00    -0.267 OA
HETATM   20  H7  UNK     1      18.979   4.388  30.604  1.00  0.00     0.171 HD
BRANCH  18  21
HETATM   21  C14 UNK     1      18.710   1.833  30.705  1.00  0.00     0.072 A 
HETATM   22  S2  UNK     1      18.086   2.038  29.155  1.00  0.00    -0.097 SA
HETATM   23  C17 UNK     1      18.983   0.682  28.614  1.00  0.00     0.050 A 
HETATM   24  C16 UNK     1      19.726   0.116  29.626  1.00  0.00     0.009 A 
HETATM   25  C15 UNK     1      19.558   0.805  30.862  1.00  0.00     0.025 A 
ENDBRANCH  18  21
ENDBRANCH   5  17
TORSDOF 3
ENDMDL
MODEL 8
REMARK VINA RESULT:      -8.5      2.312      8.999
REMARK  3 active torsions:
REMARK  status: ('A' for Active; 'I' for Inactive)
REMARK    1  A    between atoms: C10_17  and  N2_7 
REMARK       I    between atoms: C13_20  and  N2_7 
REMARK    2  A    between atoms: C2_9  and  C5_12 
REMARK    3  A    between atoms: C13_20  and  C14_21 
ROOT
HETATM    1  S1  UNK     1      19.430  -2.482  37.134  1.00  0.00    -0.061 SA
HETATM    2  N1  UNK     1      20.028  -3.681  34.924  1.00  0.00    -0.223 NA
HETATM    3  C5  UNK     1      19.804  -2.353  34.638  1.00  0.00     0.082 A 
HETATM    4  C9  UNK     1      19.471  -1.544  35.699  1.00  0.00     0.086 A 
HETATM    5  C10 UNK     1      19.859  -3.865  36.213  1.00  0.00     0.174 A 
ENDROOT
BRANCH   3   6
HETATM    6  C2  UNK     1      19.933  -1.897  33.276  1.00  0.00     0.070 A 
HETATM    7  C3  UNK     1      19.323  -0.782  32.840  1.00  0.00     0.034 A 
HETATM    8  C1  UNK     1      19.461  -0.326  31.467  1.00  0.00    -0.001 A 
HETATM    9  C4  UNK     1      20.249  -1.064  30.593  1.00  0.00     0.089 A 
HETATM   10  C7  UNK     1      18.832   0.829  30.998  1.00  0.00     0.014 A 
HETATM   11  O1  UNK     1      20.893  -2.233  31.032  1.00  0.00    -0.274 OA
HETATM   12  C8  UNK     1      20.426  -0.682  29.265  1.00  0.00     0.038 A 
HETATM   13  C6  UNK     1      20.768  -2.705  32.337  1.00  0.00     0.301 A 
HETATM   14  O2  UNK     1      21.321  -3.745  32.683  1.00  0.00    -0.259 OA
HETATM   15  C12 UNK     1      19.796   0.472  28.804  1.00  0.00     0.003 A 
HETATM   16  C11 UNK     1      19.000   1.226  29.668  1.00  0.00     0.001 A 
ENDBRANCH   3   6
BRANCH   5  17
HETATM   17  N2  UNK     1      19.981  -5.036  36.916  1.00  0.00    -0.301 N 
HETATM   18  C13 UNK     1      21.103  -5.532  37.626  1.00  0.00     0.264 C 
HETATM   19  O3  UNK     1      22.192  -4.977  37.733  1.00  0.00    -0.267 OA
HETATM   20  H7  UNK     1      19.144  -5.613  36.912  1.00  0.00     0.171 HD
BRANCH  18  21
HETATM   21  C14 UNK     1      20.935  -6.860  38.271  1.00  0.00     0.072 A 
HETATM   22  S2  UNK     1      21.949  -8.103  37.759  1.00  0.00    -0.097 SA
HETATM   23  C17 UNK     1      21.198  -9.173  38.866  1.00  0.00     0.050 A 
HETATM   24  C16 UNK     1      20.202  -8.554  39.589  1.00  0.00     0.009 A 
HETATM   25  C15 UNK     1      20.053  -7.183  39.230  1.00  0.00     0.025 A 
ENDBRANCH  18  21
ENDBRANCH   5  17
TORSDOF 3
ENDMDL
MODEL 9
REMARK VINA RESULT:      -8.4     28.365     30.446
REMARK  3 active torsions:
REMARK  status: ('A' for Active; 'I' for Inactive)
REMARK    1  A    between atoms: C10_17  and  N2_7 
REMARK       I    between atoms: C13_20  and  N2_7 
REMARK    2  A    between atoms: C2_9  and  C5_12 
REMARK    3  A    between atoms: C13_20  and  C14_21 
ROOT
HETATM    1  S1  UNK     1      17.205   7.301  10.328  1.00  0.00    -0.061 SA
HETATM    2  N1  UNK     1      15.485   8.808   9.124  1.00  0.00    -0.223 NA
HETATM    3  C5  UNK     1      14.876   7.603   9.395  1.00  0.00     0.082 A 
HETATM    4  C9  UNK     1      15.640   6.660  10.040  1.00  0.00     0.086 A 
HETATM    5  C10 UNK     1      16.719   8.763   9.573  1.00  0.00     0.174 A 
ENDROOT
BRANCH   3   6
HETATM    6  C2  UNK     1      13.504   7.407   8.998  1.00  0.00     0.070 A 
HETATM    7  C3  UNK     1      13.176   6.960   7.774  1.00  0.00     0.034 A 
HETATM    8  C1  UNK     1      11.791   6.760   7.381  1.00  0.00    -0.001 A 
HETATM    9  C4  UNK     1      10.789   7.035   8.302  1.00  0.00     0.089 A 
HETATM   10  C7  UNK     1      11.435   6.297   6.113  1.00  0.00     0.014 A 
HETATM   11  O1  UNK     1      11.114   7.504   9.587  1.00  0.00    -0.274 OA
HETATM   12  C8  UNK     1       9.441   6.862   7.993  1.00  0.00     0.038 A 
HETATM   13  C6  UNK     1      12.430   7.721   9.987  1.00  0.00     0.301 A 
HETATM   14  O2  UNK     1      12.680   8.158  11.107  1.00  0.00    -0.259 OA
HETATM   15  C12 UNK     1       9.092   6.401   6.726  1.00  0.00     0.003 A 
HETATM   16  C11 UNK     1      10.087   6.119   5.787  1.00  0.00     0.001 A 
ENDBRANCH   3   6
BRANCH   5  17
HETATM   17  N2  UNK     1      17.670   9.746   9.508  1.00  0.00    -0.301 N 
HETATM   18  C13 UNK     1      17.685  11.012  10.148  1.00  0.00     0.264 C 
HETATM   19  O3  UNK     1      16.816  11.453  10.892  1.00  0.00    -0.267 OA
HETATM   20  H7  UNK     1      18.464   9.520   8.914  1.00  0.00     0.171 HD
BRANCH  18  21
HETATM   21  C14 UNK     1      18.856  11.879   9.858  1.00  0.00     0.072 A 
HETATM   22  S2  UNK     1      18.654  13.095   8.711  1.00  0.00    -0.097 SA
HETATM   23  C17 UNK     1      20.280  13.581   8.938  1.00  0.00     0.050 A 
HETATM   24  C16 UNK     1      20.926  12.806   9.876  1.00  0.00     0.009 A 
HETATM   25  C15 UNK     1      20.074  11.800  10.415  1.00  0.00     0.025 A 
ENDBRANCH  18  21
ENDBRANCH   5  17
TORSDOF 3
ENDMDL
MODEL 10
REMARK VINA RESULT:      -8.4      3.517      9.281
REMARK  3 active torsions:
REMARK  status: ('A' for Active; 'I' for Inactive)
REMARK    1  A    between atoms: C10_17  and  N2_7 
REMARK       I    between atoms: C13_20  and  N2_7 
REMARK    2  A    between atoms: C2_9  and  C5_12 
REMARK    3  A    between atoms: C13_20  and  C14_21 
ROOT
HETATM    1  S1  UNK     1      18.118  -1.197  37.858  1.00  0.00    -0.061 SA
HETATM    2  N1  UNK     1      18.523  -1.420  35.315  1.00  0.00    -0.223 NA
HETATM    3  C5  UNK     1      18.286  -0.092  35.591  1.00  0.00     0.082 A 
HETATM    4  C9  UNK     1      18.047   0.228  36.906  1.00  0.00     0.086 A 
HETATM    5  C10 UNK     1      18.460  -2.099  36.439  1.00  0.00     0.174 A 
ENDROOT
BRANCH   3   6
HETATM    6  C2  UNK     1      18.305   0.862  34.510  1.00  0.00     0.070 A 
HETATM    7  C3  UNK     1      18.285   2.187  34.734  1.00  0.00     0.034 A 
HETATM    8  C1  UNK     1      18.309   3.144  33.640  1.00  0.00    -0.001 A 
HETATM    9  C4  UNK     1      18.360   2.669  32.337  1.00  0.00     0.089 A 
HETATM   10  C7  UNK     1      18.287   4.524  33.856  1.00  0.00     0.014 A 
HETATM   11  O1  UNK     1      18.381   1.286  32.085  1.00  0.00    -0.274 OA
HETATM   12  C8  UNK     1      18.388   3.531  31.242  1.00  0.00     0.038 A 
HETATM   13  C6  UNK     1      18.342   0.344  33.110  1.00  0.00     0.301 A 
HETATM   14  O2  UNK     1      18.334  -0.857  32.857  1.00  0.00    -0.259 OA
HETATM   15  C12 UNK     1      18.366   4.906  31.464  1.00  0.00     0.003 A 
HETATM   16  C11 UNK     1      18.315   5.402  32.768  1.00  0.00     0.001 A 
ENDBRANCH   3   6
BRANCH   5  17
HETATM   17  N2  UNK     1      18.632  -3.446  36.614  1.00  0.00    -0.301 N 
HETATM   18  C13 UNK     1      19.839  -4.187  36.678  1.00  0.00     0.264 C 
HETATM   19  O3  UNK     1      20.972  -3.728  36.581  1.00  0.00    -0.267 OA
HETATM   20  H7  UNK     1      17.764  -3.968  36.707  1.00  0.00     0.171 HD
BRANCH  18  21
HETATM   21  C14 UNK     1      19.699  -5.656  36.852  1.00  0.00     0.072 A 
HETATM   22  S2  UNK     1      21.014  -6.489  37.493  1.00  0.00    -0.097 SA
HETATM   23  C17 UNK     1      20.140  -7.957  37.381  1.00  0.00     0.050 A 
HETATM   24  C16 UNK     1      18.878  -7.770  36.862  1.00  0.00     0.009 A 
HETATM   25  C15 UNK     1      18.626  -6.403  36.550  1.00  0.00     0.025 A 
ENDBRANCH  18  21
ENDBRANCH   5  17
TORSDOF 3
ENDMDL
