MODEL 1
REMARK VINA RESULT:      -8.7      0.000      0.000
REMARK  6 active torsions:
REMARK  status: ('A' for Active; 'I' for Inactive)
REMARK    1  A    between atoms: C12_18  and  O3_3 
REMARK    2  A    between atoms: C18_24  and  O3_3 
REMARK    3  A    between atoms: C1_7  and  C10_16 
REMARK    4  A    between atoms: C12_18  and  C6_12 
REMARK    5  A    between atoms: C18_24  and  C22_28 
REMARK    6  A    between atoms: C22_28  and  C24_30 
ROOT
HETATM    1  O1  UNK     1      30.507  -3.777  37.231  1.00  0.00    -0.293 OA
HETATM    2  N1  UNK     1      29.973  -8.408  38.074  1.00  0.00    -0.362 N 
HETATM    3  C1  UNK     1      31.336  -6.451  36.536  1.00  0.00     0.104 C 
HETATM    4  C2  UNK     1      30.232  -6.116  37.534  1.00  0.00     0.024 C 
HETATM    5  C3  UNK     1      29.597  -7.087  38.224  1.00  0.00     0.020 C 
HETATM    6  C4  UNK     1      28.468  -6.817  39.183  1.00  0.00     0.058 C 
HETATM    7  C5  UNK     1      27.801  -5.471  38.922  1.00  0.00     0.014 C 
HETATM    8  C6  UNK     1      31.746  -7.924  36.582  1.00  0.00     0.052 C 
HETATM    9  C7  UNK     1      28.837  -4.365  38.832  1.00  0.00     0.084 C 
HETATM   10  C8  UNK     1      29.893  -4.682  37.796  1.00  0.00     0.158 C 
HETATM   11  C9  UNK     1      31.050  -8.829  37.310  1.00  0.00     0.018 C 
HETATM   12  C13 UNK     1      31.339 -10.304  37.381  1.00  0.00     0.069 C 
HETATM   13  H8  UNK     1      29.473  -9.107  38.612  1.00  0.00     0.165 HD
ENDROOT
BRANCH   3  14
HETATM   14  C10 UNK     1      30.912  -6.073  35.143  1.00  0.00     0.029 A 
HETATM   15  C11 UNK     1      29.679  -6.683  34.585  1.00  0.00     0.194 A 
HETATM   16  O4  UNK     1      29.002  -7.480  35.222  1.00  0.00    -0.287 OA
HETATM   17  C15 UNK     1      29.310  -6.278  33.217  1.00  0.00     0.049 A 
HETATM   18  C16 UNK     1      30.120  -5.367  32.538  1.00  0.00     0.089 A 
HETATM   19  C17 UNK     1      28.167  -6.797  32.603  1.00  0.00     0.025 A 
HETATM   20  O2  UNK     1      31.253  -4.826  33.091  1.00  0.00    -0.321 OA
HETATM   21  C19 UNK     1      29.790  -4.970  31.242  1.00  0.00     0.039 A 
HETATM   22  C14 UNK     1      31.584  -5.213  34.367  1.00  0.00     0.154 A 
HETATM   23  C21 UNK     1      28.649  -5.486  30.627  1.00  0.00     0.009 A 
HETATM   24  C20 UNK     1      27.839  -6.398  31.306  1.00  0.00    -0.061 A 
HETATM   25  C23 UNK     1      26.619  -6.946  30.645  1.00  0.00     0.048 C 
ENDBRANCH   3  14
BRANCH   8  26
HETATM   26  C12 UNK     1      32.960  -8.292  35.835  1.00  0.00     0.292 C 
HETATM   27  O5  UNK     1      34.060  -7.836  36.083  1.00  0.00    -0.259 OA
BRANCH  26  28
HETATM   28  O3  UNK     1      32.618  -9.187  34.877  1.00  0.00    -0.317 OA
BRANCH  28  29
HETATM   29  C18 UNK     1      32.703  -8.698  33.534  1.00  0.00     0.183 C 
BRANCH  29  30
HETATM   30  C22 UNK     1      31.532  -9.232  32.717  1.00  0.00     0.065 C 
BRANCH  30  31
HETATM   31  C24 UNK     1      31.454  -8.603  31.346  1.00  0.00    -0.056 A 
HETATM   32  C25 UNK     1      32.420  -7.687  30.963  1.00  0.00     0.007 A 
HETATM   33  C27 UNK     1      32.347  -7.108  29.697  1.00  0.00     0.001 A 
HETATM   34  C29 UNK     1      31.310  -7.451  28.829  1.00  0.00     0.000 A 
HETATM   35  C28 UNK     1      30.345  -8.376  29.230  1.00  0.00     0.001 A 
HETATM   36  C26 UNK     1      30.417  -8.955  30.496  1.00  0.00     0.007 A 
ENDBRANCH  30  31
ENDBRANCH  29  30
ENDBRANCH  28  29
ENDBRANCH  26  28
ENDBRANCH   8  26
TORSDOF 6
ENDMDL
MODEL 2
REMARK VINA RESULT:      -8.6      2.077      6.012
REMARK  6 active torsions:
REMARK  status: ('A' for Active; 'I' for Inactive)
REMARK    1  A    between atoms: C12_18  and  O3_3 
REMARK    2  A    between atoms: C18_24  and  O3_3 
REMARK    3  A    between atoms: C1_7  and  C10_16 
REMARK    4  A    between atoms: C12_18  and  C6_12 
REMARK    5  A    between atoms: C18_24  and  C22_28 
REMARK    6  A    between atoms: C22_28  and  C24_30 
ROOT
HETATM    1  O1  UNK     1      32.334  -9.182  34.674  1.00  0.00    -0.293 OA
HETATM    2  N1  UNK     1      28.891 -10.053  31.538  1.00  0.00    -0.362 N 
HETATM    3  C1  UNK     1      30.025  -8.136  33.297  1.00  0.00     0.104 C 
HETATM    4  C2  UNK     1      30.530  -9.571  33.181  1.00  0.00     0.024 C 
HETATM    5  C3  UNK     1      29.940 -10.452  32.346  1.00  0.00     0.020 C 
HETATM    6  C4  UNK     1      30.364 -11.892  32.228  1.00  0.00     0.058 C 
HETATM    7  C5  UNK     1      31.140 -12.365  33.452  1.00  0.00     0.014 C 
HETATM    8  C6  UNK     1      28.966  -7.796  32.248  1.00  0.00     0.052 C 
HETATM    9  C7  UNK     1      32.261 -11.397  33.787  1.00  0.00     0.084 C 
HETATM   10  C8  UNK     1      31.738  -9.987  33.960  1.00  0.00     0.158 C 
HETATM   11  C9  UNK     1      28.434  -8.748  31.447  1.00  0.00     0.018 C 
HETATM   12  C13 UNK     1      27.354  -8.527  30.422  1.00  0.00     0.069 C 
HETATM   13  H8  UNK     1      28.477 -10.744  30.924  1.00  0.00     0.165 HD
ENDROOT
BRANCH   3  14
HETATM   14  C10 UNK     1      29.487  -7.883  34.680  1.00  0.00     0.029 A 
HETATM   15  C11 UNK     1      29.908  -6.649  35.391  1.00  0.00     0.194 A 
HETATM   16  O4  UNK     1      30.674  -5.838  34.888  1.00  0.00    -0.287 OA
HETATM   17  C15 UNK     1      29.352  -6.452  36.742  1.00  0.00     0.049 A 
HETATM   18  C16 UNK     1      28.484  -7.410  37.265  1.00  0.00     0.089 A 
HETATM   19  C17 UNK     1      29.688  -5.323  37.493  1.00  0.00     0.025 A 
HETATM   20  O2  UNK     1      28.120  -8.538  36.573  1.00  0.00    -0.321 OA
HETATM   21  C19 UNK     1      27.946  -7.244  38.542  1.00  0.00     0.039 A 
HETATM   22  C14 UNK     1      28.647  -8.709  35.315  1.00  0.00     0.154 A 
HETATM   23  C21 UNK     1      28.280  -6.117  39.293  1.00  0.00     0.009 A 
HETATM   24  C20 UNK     1      29.148  -5.158  38.769  1.00  0.00    -0.061 A 
HETATM   25  C23 UNK     1      29.500  -3.954  39.577  1.00  0.00     0.048 C 
ENDBRANCH   3  14
BRANCH   8  26
HETATM   26  C12 UNK     1      28.596  -6.376  32.124  1.00  0.00     0.292 C 
HETATM   27  O5  UNK     1      27.498  -5.944  32.421  1.00  0.00    -0.259 OA
BRANCH  26  28
HETATM   28  O3  UNK     1      29.663  -5.697  31.639  1.00  0.00    -0.317 OA
BRANCH  28  29
HETATM   29  C18 UNK     1      29.688  -5.542  30.217  1.00  0.00     0.183 C 
BRANCH  29  30
HETATM   30  C22 UNK     1      31.098  -5.797  29.695  1.00  0.00     0.065 C 
BRANCH  30  31
HETATM   31  C24 UNK     1      31.418  -7.269  29.599  1.00  0.00    -0.056 A 
HETATM   32  C25 UNK     1      30.720  -8.059  28.700  1.00  0.00     0.007 A 
HETATM   33  C27 UNK     1      31.016  -9.418  28.611  1.00  0.00     0.001 A 
HETATM   34  C29 UNK     1      32.007  -9.971  29.422  1.00  0.00     0.000 A 
HETATM   35  C28 UNK     1      32.702  -9.163  30.322  1.00  0.00     0.001 A 
HETATM   36  C26 UNK     1      32.405  -7.803  30.412  1.00  0.00     0.007 A 
ENDBRANCH  30  31
ENDBRANCH  29  30
ENDBRANCH  28  29
ENDBRANCH  26  28
ENDBRANCH   8  26
TORSDOF 6
ENDMDL
MODEL 3
REMARK VINA RESULT:      -8.6      1.883      3.295
REMARK  6 active torsions:
REMARK  status: ('A' for Active; 'I' for Inactive)
REMARK    1  A    between atoms: C12_18  and  O3_3 
REMARK    2  A    between atoms: C18_24  and  O3_3 
REMARK    3  A    between atoms: C1_7  and  C10_16 
REMARK    4  A    between atoms: C12_18  and  C6_12 
REMARK    5  A    between atoms: C18_24  and  C22_28 
REMARK    6  A    between atoms: C22_28  and  C24_30 
ROOT
HETATM    1  O1  UNK     1      33.071  -5.231  35.563  1.00  0.00    -0.293 OA
HETATM    2  N1  UNK     1      28.946  -6.682  37.387  1.00  0.00    -0.362 N 
HETATM    3  C1  UNK     1      31.039  -7.278  35.565  1.00  0.00     0.104 C 
HETATM    4  C2  UNK     1      30.966  -5.981  36.364  1.00  0.00     0.024 C 
HETATM    5  C3  UNK     1      29.935  -5.735  37.201  1.00  0.00     0.020 C 
HETATM    6  C4  UNK     1      29.786  -4.451  37.975  1.00  0.00     0.058 C 
HETATM    7  C5  UNK     1      30.593  -3.313  37.361  1.00  0.00     0.014 C 
HETATM    8  C6  UNK     1      29.966  -8.288  35.978  1.00  0.00     0.052 C 
HETATM    9  C7  UNK     1      32.027  -3.742  37.110  1.00  0.00     0.084 C 
HETATM   10  C8  UNK     1      32.088  -4.996  36.265  1.00  0.00     0.158 C 
HETATM   11  C9  UNK     1      28.971  -7.951  36.831  1.00  0.00     0.018 C 
HETATM   12  C13 UNK     1      27.843  -8.851  37.259  1.00  0.00     0.069 C 
HETATM   13  H8  UNK     1      28.191  -6.459  38.025  1.00  0.00     0.165 HD
ENDROOT
BRANCH   3  14
HETATM   14  C10 UNK     1      30.941  -6.989  34.092  1.00  0.00     0.029 A 
HETATM   15  C11 UNK     1      31.958  -7.577  33.184  1.00  0.00     0.194 A 
HETATM   16  O4  UNK     1      32.868  -8.285  33.596  1.00  0.00    -0.287 OA
HETATM   17  C15 UNK     1      31.816  -7.261  31.751  1.00  0.00     0.049 A 
HETATM   18  C16 UNK     1      30.760  -6.448  31.337  1.00  0.00     0.089 A 
HETATM   19  C17 UNK     1      32.723  -7.765  30.816  1.00  0.00     0.025 A 
HETATM   20  O2  UNK     1      29.840  -5.925  32.211  1.00  0.00    -0.321 OA
HETATM   21  C19 UNK     1      30.606  -6.135  29.986  1.00  0.00     0.039 A 
HETATM   22  C14 UNK     1      29.987  -6.227  33.544  1.00  0.00     0.154 A 
HETATM   23  C21 UNK     1      31.511  -6.639  29.051  1.00  0.00     0.009 A 
HETATM   24  C20 UNK     1      32.566  -7.452  29.465  1.00  0.00    -0.061 A 
HETATM   25  C23 UNK     1      33.530  -7.988  28.460  1.00  0.00     0.048 C 
ENDBRANCH   3  14
BRANCH   8  26
HETATM   26  C12 UNK     1      30.104  -9.651  35.439  1.00  0.00     0.292 C 
HETATM   27  O5  UNK     1      31.008 -10.404  35.751  1.00  0.00    -0.259 OA
BRANCH  26  28
HETATM   28  O3  UNK     1      29.082  -9.876  34.580  1.00  0.00    -0.317 OA
BRANCH  28  29
HETATM   29  C18 UNK     1      29.472 -10.331  33.280  1.00  0.00     0.183 C 
BRANCH  29  30
HETATM   30  C22 UNK     1      28.818  -9.461  32.212  1.00  0.00     0.065 C 
BRANCH  30  31
HETATM   31  C24 UNK     1      29.342  -9.758  30.828  1.00  0.00    -0.056 A 
HETATM   32  C25 UNK     1      28.686  -9.234  29.726  1.00  0.00     0.007 A 
HETATM   33  C27 UNK     1      29.171  -9.509  28.448  1.00  0.00     0.001 A 
HETATM   34  C29 UNK     1      30.305 -10.305  28.287  1.00  0.00     0.000 A 
HETATM   35  C28 UNK     1      30.955 -10.826  29.407  1.00  0.00     0.001 A 
HETATM   36  C26 UNK     1      30.470 -10.551  30.685  1.00  0.00     0.007 A 
ENDBRANCH  30  31
ENDBRANCH  29  30
ENDBRANCH  28  29
ENDBRANCH  26  28
ENDBRANCH   8  26
TORSDOF 6
ENDMDL
MODEL 4
REMARK VINA RESULT:      -8.5      2.235      4.658
REMARK  6 active torsions:
REMARK  status: ('A' for Active; 'I' for Inactive)
REMARK    1  A    between atoms: C12_18  and  O3_3 
REMARK    2  A    between atoms: C18_24  and  O3_3 
REMARK    3  A    between atoms: C1_7  and  C10_16 
REMARK    4  A    between atoms: C12_18  and  C6_12 
REMARK    5  A    between atoms: C18_24  and  C22_28 
REMARK    6  A    between atoms: C22_28  and  C24_30 
ROOT
HETATM    1  O1  UNK     1      26.895  -9.230  36.156  1.00  0.00    -0.293 OA
HETATM    2  N1  UNK     1      29.929  -5.948  37.729  1.00  0.00    -0.362 N 
HETATM    3  C1  UNK     1      29.164  -7.564  35.524  1.00  0.00     0.104 C 
HETATM    4  C2  UNK     1      28.506  -7.651  36.898  1.00  0.00     0.024 C 
HETATM    5  C3  UNK     1      28.923  -6.877  37.921  1.00  0.00     0.020 C 
HETATM    6  C4  UNK     1      28.344  -6.957  39.309  1.00  0.00     0.058 C 
HETATM    7  C5  UNK     1      27.638  -8.284  39.562  1.00  0.00     0.014 C 
HETATM    8  C6  UNK     1      30.153  -6.402  35.416  1.00  0.00     0.052 C 
HETATM    9  C7  UNK     1      26.659  -8.596  38.445  1.00  0.00     0.084 C 
HETATM   10  C8  UNK     1      27.338  -8.566  37.093  1.00  0.00     0.158 C 
HETATM   11  C9  UNK     1      30.508  -5.673  36.500  1.00  0.00     0.018 C 
HETATM   12  C13 UNK     1      31.507  -4.547  36.509  1.00  0.00     0.069 C 
HETATM   13  H8  UNK     1      30.212  -5.385  38.522  1.00  0.00     0.165 HD
ENDROOT
BRANCH   3  14
HETATM   14  C10 UNK     1      29.850  -8.862  35.192  1.00  0.00     0.029 A 
HETATM   15  C11 UNK     1      29.522  -9.529  33.906  1.00  0.00     0.194 A 
HETATM   16  O4  UNK     1      28.715  -9.057  33.116  1.00  0.00    -0.287 OA
HETATM   17  C15 UNK     1      30.220 -10.797  33.631  1.00  0.00     0.049 A 
HETATM   18  C16 UNK     1      31.129 -11.289  34.569  1.00  0.00     0.089 A 
HETATM   19  C17 UNK     1      29.979 -11.502  32.449  1.00  0.00     0.025 A 
HETATM   20  O2  UNK     1      31.404 -10.639  35.747  1.00  0.00    -0.321 OA
HETATM   21  C19 UNK     1      31.802 -12.487  34.330  1.00  0.00     0.039 A 
HETATM   22  C14 UNK     1      30.744  -9.459  35.989  1.00  0.00     0.154 A 
HETATM   23  C21 UNK     1      31.563 -13.193  33.150  1.00  0.00     0.009 A 
HETATM   24  C20 UNK     1      30.655 -12.701  32.212  1.00  0.00    -0.061 A 
HETATM   25  C23 UNK     1      30.404 -13.459  30.951  1.00  0.00     0.048 C 
ENDBRANCH   3  14
BRANCH   8  26
HETATM   26  C12 UNK     1      30.654  -6.089  34.067  1.00  0.00     0.292 C 
HETATM   27  O5  UNK     1      31.814  -6.242  33.734  1.00  0.00    -0.259 OA
BRANCH  26  28
HETATM   28  O3  UNK     1      29.621  -5.624  33.325  1.00  0.00    -0.317 OA
BRANCH  28  29
HETATM   29  C18 UNK     1      29.973  -5.175  32.012  1.00  0.00     0.183 C 
BRANCH  29  30
HETATM   30  C22 UNK     1      28.827  -5.459  31.046  1.00  0.00     0.065 C 
BRANCH  30  31
HETATM   31  C24 UNK     1      28.863  -6.870  30.511  1.00  0.00    -0.056 A 
HETATM   32  C25 UNK     1      27.673  -7.519  30.222  1.00  0.00     0.007 A 
HETATM   33  C27 UNK     1      27.708  -8.822  29.728  1.00  0.00     0.001 A 
HETATM   34  C29 UNK     1      28.931  -9.461  29.527  1.00  0.00     0.000 A 
HETATM   35  C28 UNK     1      30.122  -8.795  29.822  1.00  0.00     0.001 A 
HETATM   36  C26 UNK     1      30.087  -7.492  30.318  1.00  0.00     0.007 A 
ENDBRANCH  30  31
ENDBRANCH  29  30
ENDBRANCH  28  29
ENDBRANCH  26  28
ENDBRANCH   8  26
TORSDOF 6
ENDMDL
MODEL 5
REMARK VINA RESULT:      -8.5      2.700      3.999
REMARK  6 active torsions:
REMARK  status: ('A' for Active; 'I' for Inactive)
REMARK    1  A    between atoms: C12_18  and  O3_3 
REMARK    2  A    between atoms: C18_24  and  O3_3 
REMARK    3  A    between atoms: C1_7  and  C10_16 
REMARK    4  A    between atoms: C12_18  and  C6_12 
REMARK    5  A    between atoms: C18_24  and  C22_28 
REMARK    6  A    between atoms: C22_28  and  C24_30 
ROOT
HETATM    1  O1  UNK     1      31.637  -4.734  35.163  1.00  0.00    -0.293 OA
HETATM    2  N1  UNK     1      35.516  -7.417  35.604  1.00  0.00    -0.362 N 
HETATM    3  C1  UNK     1      33.573  -6.390  33.809  1.00  0.00     0.104 C 
HETATM    4  C2  UNK     1      33.526  -6.163  35.317  1.00  0.00     0.024 C 
HETATM    5  C3  UNK     1      34.463  -6.695  36.131  1.00  0.00     0.020 C 
HETATM    6  C4  UNK     1      34.438  -6.545  37.629  1.00  0.00     0.058 C 
HETATM    7  C5  UNK     1      33.048  -6.197  38.149  1.00  0.00     0.014 C 
HETATM    8  C6  UNK     1      34.862  -7.075  33.354  1.00  0.00     0.052 C 
HETATM    9  C7  UNK     1      32.464  -5.023  37.383  1.00  0.00     0.084 C 
HETATM   10  C8  UNK     1      32.460  -5.285  35.893  1.00  0.00     0.158 C 
HETATM   11  C9  UNK     1      35.749  -7.574  34.246  1.00  0.00     0.018 C 
HETATM   12  C13 UNK     1      37.017  -8.309  33.903  1.00  0.00     0.069 C 
HETATM   13  H8  UNK     1      36.200  -7.797  36.248  1.00  0.00     0.165 HD
ENDROOT
BRANCH   3  14
HETATM   14  C10 UNK     1      32.376  -7.186  33.364  1.00  0.00     0.029 A 
HETATM   15  C11 UNK     1      31.347  -6.515  32.529  1.00  0.00     0.194 A 
HETATM   16  O4  UNK     1      31.444  -5.341  32.195  1.00  0.00    -0.287 OA
HETATM   17  C15 UNK     1      30.196  -7.340  32.123  1.00  0.00     0.049 A 
HETATM   18  C16 UNK     1      30.137  -8.673  32.534  1.00  0.00     0.089 A 
HETATM   19  C17 UNK     1      29.174  -6.801  31.338  1.00  0.00     0.025 A 
HETATM   20  O2  UNK     1      31.111  -9.254  33.306  1.00  0.00    -0.321 OA
HETATM   21  C19 UNK     1      29.056  -9.472  32.161  1.00  0.00     0.039 A 
HETATM   22  C14 UNK     1      32.178  -8.472  33.678  1.00  0.00     0.154 A 
HETATM   23  C21 UNK     1      28.035  -8.936  31.376  1.00  0.00     0.009 A 
HETATM   24  C20 UNK     1      28.094  -7.604  30.965  1.00  0.00    -0.061 A 
HETATM   25  C23 UNK     1      26.999  -7.036  30.124  1.00  0.00     0.048 C 
ENDBRANCH   3  14
BRANCH   8  26
HETATM   26  C12 UNK     1      35.107  -7.118  31.903  1.00  0.00     0.292 C 
HETATM   27  O5  UNK     1      35.722  -6.256  31.304  1.00  0.00    -0.259 OA
BRANCH  26  28
HETATM   28  O3  UNK     1      34.541  -8.245  31.407  1.00  0.00    -0.317 OA
BRANCH  28  29
HETATM   29  C18 UNK     1      34.387  -8.270  29.985  1.00  0.00     0.183 C 
BRANCH  29  30
HETATM   30  C22 UNK     1      33.043  -7.660  29.601  1.00  0.00     0.065 C 
BRANCH  30  31
HETATM   31  C24 UNK     1      32.005  -8.708  29.285  1.00  0.00    -0.056 A 
HETATM   32  C25 UNK     1      30.920  -8.373  28.491  1.00  0.00     0.007 A 
HETATM   33  C27 UNK     1      29.961  -9.343  28.200  1.00  0.00     0.001 A 
HETATM   34  C29 UNK     1      30.099 -10.636  28.705  1.00  0.00     0.000 A 
HETATM   35  C28 UNK     1      31.198 -10.958  29.503  1.00  0.00     0.001 A 
HETATM   36  C26 UNK     1      32.156  -9.988  29.795  1.00  0.00     0.007 A 
ENDBRANCH  30  31
ENDBRANCH  29  30
ENDBRANCH  28  29
ENDBRANCH  26  28
ENDBRANCH   8  26
TORSDOF 6
ENDMDL
MODEL 6
REMARK VINA RESULT:      -8.4      2.347      4.970
REMARK  6 active torsions:
REMARK  status: ('A' for Active; 'I' for Inactive)
REMARK    1  A    between atoms: C12_18  and  O3_3 
REMARK    2  A    between atoms: C18_24  and  O3_3 
REMARK    3  A    between atoms: C1_7  and  C10_16 
REMARK    4  A    between atoms: C12_18  and  C6_12 
REMARK    5  A    between atoms: C18_24  and  C22_28 
REMARK    6  A    between atoms: C22_28  and  C24_30 
ROOT
HETATM    1  O1  UNK     1      32.003  -6.847  33.996  1.00  0.00    -0.293 OA
HETATM    2  N1  UNK     1      29.458  -5.055  37.568  1.00  0.00    -0.362 N 
HETATM    3  C1  UNK     1      29.616  -7.090  35.597  1.00  0.00     0.104 C 
HETATM    4  C2  UNK     1      30.629  -5.957  35.716  1.00  0.00     0.024 C 
HETATM    5  C3  UNK     1      30.496  -4.998  36.657  1.00  0.00     0.020 C 
HETATM    6  C4  UNK     1      31.438  -3.830  36.788  1.00  0.00     0.058 C 
HETATM    7  C5  UNK     1      32.212  -3.569  35.500  1.00  0.00     0.014 C 
HETATM    8  C6  UNK     1      28.613  -7.110  36.752  1.00  0.00     0.052 C 
HETATM    9  C7  UNK     1      32.850  -4.847  34.986  1.00  0.00     0.084 C 
HETATM   10  C8  UNK     1      31.824  -5.945  34.814  1.00  0.00     0.158 C 
HETATM   11  C9  UNK     1      28.557  -6.104  37.655  1.00  0.00     0.018 C 
HETATM   12  C13 UNK     1      27.577  -6.003  38.794  1.00  0.00     0.069 C 
HETATM   13  H8  UNK     1      29.395  -4.317  38.260  1.00  0.00     0.165 HD
ENDROOT
BRANCH   3  14
HETATM   14  C10 UNK     1      28.891  -7.005  34.281  1.00  0.00     0.029 A 
HETATM   15  C11 UNK     1      29.082  -8.097  33.293  1.00  0.00     0.194 A 
HETATM   16  O4  UNK     1      29.808  -9.057  33.516  1.00  0.00    -0.287 OA
HETATM   17  C15 UNK     1      28.350  -7.963  32.021  1.00  0.00     0.049 A 
HETATM   18  C16 UNK     1      27.538  -6.846  31.819  1.00  0.00     0.089 A 
HETATM   19  C17 UNK     1      28.465  -8.937  31.026  1.00  0.00     0.025 A 
HETATM   20  O2  UNK     1      27.389  -5.858  32.761  1.00  0.00    -0.321 OA
HETATM   21  C19 UNK     1      26.836  -6.698  30.623  1.00  0.00     0.039 A 
HETATM   22  C14 UNK     1      28.078  -5.997  33.941  1.00  0.00     0.154 A 
HETATM   23  C21 UNK     1      26.948  -7.670  29.628  1.00  0.00     0.009 A 
HETATM   24  C20 UNK     1      27.760  -8.787  29.830  1.00  0.00    -0.061 A 
HETATM   25  C23 UNK     1      27.875  -9.824  28.763  1.00  0.00     0.048 C 
ENDBRANCH   3  14
BRANCH   8  26
HETATM   26  C12 UNK     1      27.753  -8.300  36.855  1.00  0.00     0.292 C 
HETATM   27  O5  UNK     1      26.557  -8.282  36.629  1.00  0.00    -0.259 OA
BRANCH  26  28
HETATM   28  O3  UNK     1      28.520  -9.351  37.231  1.00  0.00    -0.317 OA
BRANCH  28  29
HETATM   29  C18 UNK     1      28.676  -9.512  38.645  1.00  0.00     0.183 C 
BRANCH  29  30
HETATM   30  C22 UNK     1      30.044 -10.115  38.947  1.00  0.00     0.065 C 
BRANCH  30  31
HETATM   31  C24 UNK     1      31.147  -9.471  38.142  1.00  0.00    -0.056 A 
HETATM   32  C25 UNK     1      31.481  -9.998  36.904  1.00  0.00     0.007 A 
HETATM   33  C27 UNK     1      32.500  -9.403  36.161  1.00  0.00     0.001 A 
HETATM   34  C29 UNK     1      33.170  -8.287  36.663  1.00  0.00     0.000 A 
HETATM   35  C28 UNK     1      32.821  -7.767  37.910  1.00  0.00     0.001 A 
HETATM   36  C26 UNK     1      31.804  -8.364  38.654  1.00  0.00     0.007 A 
ENDBRANCH  30  31
ENDBRANCH  29  30
ENDBRANCH  28  29
ENDBRANCH  26  28
ENDBRANCH   8  26
TORSDOF 6
ENDMDL
MODEL 7
REMARK VINA RESULT:      -8.3      2.377      6.677
REMARK  6 active torsions:
REMARK  status: ('A' for Active; 'I' for Inactive)
REMARK    1  A    between atoms: C12_18  and  O3_3 
REMARK    2  A    between atoms: C18_24  and  O3_3 
REMARK    3  A    between atoms: C1_7  and  C10_16 
REMARK    4  A    between atoms: C12_18  and  C6_12 
REMARK    5  A    between atoms: C18_24  and  C22_28 
REMARK    6  A    between atoms: C22_28  and  C24_30 
ROOT
HETATM    1  O1  UNK     1      29.852  -6.596  30.687  1.00  0.00    -0.293 OA
HETATM    2  N1  UNK     1      30.988 -11.181  31.050  1.00  0.00    -0.362 N 
HETATM    3  C1  UNK     1      30.417  -8.792  32.471  1.00  0.00     0.104 C 
HETATM    4  C2  UNK     1      30.506  -8.863  30.950  1.00  0.00     0.024 C 
HETATM    5  C3  UNK     1      30.805 -10.021  30.323  1.00  0.00     0.020 C 
HETATM    6  C4  UNK     1      30.955 -10.137  28.829  1.00  0.00     0.058 C 
HETATM    7  C5  UNK     1      31.234  -8.790  28.172  1.00  0.00     0.014 C 
HETATM    8  C6  UNK     1      30.495 -10.169  33.133  1.00  0.00     0.052 C 
HETATM    9  C7  UNK     1      30.230  -7.748  28.631  1.00  0.00     0.084 C 
HETATM   10  C8  UNK     1      30.195  -7.644  30.140  1.00  0.00     0.158 C 
HETATM   11  C9  UNK     1      30.796 -11.279  32.420  1.00  0.00     0.018 C 
HETATM   12  C13 UNK     1      30.947 -12.667  32.982  1.00  0.00     0.069 C 
HETATM   13  H8  UNK     1      31.209 -12.030  30.542  1.00  0.00     0.165 HD
ENDROOT
BRANCH   3  14
HETATM   14  C10 UNK     1      31.494  -7.892  33.015  1.00  0.00     0.029 A 
HETATM   15  C11 UNK     1      31.092  -6.684  33.778  1.00  0.00     0.194 A 
HETATM   16  O4  UNK     1      29.918  -6.400  33.976  1.00  0.00    -0.287 OA
HETATM   17  C15 UNK     1      32.186  -5.838  34.287  1.00  0.00     0.049 A 
HETATM   18  C16 UNK     1      33.507  -6.209  34.029  1.00  0.00     0.089 A 
HETATM   19  C17 UNK     1      31.911  -4.678  35.016  1.00  0.00     0.025 A 
HETATM   20  O2  UNK     1      33.835  -7.336  33.318  1.00  0.00    -0.321 OA
HETATM   21  C19 UNK     1      34.558  -5.423  34.501  1.00  0.00     0.039 A 
HETATM   22  C14 UNK     1      32.804  -8.114  32.850  1.00  0.00     0.154 A 
HETATM   23  C21 UNK     1      34.286  -4.265  35.230  1.00  0.00     0.009 A 
HETATM   24  C20 UNK     1      32.966  -3.894  35.487  1.00  0.00    -0.061 A 
HETATM   25  C23 UNK     1      32.680  -2.655  36.269  1.00  0.00     0.048 C 
ENDBRANCH   3  14
BRANCH   8  26
HETATM   26  C12 UNK     1      30.177 -10.227  34.569  1.00  0.00     0.292 C 
HETATM   27  O5  UNK     1      29.067 -10.009  35.017  1.00  0.00    -0.259 OA
BRANCH  26  28
HETATM   28  O3  UNK     1      31.306 -10.551  35.244  1.00  0.00    -0.317 OA
BRANCH  28  29
HETATM   29  C18 UNK     1      31.392 -10.022  36.571  1.00  0.00     0.183 C 
BRANCH  29  30
HETATM   30  C22 UNK     1      32.418  -8.894  36.610  1.00  0.00     0.065 C 
BRANCH  30  31
HETATM   31  C24 UNK     1      31.888  -7.660  37.298  1.00  0.00    -0.056 A 
HETATM   32  C25 UNK     1      32.777  -6.775  37.888  1.00  0.00     0.007 A 
HETATM   33  C27 UNK     1      32.287  -5.635  38.523  1.00  0.00     0.001 A 
HETATM   34  C29 UNK     1      30.914  -5.392  38.561  1.00  0.00     0.000 A 
HETATM   35  C28 UNK     1      30.031  -6.292  37.963  1.00  0.00     0.001 A 
HETATM   36  C26 UNK     1      30.521  -7.433  37.328  1.00  0.00     0.007 A 
ENDBRANCH  30  31
ENDBRANCH  29  30
ENDBRANCH  28  29
ENDBRANCH  26  28
ENDBRANCH   8  26
TORSDOF 6
ENDMDL
MODEL 8
REMARK VINA RESULT:      -8.3      2.781      7.529
REMARK  6 active torsions:
REMARK  status: ('A' for Active; 'I' for Inactive)
REMARK    1  A    between atoms: C12_18  and  O3_3 
REMARK    2  A    between atoms: C18_24  and  O3_3 
REMARK    3  A    between atoms: C1_7  and  C10_16 
REMARK    4  A    between atoms: C12_18  and  C6_12 
REMARK    5  A    between atoms: C18_24  and  C22_28 
REMARK    6  A    between atoms: C22_28  and  C24_30 
ROOT
HETATM    1  O1  UNK     1      33.677 -12.089  32.422  1.00  0.00    -0.293 OA
HETATM    2  N1  UNK     1      29.578 -11.281  30.189  1.00  0.00    -0.362 N 
HETATM    3  C1  UNK     1      31.728 -10.116  31.629  1.00  0.00     0.104 C 
HETATM    4  C2  UNK     1      31.588 -11.617  31.398  1.00  0.00     0.024 C 
HETATM    5  C3  UNK     1      30.532 -12.124  30.726  1.00  0.00     0.020 C 
HETATM    6  C4  UNK     1      30.318 -13.599  30.513  1.00  0.00     0.058 C 
HETATM    7  C5  UNK     1      31.091 -14.444  31.519  1.00  0.00     0.014 C 
HETATM    8  C6  UNK     1      30.689  -9.300  30.859  1.00  0.00     0.052 C 
HETATM    9  C7  UNK     1      32.546 -14.014  31.579  1.00  0.00     0.084 C 
HETATM   10  C8  UNK     1      32.672 -12.535  31.869  1.00  0.00     0.158 C 
HETATM   11  C9  UNK     1      29.664  -9.897  30.207  1.00  0.00     0.018 C 
HETATM   12  C13 UNK     1      28.564  -9.186  29.466  1.00  0.00     0.069 C 
HETATM   13  H8  UNK     1      28.802 -11.700  29.690  1.00  0.00     0.165 HD
ENDROOT
BRANCH   3  14
HETATM   14  C10 UNK     1      31.648  -9.805  33.099  1.00  0.00     0.029 A 
HETATM   15  C11 UNK     1      32.709  -8.962  33.706  1.00  0.00     0.194 A 
HETATM   16  O4  UNK     1      33.641  -8.516  33.049  1.00  0.00    -0.287 OA
HETATM   17  C15 UNK     1      32.583  -8.690  35.149  1.00  0.00     0.049 A 
HETATM   18  C16 UNK     1      31.500  -9.225  35.848  1.00  0.00     0.089 A 
HETATM   19  C17 UNK     1      33.531  -7.908  35.813  1.00  0.00     0.025 A 
HETATM   20  O2  UNK     1      30.540 -10.001  35.247  1.00  0.00    -0.321 OA
HETATM   21  C19 UNK     1      31.361  -8.981  37.214  1.00  0.00     0.039 A 
HETATM   22  C14 UNK     1      30.672 -10.247  33.902  1.00  0.00     0.154 A 
HETATM   23  C21 UNK     1      32.306  -8.199  37.879  1.00  0.00     0.009 A 
HETATM   24  C20 UNK     1      33.388  -7.664  37.180  1.00  0.00    -0.061 A 
HETATM   25  C23 UNK     1      34.396  -6.827  37.896  1.00  0.00     0.048 C 
ENDBRANCH   3  14
BRANCH   8  26
HETATM   26  C12 UNK     1      30.891  -7.842  30.825  1.00  0.00     0.292 C 
HETATM   27  O5  UNK     1      31.744  -7.302  30.146  1.00  0.00    -0.259 OA
BRANCH  26  28
HETATM   28  O3  UNK     1      29.988  -7.266  31.654  1.00  0.00    -0.317 OA
BRANCH  28  29
HETATM   29  C18 UNK     1      30.517  -6.254  32.517  1.00  0.00     0.183 C 
BRANCH  29  30
HETATM   30  C22 UNK     1      29.944  -6.423  33.920  1.00  0.00     0.065 C 
BRANCH  30  31
HETATM   31  C24 UNK     1      30.703  -5.623  34.951  1.00  0.00    -0.056 A 
HETATM   32  C25 UNK     1      30.226  -5.561  36.250  1.00  0.00     0.007 A 
HETATM   33  C27 UNK     1      30.928  -4.823  37.202  1.00  0.00     0.001 A 
HETATM   34  C29 UNK     1      32.099  -4.155  36.843  1.00  0.00     0.000 A 
HETATM   35  C28 UNK     1      32.567  -4.226  35.530  1.00  0.00     0.001 A 
HETATM   36  C26 UNK     1      31.864  -4.964  34.578  1.00  0.00     0.007 A 
ENDBRANCH  30  31
ENDBRANCH  29  30
ENDBRANCH  28  29
ENDBRANCH  26  28
ENDBRANCH   8  26
TORSDOF 6
ENDMDL
MODEL 9
REMARK VINA RESULT:      -8.3      2.863      6.049
REMARK  6 active torsions:
REMARK  status: ('A' for Active; 'I' for Inactive)
REMARK    1  A    between atoms: C12_18  and  O3_3 
REMARK    2  A    between atoms: C18_24  and  O3_3 
REMARK    3  A    between atoms: C1_7  and  C10_16 
REMARK    4  A    between atoms: C12_18  and  C6_12 
REMARK    5  A    between atoms: C18_24  and  C22_28 
REMARK    6  A    between atoms: C22_28  and  C24_30 
ROOT
HETATM    1  O1  UNK     1      34.598 -11.525  32.251  1.00  0.00    -0.293 OA
HETATM    2  N1  UNK     1      36.453  -7.795  34.508  1.00  0.00    -0.362 N 
HETATM    3  C1  UNK     1      34.062  -9.059  33.649  1.00  0.00     0.104 C 
HETATM    4  C2  UNK     1      35.455  -9.584  33.316  1.00  0.00     0.024 C 
HETATM    5  C3  UNK     1      36.562  -8.931  33.729  1.00  0.00     0.020 C 
HETATM    6  C4  UNK     1      37.960  -9.376  33.388  1.00  0.00     0.058 C 
HETATM    7  C5  UNK     1      37.991 -10.287  32.166  1.00  0.00     0.014 C 
HETATM    8  C6  UNK     1      34.091  -7.888  34.632  1.00  0.00     0.052 C 
HETATM    9  C7  UNK     1      36.982 -11.413  32.307  1.00  0.00     0.084 C 
HETATM   10  C8  UNK     1      35.593 -10.877  32.576  1.00  0.00     0.158 C 
HETATM   11  C9  UNK     1      35.253  -7.298  34.994  1.00  0.00     0.018 C 
HETATM   12  C13 UNK     1      35.386  -6.112  35.911  1.00  0.00     0.069 C 
HETATM   13  H8  UNK     1      37.308  -7.336  34.799  1.00  0.00     0.165 HD
ENDROOT
BRANCH   3  14
HETATM   14  C10 UNK     1      33.340  -8.663  32.389  1.00  0.00     0.029 A 
HETATM   15  C11 UNK     1      32.079  -9.366  32.042  1.00  0.00     0.194 A 
HETATM   16  O4  UNK     1      31.614 -10.253  32.746  1.00  0.00    -0.287 OA
HETATM   17  C15 UNK     1      31.414  -8.940  30.798  1.00  0.00     0.049 A 
HETATM   18  C16 UNK     1      31.991  -7.924  30.034  1.00  0.00     0.089 A 
HETATM   19  C17 UNK     1      30.223  -9.541  30.383  1.00  0.00     0.025 A 
HETATM   20  O2  UNK     1      33.159  -7.299  30.392  1.00  0.00    -0.321 OA
HETATM   21  C19 UNK     1      31.379  -7.505  28.852  1.00  0.00     0.039 A 
HETATM   22  C14 UNK     1      33.768  -7.708  31.554  1.00  0.00     0.154 A 
HETATM   23  C21 UNK     1      30.189  -8.104  28.437  1.00  0.00     0.009 A 
HETATM   24  C20 UNK     1      29.612  -9.119  29.201  1.00  0.00    -0.061 A 
HETATM   25  C23 UNK     1      28.339  -9.755  28.753  1.00  0.00     0.048 C 
ENDBRANCH   3  14
BRANCH   8  26
HETATM   26  C12 UNK     1      32.796  -7.472  35.198  1.00  0.00     0.292 C 
HETATM   27  O5  UNK     1      32.227  -8.083  36.083  1.00  0.00    -0.259 OA
BRANCH  26  28
HETATM   28  O3  UNK     1      32.398  -6.342  34.567  1.00  0.00    -0.317 OA
BRANCH  28  29
HETATM   29  C18 UNK     1      31.015  -6.309  34.199  1.00  0.00     0.183 C 
BRANCH  29  30
HETATM   30  C22 UNK     1      30.855  -5.591  32.863  1.00  0.00     0.065 C 
BRANCH  30  31
HETATM   31  C24 UNK     1      29.604  -6.013  32.130  1.00  0.00    -0.056 A 
HETATM   32  C25 UNK     1      28.798  -7.000  32.674  1.00  0.00     0.007 A 
HETATM   33  C27 UNK     1      27.643  -7.389  31.996  1.00  0.00     0.001 A 
HETATM   34  C29 UNK     1      27.308  -6.786  30.784  1.00  0.00     0.000 A 
HETATM   35  C28 UNK     1      28.130  -5.793  30.249  1.00  0.00     0.001 A 
HETATM   36  C26 UNK     1      29.285  -5.404  30.926  1.00  0.00     0.007 A 
ENDBRANCH  30  31
ENDBRANCH  29  30
ENDBRANCH  28  29
ENDBRANCH  26  28
ENDBRANCH   8  26
TORSDOF 6
ENDMDL
MODEL 10
REMARK VINA RESULT:      -8.2      2.347      4.488
REMARK  6 active torsions:
REMARK  status: ('A' for Active; 'I' for Inactive)
REMARK    1  A    between atoms: C12_18  and  O3_3 
REMARK    2  A    between atoms: C18_24  and  O3_3 
REMARK    3  A    between atoms: C1_7  and  C10_16 
REMARK    4  A    between atoms: C12_18  and  C6_12 
REMARK    5  A    between atoms: C18_24  and  C22_28 
REMARK    6  A    between atoms: C22_28  and  C24_30 
ROOT
HETATM    1  O1  UNK     1      26.766  -9.462  36.279  1.00  0.00    -0.293 OA
HETATM    2  N1  UNK     1      29.637  -6.114  38.009  1.00  0.00    -0.362 N 
HETATM    3  C1  UNK     1      28.955  -7.665  35.732  1.00  0.00     0.104 C 
HETATM    4  C2  UNK     1      28.298  -7.844  37.097  1.00  0.00     0.024 C 
HETATM    5  C3  UNK     1      28.676  -7.097  38.156  1.00  0.00     0.020 C 
HETATM    6  C4  UNK     1      28.098  -7.266  39.536  1.00  0.00     0.058 C 
HETATM    7  C5  UNK     1      27.456  -8.636  39.726  1.00  0.00     0.014 C 
HETATM    8  C6  UNK     1      29.887  -6.453  35.679  1.00  0.00     0.052 C 
HETATM    9  C7  UNK     1      26.495  -8.943  38.592  1.00  0.00     0.084 C 
HETATM   10  C8  UNK     1      27.174  -8.821  37.246  1.00  0.00     0.158 C 
HETATM   11  C9  UNK     1      30.205  -5.758  36.796  1.00  0.00     0.018 C 
HETATM   12  C13 UNK     1      31.149  -4.587  36.860  1.00  0.00     0.069 C 
HETATM   13  H8  UNK     1      29.891  -5.574  38.827  1.00  0.00     0.165 HD
ENDROOT
BRANCH   3  14
HETATM   14  C10 UNK     1      29.702  -8.912  35.344  1.00  0.00     0.029 A 
HETATM   15  C11 UNK     1      29.388  -9.553  34.042  1.00  0.00     0.194 A 
HETATM   16  O4  UNK     1      28.544  -9.098  33.280  1.00  0.00    -0.287 OA
HETATM   17  C15 UNK     1      30.147 -10.772  33.713  1.00  0.00     0.049 A 
HETATM   18  C16 UNK     1      31.096 -11.246  34.620  1.00  0.00     0.089 A 
HETATM   19  C17 UNK     1      29.924 -11.449  32.512  1.00  0.00     0.025 A 
HETATM   20  O2  UNK     1      31.356 -10.622  35.815  1.00  0.00    -0.321 OA
HETATM   21  C19 UNK     1      31.827 -12.398  34.330  1.00  0.00     0.039 A 
HETATM   22  C14 UNK     1      30.639  -9.487  36.108  1.00  0.00     0.154 A 
HETATM   23  C21 UNK     1      31.606 -13.075  33.130  1.00  0.00     0.009 A 
HETATM   24  C20 UNK     1      30.657 -12.601  32.223  1.00  0.00    -0.061 A 
HETATM   25  C23 UNK     1      30.426 -13.329  30.941  1.00  0.00     0.048 C 
ENDBRANCH   3  14
BRANCH   8  26
HETATM   26  C12 UNK     1      30.376  -6.057  34.348  1.00  0.00     0.292 C 
HETATM   27  O5  UNK     1      29.639  -5.745  33.432  1.00  0.00    -0.259 OA
BRANCH  26  28
HETATM   28  O3  UNK     1      31.729  -6.110  34.357  1.00  0.00    -0.317 OA
BRANCH  28  29
HETATM   29  C18 UNK     1      32.323  -6.626  33.161  1.00  0.00     0.183 C 
BRANCH  29  30
HETATM   30  C22 UNK     1      32.791  -8.058  33.394  1.00  0.00     0.065 C 
BRANCH  30  31
HETATM   31  C24 UNK     1      32.715  -8.899  32.143  1.00  0.00    -0.056 A 
HETATM   32  C25 UNK     1      33.572  -9.977  31.995  1.00  0.00     0.007 A 
HETATM   33  C27 UNK     1      33.501 -10.754  30.839  1.00  0.00     0.001 A 
HETATM   34  C29 UNK     1      32.573 -10.443  29.846  1.00  0.00     0.000 A 
HETATM   35  C28 UNK     1      31.715  -9.354  30.009  1.00  0.00     0.001 A 
HETATM   36  C26 UNK     1      31.787  -8.577  31.165  1.00  0.00     0.007 A 
ENDBRANCH  30  31
ENDBRANCH  29  30
ENDBRANCH  28  29
ENDBRANCH  26  28
ENDBRANCH   8  26
TORSDOF 6
ENDMDL
