MODEL 1
REMARK VINA RESULT:      -7.7      0.000      0.000
REMARK  3 active torsions:
REMARK  status: ('A' for Active; 'I' for Inactive)
REMARK    1  A    between atoms: C9_14  and  O2_2 
REMARK    2  A    between atoms: C3_8  and  N1_4 
REMARK    3  A    between atoms: C1_6  and  C3_8 
ROOT
HETATM    1  O1  UNK     1      19.364   1.241  15.018  1.00  0.00    -0.275 OA
HETATM    2  O3  UNK     1      19.495   3.329  15.944  1.00  0.00    -0.260 OA
HETATM    3  C1  UNK     1      18.985   0.215  17.628  1.00  0.00    -0.021 A 
HETATM    4  C2  UNK     1      19.005  -0.689  16.470  1.00  0.00     0.009 A 
HETATM    5  C4  UNK     1      19.195  -0.145  15.199  1.00  0.00     0.091 A 
HETATM    6  C5  UNK     1      18.844  -2.078  16.565  1.00  0.00     0.052 A 
HETATM    7  C6  UNK     1      19.065  -2.311  14.163  1.00  0.00    -0.026 A 
HETATM    8  C7  UNK     1      19.149   1.531  17.425  1.00  0.00     0.092 A 
HETATM    9  C8  UNK     1      19.226  -0.934  14.047  1.00  0.00     0.047 A 
HETATM   10  C9  UNK     1      18.874  -2.883  15.420  1.00  0.00     0.072 A 
HETATM   11  C10 UNK     1      19.348   2.120  16.090  1.00  0.00     0.288 A 
HETATM   12  C13 UNK     1      19.097  -3.159  12.935  1.00  0.00     0.051 C 
ENDROOT
BRANCH   3  13
HETATM   13  C3  UNK     1      18.782  -0.338  19.008  1.00  0.00     0.168 C 
BRANCH  13  14
HETATM   14  N1  UNK     1      19.016   0.675  20.028  1.00  0.00    -0.346 N 
HETATM   15  C11 UNK     1      20.188   0.896  20.677  1.00  0.00     0.111 A 
HETATM   16  C14 UNK     1      19.915   1.937  21.531  1.00  0.00     0.135 A 
HETATM   17  N2  UNK     1      18.610   2.347  21.411  1.00  0.00    -0.255 NA
HETATM   18  C12 UNK     1      18.096   1.561  20.492  1.00  0.00     0.209 A 
ENDBRANCH  13  14
ENDBRANCH   3  13
BRANCH  10  19
HETATM   19  O2  UNK     1      18.711  -4.230  15.553  1.00  0.00    -0.360 OA
HETATM   20  H12 UNK     1      18.741  -4.495  16.486  1.00  0.00     0.217 HD
ENDBRANCH  10  19
TORSDOF 3
ENDMDL
MODEL 2
REMARK VINA RESULT:      -7.7     14.322     17.395
REMARK  3 active torsions:
REMARK  status: ('A' for Active; 'I' for Inactive)
REMARK    1  A    between atoms: C9_14  and  O2_2 
REMARK    2  A    between atoms: C3_8  and  N1_4 
REMARK    3  A    between atoms: C1_6  and  C3_8 
ROOT
HETATM    1  O1  UNK     1      20.754  -2.969  34.117  1.00  0.00    -0.275 OA
HETATM    2  O3  UNK     1      20.717  -3.781  36.255  1.00  0.00    -0.260 OA
HETATM    3  C1  UNK     1      18.521  -1.368  34.791  1.00  0.00    -0.021 A 
HETATM    4  C2  UNK     1      19.092  -1.312  33.439  1.00  0.00     0.009 A 
HETATM    5  C4  UNK     1      20.194  -2.117  33.145  1.00  0.00     0.091 A 
HETATM    6  C5  UNK     1      18.595  -0.492  32.417  1.00  0.00     0.052 A 
HETATM    7  C6  UNK     1      20.288  -1.303  30.885  1.00  0.00    -0.026 A 
HETATM    8  C7  UNK     1      19.075  -2.189  35.696  1.00  0.00     0.092 A 
HETATM    9  C8  UNK     1      20.798  -2.124  31.886  1.00  0.00     0.047 A 
HETATM   10  C9  UNK     1      19.188  -0.488  31.150  1.00  0.00     0.072 A 
HETATM   11  C10 UNK     1      20.237  -3.043  35.401  1.00  0.00     0.288 A 
HETATM   12  C13 UNK     1      20.930  -1.306  29.537  1.00  0.00     0.051 C 
ENDROOT
BRANCH   3  13
HETATM   13  C3  UNK     1      17.337  -0.515  35.140  1.00  0.00     0.168 C 
BRANCH  13  14
HETATM   14  N1  UNK     1      17.624   0.361  36.268  1.00  0.00    -0.346 N 
HETATM   15  C11 UNK     1      17.015   0.323  37.481  1.00  0.00     0.111 A 
HETATM   16  C14 UNK     1      17.618   1.328  38.198  1.00  0.00     0.135 A 
HETATM   17  N2  UNK     1      18.572   1.968  37.447  1.00  0.00    -0.255 NA
HETATM   18  C12 UNK     1      18.549   1.356  36.284  1.00  0.00     0.209 A 
ENDBRANCH  13  14
ENDBRANCH   3  13
BRANCH  10  19
HETATM   19  O2  UNK     1      18.677   0.325  30.182  1.00  0.00    -0.360 OA
HETATM   20  H12 UNK     1      18.132   1.028  30.569  1.00  0.00     0.217 HD
ENDBRANCH  10  19
TORSDOF 3
ENDMDL
MODEL 3
REMARK VINA RESULT:      -7.6     14.120     16.879
REMARK  3 active torsions:
REMARK  status: ('A' for Active; 'I' for Inactive)
REMARK    1  A    between atoms: C9_14  and  O2_2 
REMARK    2  A    between atoms: C3_8  and  N1_4 
REMARK    3  A    between atoms: C1_6  and  C3_8 
ROOT
HETATM    1  O1  UNK     1      18.239   1.699  31.410  1.00  0.00    -0.275 OA
HETATM    2  O3  UNK     1      18.095   2.609  29.316  1.00  0.00    -0.260 OA
HETATM    3  C1  UNK     1      18.274   4.332  32.444  1.00  0.00    -0.021 A 
HETATM    4  C2  UNK     1      18.345   3.179  33.350  1.00  0.00     0.009 A 
HETATM    5  C4  UNK     1      18.326   1.895  32.802  1.00  0.00     0.091 A 
HETATM    6  C5  UNK     1      18.433   3.288  34.745  1.00  0.00     0.052 A 
HETATM    7  C6  UNK     1      18.476   0.876  34.974  1.00  0.00    -0.026 A 
HETATM    8  C7  UNK     1      18.192   4.115  31.123  1.00  0.00     0.092 A 
HETATM    9  C8  UNK     1      18.389   0.745  33.592  1.00  0.00     0.047 A 
HETATM   10  C9  UNK     1      18.498   2.145  35.550  1.00  0.00     0.072 A 
HETATM   11  C10 UNK     1      18.170   2.768  30.530  1.00  0.00     0.288 A 
HETATM   12  C13 UNK     1      18.543  -0.350  35.823  1.00  0.00     0.051 C 
ENDROOT
BRANCH   3  13
HETATM   13  C3  UNK     1      18.292   5.726  33.001  1.00  0.00     0.168 C 
BRANCH  13  14
HETATM   14  N1  UNK     1      17.301   6.573  32.353  1.00  0.00    -0.346 N 
HETATM   15  C11 UNK     1      15.984   6.646  32.673  1.00  0.00     0.111 A 
HETATM   16  C14 UNK     1      15.469   7.569  31.796  1.00  0.00     0.135 A 
HETATM   17  N2  UNK     1      16.443   8.052  30.957  1.00  0.00    -0.255 NA
HETATM   18  C12 UNK     1      17.539   7.427  31.323  1.00  0.00     0.209 A 
ENDBRANCH  13  14
ENDBRANCH   3  13
BRANCH  10  19
HETATM   19  O2  UNK     1      18.579   2.293  36.903  1.00  0.00    -0.360 OA
HETATM   20  H12 UNK     1      19.503   2.296  37.199  1.00  0.00     0.217 HD
ENDBRANCH  10  19
TORSDOF 3
ENDMDL
MODEL 4
REMARK VINA RESULT:      -7.6     12.834     15.043
REMARK  3 active torsions:
REMARK  status: ('A' for Active; 'I' for Inactive)
REMARK    1  A    between atoms: C9_14  and  O2_2 
REMARK    2  A    between atoms: C3_8  and  N1_4 
REMARK    3  A    between atoms: C1_6  and  C3_8 
ROOT
HETATM    1  O1  UNK     1      18.762   0.224  33.467  1.00  0.00    -0.275 OA
HETATM    2  O3  UNK     1      17.853   1.562  35.085  1.00  0.00    -0.260 OA
HETATM    3  C1  UNK     1      18.474   2.383  31.660  1.00  0.00    -0.021 A 
HETATM    4  C2  UNK     1      19.050   1.109  31.208  1.00  0.00     0.009 A 
HETATM    5  C4  UNK     1      19.175   0.067  32.130  1.00  0.00     0.091 A 
HETATM    6  C5  UNK     1      19.484   0.873  29.897  1.00  0.00     0.052 A 
HETATM    7  C6  UNK     1      20.136  -1.389  30.476  1.00  0.00    -0.026 A 
HETATM    8  C7  UNK     1      18.090   2.503  32.939  1.00  0.00     0.092 A 
HETATM    9  C8  UNK     1      19.711  -1.174  31.783  1.00  0.00     0.047 A 
HETATM   10  C9  UNK     1      20.024  -0.367  29.534  1.00  0.00     0.072 A 
HETATM   11  C10 UNK     1      18.216   1.415  33.922  1.00  0.00     0.288 A 
HETATM   12  C13 UNK     1      20.711  -2.714  30.100  1.00  0.00     0.051 C 
ENDROOT
BRANCH   3  13
HETATM   13  C3  UNK     1      18.327   3.523  30.695  1.00  0.00     0.168 C 
BRANCH  13  14
HETATM   14  N1  UNK     1      18.623   4.800  31.328  1.00  0.00    -0.346 N 
HETATM   15  C11 UNK     1      17.730   5.598  31.969  1.00  0.00     0.111 A 
HETATM   16  C14 UNK     1      18.474   6.674  32.391  1.00  0.00     0.135 A 
HETATM   17  N2  UNK     1      19.789   6.542  32.021  1.00  0.00    -0.255 NA
HETATM   18  C12 UNK     1      19.844   5.396  31.381  1.00  0.00     0.209 A 
ENDBRANCH  13  14
ENDBRANCH   3  13
BRANCH  10  19
HETATM   19  O2  UNK     1      20.438  -0.557  28.249  1.00  0.00    -0.360 OA
HETATM   20  H12 UNK     1      20.335  -1.485  27.983  1.00  0.00     0.217 HD
ENDBRANCH  10  19
TORSDOF 3
ENDMDL
MODEL 5
REMARK VINA RESULT:      -7.5     10.968     13.338
REMARK  3 active torsions:
REMARK  status: ('A' for Active; 'I' for Inactive)
REMARK    1  A    between atoms: C9_14  and  O2_2 
REMARK    2  A    between atoms: C3_8  and  N1_4 
REMARK    3  A    between atoms: C1_6  and  C3_8 
ROOT
HETATM    1  O1  UNK     1      16.439   6.059   9.855  1.00  0.00    -0.275 OA
HETATM    2  O3  UNK     1      15.846   3.850   9.828  1.00  0.00    -0.260 OA
HETATM    3  C1  UNK     1      13.693   6.696   9.606  1.00  0.00    -0.021 A 
HETATM    4  C2  UNK     1      14.698   7.764   9.682  1.00  0.00     0.009 A 
HETATM    5  C4  UNK     1      16.043   7.410   9.804  1.00  0.00     0.091 A 
HETATM    6  C5  UNK     1      14.387   9.130   9.640  1.00  0.00     0.052 A 
HETATM    7  C6  UNK     1      16.731   9.713   9.840  1.00  0.00    -0.026 A 
HETATM    8  C7  UNK     1      14.098   5.419   9.656  1.00  0.00     0.092 A 
HETATM    9  C8  UNK     1      17.061   8.362   9.884  1.00  0.00     0.047 A 
HETATM   10  C9  UNK     1      15.396  10.097   9.718  1.00  0.00     0.072 A 
HETATM   11  C10 UNK     1      15.513   5.029   9.786  1.00  0.00     0.288 A 
HETATM   12  C13 UNK     1      17.816  10.735   9.926  1.00  0.00     0.051 C 
ENDROOT
BRANCH   3  13
HETATM   13  C3  UNK     1      12.239   7.043   9.475  1.00  0.00     0.168 C 
BRANCH  13  14
HETATM   14  N1  UNK     1      11.702   6.617   8.190  1.00  0.00    -0.346 N 
HETATM   15  C11 UNK     1      12.286   6.808   6.980  1.00  0.00     0.111 A 
HETATM   16  C14 UNK     1      11.413   6.239   6.084  1.00  0.00     0.135 A 
HETATM   17  N2  UNK     1      10.320   5.711   6.725  1.00  0.00    -0.255 NA
HETATM   18  C12 UNK     1      10.528   5.958   7.999  1.00  0.00     0.209 A 
ENDBRANCH  13  14
ENDBRANCH   3  13
BRANCH  10  19
HETATM   19  O2  UNK     1      15.054  11.416   9.676  1.00  0.00    -0.360 OA
HETATM   20  H12 UNK     1      14.937  11.717   8.761  1.00  0.00     0.217 HD
ENDBRANCH  10  19
TORSDOF 3
ENDMDL
MODEL 6
REMARK VINA RESULT:      -7.4     15.782     18.651
REMARK  3 active torsions:
REMARK  status: ('A' for Active; 'I' for Inactive)
REMARK    1  A    between atoms: C9_14  and  O2_2 
REMARK    2  A    between atoms: C3_8  and  N1_4 
REMARK    3  A    between atoms: C1_6  and  C3_8 
ROOT
HETATM    1  O1  UNK     1      14.824   8.530  32.797  1.00  0.00    -0.275 OA
HETATM    2  O3  UNK     1      13.689   6.776  31.865  1.00  0.00    -0.260 OA
HETATM    3  C1  UNK     1      17.213   7.064  32.403  1.00  0.00    -0.021 A 
HETATM    4  C2  UNK     1      17.254   8.398  33.017  1.00  0.00     0.009 A 
HETATM    5  C4  UNK     1      16.054   9.090  33.195  1.00  0.00     0.091 A 
HETATM    6  C5  UNK     1      18.434   9.025  33.439  1.00  0.00     0.052 A 
HETATM    7  C6  UNK     1      17.187  10.966  34.182  1.00  0.00    -0.026 A 
HETATM    8  C7  UNK     1      16.028   6.556  32.034  1.00  0.00     0.092 A 
HETATM    9  C8  UNK     1      16.005  10.362  33.769  1.00  0.00     0.047 A 
HETATM   10  C9  UNK     1      18.401  10.299  34.017  1.00  0.00     0.072 A 
HETATM   11  C10 UNK     1      14.755   7.274  32.214  1.00  0.00     0.288 A 
HETATM   12  C13 UNK     1      17.140  12.326  34.796  1.00  0.00     0.051 C 
ENDROOT
BRANCH   3  13
HETATM   13  C3  UNK     1      18.485   6.295  32.197  1.00  0.00     0.168 C 
BRANCH  13  14
HETATM   14  N1  UNK     1      18.315   4.887  32.525  1.00  0.00    -0.346 N 
HETATM   15  C11 UNK     1      18.305   4.356  33.775  1.00  0.00     0.111 A 
HETATM   16  C14 UNK     1      18.118   3.009  33.574  1.00  0.00     0.135 A 
HETATM   17  N2  UNK     1      18.016   2.718  32.236  1.00  0.00    -0.255 NA
HETATM   18  C12 UNK     1      18.139   3.878  31.631  1.00  0.00     0.209 A 
ENDBRANCH  13  14
ENDBRANCH   3  13
BRANCH  10  19
HETATM   19  O2  UNK     1      19.570  10.877  34.413  1.00  0.00    -0.360 OA
HETATM   20  H12 UNK     1      20.080  10.280  34.983  1.00  0.00     0.217 HD
ENDBRANCH  10  19
TORSDOF 3
ENDMDL
MODEL 7
REMARK VINA RESULT:      -7.3     11.624     13.504
REMARK  3 active torsions:
REMARK  status: ('A' for Active; 'I' for Inactive)
REMARK    1  A    between atoms: C9_14  and  O2_2 
REMARK    2  A    between atoms: C3_8  and  N1_4 
REMARK    3  A    between atoms: C1_6  and  C3_8 
ROOT
HETATM    1  O1  UNK     1      13.403   9.289  10.148  1.00  0.00    -0.275 OA
HETATM    2  O3  UNK     1      11.368  10.327  10.033  1.00  0.00    -0.260 OA
HETATM    3  C1  UNK     1      12.143   6.936   9.206  1.00  0.00    -0.021 A 
HETATM    4  C2  UNK     1      13.582   6.940   9.502  1.00  0.00     0.009 A 
HETATM    5  C4  UNK     1      14.167   8.120   9.965  1.00  0.00     0.091 A 
HETATM    6  C5  UNK     1      14.412   5.821   9.346  1.00  0.00     0.052 A 
HETATM    7  C6  UNK     1      16.333   7.087  10.108  1.00  0.00    -0.026 A 
HETATM    8  C7  UNK     1      11.441   8.063   9.390  1.00  0.00     0.092 A 
HETATM    9  C8  UNK     1      15.527   8.209  10.268  1.00  0.00     0.047 A 
HETATM   10  C9  UNK     1      15.776   5.894   9.647  1.00  0.00     0.072 A 
HETATM   11  C10 UNK     1      12.043   9.316   9.877  1.00  0.00     0.288 A 
HETATM   12  C13 UNK     1      17.788   7.177  10.430  1.00  0.00     0.051 C 
ENDROOT
BRANCH   3  13
HETATM   13  C3  UNK     1      11.484   5.684   8.706  1.00  0.00     0.168 C 
BRANCH  13  14
HETATM   14  N1  UNK     1      10.638   5.951   7.551  1.00  0.00    -0.346 N 
HETATM   15  C11 UNK     1      11.064   6.109   6.272  1.00  0.00     0.111 A 
HETATM   16  C14 UNK     1       9.915   6.337   5.554  1.00  0.00     0.135 A 
HETATM   17  N2  UNK     1       8.811   6.319   6.369  1.00  0.00    -0.255 NA
HETATM   18  C12 UNK     1       9.286   6.082   7.571  1.00  0.00     0.209 A 
ENDBRANCH  13  14
ENDBRANCH   3  13
BRANCH  10  19
HETATM   19  O2  UNK     1      16.551   4.785   9.480  1.00  0.00    -0.360 OA
HETATM   20  H12 UNK     1      17.361   4.995   8.988  1.00  0.00     0.217 HD
ENDBRANCH  10  19
TORSDOF 3
ENDMDL
MODEL 8
REMARK VINA RESULT:      -7.3     15.214     18.459
REMARK  3 active torsions:
REMARK  status: ('A' for Active; 'I' for Inactive)
REMARK    1  A    between atoms: C9_14  and  O2_2 
REMARK    2  A    between atoms: C3_8  and  N1_4 
REMARK    3  A    between atoms: C1_6  and  C3_8 
ROOT
HETATM    1  O1  UNK     1      18.573   9.762  34.188  1.00  0.00    -0.275 OA
HETATM    2  O3  UNK     1      20.822   9.562  34.556  1.00  0.00    -0.260 OA
HETATM    3  C1  UNK     1      18.485   6.957  33.821  1.00  0.00    -0.021 A 
HETATM    4  C2  UNK     1      17.259   7.759  33.708  1.00  0.00     0.009 A 
HETATM    5  C4  UNK     1      17.343   9.140  33.895  1.00  0.00     0.091 A 
HETATM    6  C5  UNK     1      15.999   7.217  33.420  1.00  0.00     0.052 A 
HETATM    7  C6  UNK     1      14.985   9.416  33.519  1.00  0.00    -0.026 A 
HETATM    8  C7  UNK     1      19.641   7.576  34.100  1.00  0.00     0.092 A 
HETATM    9  C8  UNK     1      16.227   9.973  33.806  1.00  0.00     0.047 A 
HETATM   10  C9  UNK     1      14.871   8.040  33.326  1.00  0.00     0.072 A 
HETATM   11  C10 UNK     1      19.746   9.031  34.302  1.00  0.00     0.288 A 
HETATM   12  C13 UNK     1      13.788  10.303  33.424  1.00  0.00     0.051 C 
ENDROOT
BRANCH   3  13
HETATM   13  C3  UNK     1      18.429   5.470  33.625  1.00  0.00     0.168 C 
BRANCH  13  14
HETATM   14  N1  UNK     1      18.691   5.104  32.241  1.00  0.00    -0.346 N 
HETATM   15  C11 UNK     1      19.352   5.861  31.328  1.00  0.00     0.111 A 
HETATM   16  C14 UNK     1      19.347   5.101  30.183  1.00  0.00     0.135 A 
HETATM   17  N2  UNK     1      18.700   3.907  30.385  1.00  0.00    -0.255 NA
HETATM   18  C12 UNK     1      18.317   3.942  31.642  1.00  0.00     0.209 A 
ENDBRANCH  13  14
ENDBRANCH   3  13
BRANCH  10  19
HETATM   19  O2  UNK     1      13.662   7.476  33.047  1.00  0.00    -0.360 OA
HETATM   20  H12 UNK     1      13.667   6.525  33.239  1.00  0.00     0.217 HD
ENDBRANCH  10  19
TORSDOF 3
ENDMDL
MODEL 9
REMARK VINA RESULT:      -7.3     24.234     25.305
REMARK  3 active torsions:
REMARK  status: ('A' for Active; 'I' for Inactive)
REMARK    1  A    between atoms: C9_14  and  O2_2 
REMARK    2  A    between atoms: C3_8  and  N1_4 
REMARK    3  A    between atoms: C1_6  and  C3_8 
ROOT
HETATM    1  O1  UNK     1      31.111  -4.529  38.929  1.00  0.00    -0.275 OA
HETATM    2  O3  UNK     1      29.304  -3.595  39.974  1.00  0.00    -0.260 OA
HETATM    3  C1  UNK     1      29.395  -6.589  38.022  1.00  0.00    -0.021 A 
HETATM    4  C2  UNK     1      30.820  -6.600  37.665  1.00  0.00     0.009 A 
HETATM    5  C4  UNK     1      31.635  -5.566  38.132  1.00  0.00     0.091 A 
HETATM    6  C5  UNK     1      31.418  -7.593  36.877  1.00  0.00     0.052 A 
HETATM    7  C6  UNK     1      33.572  -6.497  37.056  1.00  0.00    -0.026 A 
HETATM    8  C7  UNK     1      28.925  -5.589  38.782  1.00  0.00     0.092 A 
HETATM    9  C8  UNK     1      32.998  -5.501  37.838  1.00  0.00     0.047 A 
HETATM   10  C9  UNK     1      32.783  -7.542  36.575  1.00  0.00     0.072 A 
HETATM   11  C10 UNK     1      29.771  -4.492  39.280  1.00  0.00     0.288 A 
HETATM   12  C13 UNK     1      35.029  -6.432  36.738  1.00  0.00     0.051 C 
ENDROOT
BRANCH   3  13
HETATM   13  C3  UNK     1      28.492  -7.685  37.536  1.00  0.00     0.168 C 
BRANCH  13  14
HETATM   14  N1  UNK     1      28.306  -8.712  38.550  1.00  0.00    -0.346 N 
HETATM   15  C11 UNK     1      27.243  -8.821  39.388  1.00  0.00     0.111 A 
HETATM   16  C14 UNK     1      27.518  -9.931  40.149  1.00  0.00     0.135 A 
HETATM   17  N2  UNK     1      28.719 -10.492  39.790  1.00  0.00    -0.255 NA
HETATM   18  C12 UNK     1      29.168  -9.729  38.819  1.00  0.00     0.209 A 
ENDBRANCH  13  14
ENDBRANCH   3  13
BRANCH  10  19
HETATM   19  O2  UNK     1      33.328  -8.525  35.804  1.00  0.00    -0.360 OA
HETATM   20  H12 UNK     1      33.409  -9.355  36.301  1.00  0.00     0.217 HD
ENDBRANCH  10  19
TORSDOF 3
ENDMDL
MODEL 10
REMARK VINA RESULT:      -7.3     13.041     15.898
REMARK  3 active torsions:
REMARK  status: ('A' for Active; 'I' for Inactive)
REMARK    1  A    between atoms: C9_14  and  O2_2 
REMARK    2  A    between atoms: C3_8  and  N1_4 
REMARK    3  A    between atoms: C1_6  and  C3_8 
ROOT
HETATM    1  O1  UNK     1      18.676   2.508  31.280  1.00  0.00    -0.275 OA
HETATM    2  O3  UNK     1      17.749   4.182  32.532  1.00  0.00    -0.260 OA
HETATM    3  C1  UNK     1      18.406   0.812  33.529  1.00  0.00    -0.021 A 
HETATM    4  C2  UNK     1      18.987   0.301  32.280  1.00  0.00     0.009 A 
HETATM    5  C4  UNK     1      19.103   1.168  31.193  1.00  0.00     0.091 A 
HETATM    6  C5  UNK     1      19.435  -1.017  32.112  1.00  0.00     0.052 A 
HETATM    7  C6  UNK     1      20.082  -0.549  29.824  1.00  0.00    -0.026 A 
HETATM    8  C7  UNK     1      18.008   2.091  33.583  1.00  0.00     0.092 A 
HETATM    9  C8  UNK     1      19.642   0.763  29.970  1.00  0.00     0.047 A 
HETATM   10  C9  UNK     1      19.978  -1.438  30.893  1.00  0.00     0.072 A 
HETATM   11  C10 UNK     1      18.124   3.018  32.445  1.00  0.00     0.288 A 
HETATM   12  C13 UNK     1      20.658  -0.988  28.519  1.00  0.00     0.051 C 
ENDROOT
BRANCH   3  13
HETATM   13  C3  UNK     1      18.266  -0.095  34.717  1.00  0.00     0.168 C 
BRANCH  13  14
HETATM   14  N1  UNK     1      17.159   0.311  35.571  1.00  0.00    -0.346 N 
HETATM   15  C11 UNK     1      17.267   0.919  36.780  1.00  0.00     0.111 A 
HETATM   16  C14 UNK     1      15.968   1.100  37.190  1.00  0.00     0.135 A 
HETATM   17  N2  UNK     1      15.083   0.616  36.258  1.00  0.00    -0.255 NA
HETATM   18  C12 UNK     1      15.839   0.146  35.291  1.00  0.00     0.209 A 
ENDBRANCH  13  14
ENDBRANCH   3  13
BRANCH  10  19
HETATM   19  O2  UNK     1      20.401  -2.728  30.767  1.00  0.00    -0.360 OA
HETATM   20  H12 UNK     1      19.650  -3.343  30.771  1.00  0.00     0.217 HD
ENDBRANCH  10  19
TORSDOF 3
ENDMDL
