MODEL 1
REMARK VINA RESULT:      -9.2      0.000      0.000
REMARK  9 active torsions:
REMARK  status: ('A' for Active; 'I' for Inactive)
REMARK    1  A    between atoms: C1_10  and  O2_2 
REMARK    2  A    between atoms: C2_11  and  O3_3 
REMARK    3  A    between atoms: C4_13  and  O4_4 
REMARK    4  A    between atoms: C7_16  and  O5_5 
REMARK    5  A    between atoms: C9_18  and  O7_7 
REMARK    6  A    between atoms: C21_30  and  O9_9 
REMARK    7  A    between atoms: C3_12  and  C6_15 
REMARK    8  A    between atoms: C5_14  and  C7_16 
REMARK    9  A    between atoms: C14_23  and  C16_25 
ROOT
HETATM    1  O6  UNK     1      18.203   2.942  34.240  1.00  0.00    -0.320 OA
HETATM    2  O8  UNK     1      18.446   5.085  30.776  1.00  0.00    -0.286 OA
HETATM    3  C6  UNK     1      18.563   0.915  33.084  1.00  0.00     0.041 A 
HETATM    4  C8  UNK     1      18.433   2.304  33.049  1.00  0.00     0.101 A 
HETATM    5  C9  UNK     1      18.797   0.211  31.903  1.00  0.00     0.077 A 
HETATM    6  C10 UNK     1      18.535   2.985  31.836  1.00  0.00     0.050 A 
HETATM    7  C11 UNK     1      18.900   0.892  30.690  1.00  0.00     0.038 A 
HETATM    8  C12 UNK     1      18.769   2.281  30.652  1.00  0.00     0.021 A 
HETATM    9  C13 UNK     1      18.390   4.453  31.822  1.00  0.00     0.197 A 
HETATM   10  C14 UNK     1      18.162   5.107  33.141  1.00  0.00     0.048 A 
HETATM   11  C15 UNK     1      18.091   4.312  34.218  1.00  0.00     0.159 A 
ENDROOT
BRANCH   3  12
HETATM   12  C3  UNK     1      18.452   0.166  34.398  1.00  0.00     0.192 C 
HETATM   13  C1  UNK     1      17.031  -0.386  34.636  1.00  0.00     0.183 C 
HETATM   14  C2  UNK     1      16.964  -1.181  35.944  1.00  0.00     0.181 C 
HETATM   15  C4  UNK     1      18.110  -2.199  36.020  1.00  0.00     0.180 C 
HETATM   16  C5  UNK     1      19.466  -1.550  35.715  1.00  0.00     0.177 C 
HETATM   17  O1  UNK     1      19.421  -0.890  34.447  1.00  0.00    -0.368 OA
BRANCH  13  18
HETATM   18  O2  UNK     1      16.677  -1.257  33.561  1.00  0.00    -0.390 OA
HETATM   19  H8  UNK     1      15.797  -1.000  33.236  1.00  0.00     0.210 HD
ENDBRANCH  13  18
BRANCH  14  20
HETATM   20  O3  UNK     1      17.007  -0.286  37.055  1.00  0.00    -0.390 OA
HETATM   21  H9  UNK     1      16.929   0.624  36.730  1.00  0.00     0.210 HD
ENDBRANCH  14  20
BRANCH  15  22
HETATM   22  O4  UNK     1      18.138  -2.811  37.304  1.00  0.00    -0.390 OA
HETATM   23  H10 UNK     1      18.855  -2.397  37.813  1.00  0.00     0.210 HD
ENDBRANCH  15  22
BRANCH  16  24
HETATM   24  C7  UNK     1      20.583  -2.587  35.650  1.00  0.00     0.198 C 
BRANCH  24  25
HETATM   25  O5  UNK     1      20.076  -3.759  35.039  1.00  0.00    -0.398 OA
HETATM   26  H13 UNK     1      19.458  -3.476  34.343  1.00  0.00     0.209 HD
ENDBRANCH  24  25
ENDBRANCH  16  24
ENDBRANCH   3  12
BRANCH   5  27
HETATM   27  O7  UNK     1      18.927  -1.145  31.914  1.00  0.00    -0.360 OA
HETATM   28  H15 UNK     1      19.585  -1.407  31.248  1.00  0.00     0.217 HD
ENDBRANCH   5  27
BRANCH  10  29
HETATM   29  C16 UNK     1      18.040   6.568  33.273  1.00  0.00    -0.020 A 
HETATM   30  C17 UNK     1      16.865   7.213  32.885  1.00  0.00     0.015 A 
HETATM   31  C19 UNK     1      16.751   8.597  33.012  1.00  0.00     0.037 A 
HETATM   32  C21 UNK     1      17.813   9.341  33.528  1.00  0.00     0.065 A 
HETATM   33  C20 UNK     1      18.989   8.699  33.915  1.00  0.00     0.037 A 
HETATM   34  C18 UNK     1      19.102   7.314  33.788  1.00  0.00     0.015 A 
BRANCH  32  35
HETATM   35  O9  UNK     1      17.701  10.691  33.651  1.00  0.00    -0.361 OA
HETATM   36  H20 UNK     1      18.279  11.116  32.993  1.00  0.00     0.217 HD
ENDBRANCH  32  35
ENDBRANCH  10  29
TORSDOF 9
ENDMDL
MODEL 2
REMARK VINA RESULT:      -8.6     25.042     26.695
REMARK  9 active torsions:
REMARK  status: ('A' for Active; 'I' for Inactive)
REMARK    1  A    between atoms: C1_10  and  O2_2 
REMARK    2  A    between atoms: C2_11  and  O3_3 
REMARK    3  A    between atoms: C4_13  and  O4_4 
REMARK    4  A    between atoms: C7_16  and  O5_5 
REMARK    5  A    between atoms: C9_18  and  O7_7 
REMARK    6  A    between atoms: C21_30  and  O9_9 
REMARK    7  A    between atoms: C3_12  and  C6_15 
REMARK    8  A    between atoms: C5_14  and  C7_16 
REMARK    9  A    between atoms: C14_23  and  C16_25 
ROOT
HETATM    1  O6  UNK     1      11.127   7.710   9.663  1.00  0.00    -0.320 OA
HETATM    2  O8  UNK     1      13.834   7.364   6.630  1.00  0.00    -0.286 OA
HETATM    3  C6  UNK     1       9.495   6.537   8.424  1.00  0.00     0.041 A 
HETATM    4  C8  UNK     1      10.788   7.055   8.508  1.00  0.00     0.101 A 
HETATM    5  C9  UNK     1       9.092   5.862   7.272  1.00  0.00     0.077 A 
HETATM    6  C10 UNK     1      11.675   6.898   7.443  1.00  0.00     0.050 A 
HETATM    7  C11 UNK     1       9.980   5.704   6.207  1.00  0.00     0.038 A 
HETATM    8  C12 UNK     1      11.273   6.221   6.288  1.00  0.00     0.021 A 
HETATM    9  C13 UNK     1      13.035   7.456   7.552  1.00  0.00     0.197 A 
HETATM   10  C14 UNK     1      13.368   8.141   8.832  1.00  0.00     0.048 A 
HETATM   11  C15 UNK     1      12.404   8.208   9.763  1.00  0.00     0.159 A 
ENDROOT
BRANCH   3  12
HETATM   12  C3  UNK     1       8.523   6.705   9.577  1.00  0.00     0.192 C 
HETATM   13  C1  UNK     1       7.582   7.910   9.374  1.00  0.00     0.183 C 
HETATM   14  C2  UNK     1       6.580   8.022  10.528  1.00  0.00     0.181 C 
HETATM   15  C4  UNK     1       5.905   6.669  10.795  1.00  0.00     0.180 C 
HETATM   16  C5  UNK     1       6.934   5.539  10.926  1.00  0.00     0.177 C 
HETATM   17  O1  UNK     1       7.772   5.499   9.766  1.00  0.00    -0.368 OA
BRANCH  13  18
HETATM   18  O2  UNK     1       6.852   7.740   8.159  1.00  0.00    -0.390 OA
HETATM   19  H8  UNK     1       7.296   8.251   7.461  1.00  0.00     0.210 HD
ENDBRANCH  13  18
BRANCH  14  20
HETATM   20  O3  UNK     1       7.244   8.496  11.700  1.00  0.00    -0.390 OA
HETATM   21  H9  UNK     1       7.425   7.745  12.285  1.00  0.00     0.210 HD
ENDBRANCH  14  20
BRANCH  15  22
HETATM   22  O4  UNK     1       5.106   6.742  11.969  1.00  0.00    -0.390 OA
HETATM   23  H10 UNK     1       5.617   6.352  12.699  1.00  0.00     0.210 HD
ENDBRANCH  15  22
BRANCH  16  24
HETATM   24  C7  UNK     1       6.259   4.176  11.047  1.00  0.00     0.198 C 
BRANCH  24  25
HETATM   25  O5  UNK     1       4.930   4.286  10.570  1.00  0.00    -0.398 OA
HETATM   26  H13 UNK     1       4.981   4.414   9.607  1.00  0.00     0.209 HD
ENDBRANCH  24  25
ENDBRANCH  16  24
ENDBRANCH   3  12
BRANCH   5  27
HETATM   27  O7  UNK     1       7.834   5.349   7.168  1.00  0.00    -0.360 OA
HETATM   28  H15 UNK     1       7.720   4.962   6.283  1.00  0.00     0.217 HD
ENDBRANCH   5  27
BRANCH  10  29
HETATM   29  C16 UNK     1      14.702   8.708   9.088  1.00  0.00    -0.020 A 
HETATM   30  C17 UNK     1      15.641   7.986   9.827  1.00  0.00     0.015 A 
HETATM   31  C19 UNK     1      16.905   8.525  10.067  1.00  0.00     0.037 A 
HETATM   32  C21 UNK     1      17.233   9.787   9.570  1.00  0.00     0.065 A 
HETATM   33  C20 UNK     1      16.297  10.510   8.832  1.00  0.00     0.037 A 
HETATM   34  C18 UNK     1      15.032   9.971   8.591  1.00  0.00     0.015 A 
BRANCH  32  35
HETATM   35  O9  UNK     1      18.467  10.311   9.806  1.00  0.00    -0.361 OA
HETATM   36  H20 UNK     1      18.633  10.305  10.764  1.00  0.00     0.217 HD
ENDBRANCH  32  35
ENDBRANCH  10  29
TORSDOF 9
ENDMDL
MODEL 3
REMARK VINA RESULT:      -8.5      1.467      8.399
REMARK  9 active torsions:
REMARK  status: ('A' for Active; 'I' for Inactive)
REMARK    1  A    between atoms: C1_10  and  O2_2 
REMARK    2  A    between atoms: C2_11  and  O3_3 
REMARK    3  A    between atoms: C4_13  and  O4_4 
REMARK    4  A    between atoms: C7_16  and  O5_5 
REMARK    5  A    between atoms: C9_18  and  O7_7 
REMARK    6  A    between atoms: C21_30  and  O9_9 
REMARK    7  A    between atoms: C3_12  and  C6_15 
REMARK    8  A    between atoms: C5_14  and  C7_16 
REMARK    9  A    between atoms: C14_23  and  C16_25 
ROOT
HETATM    1  O6  UNK     1      18.239   3.123  34.103  1.00  0.00    -0.320 OA
HETATM    2  O8  UNK     1      18.951  -0.340  32.065  1.00  0.00    -0.286 OA
HETATM    3  C6  UNK     1      18.268   4.379  32.104  1.00  0.00     0.041 A 
HETATM    4  C8  UNK     1      18.373   3.141  32.739  1.00  0.00     0.101 A 
HETATM    5  C9  UNK     1      18.398   4.459  30.717  1.00  0.00     0.077 A 
HETATM    6  C10 UNK     1      18.607   1.988  31.990  1.00  0.00     0.050 A 
HETATM    7  C11 UNK     1      18.632   3.306  29.968  1.00  0.00     0.038 A 
HETATM    8  C12 UNK     1      18.738   2.067  30.600  1.00  0.00     0.021 A 
HETATM    9  C13 UNK     1      18.719   0.691  32.683  1.00  0.00     0.197 A 
HETATM   10  C14 UNK     1      18.545   0.714  34.162  1.00  0.00     0.048 A 
HETATM   11  C15 UNK     1      18.323   1.906  34.736  1.00  0.00     0.159 A 
ENDROOT
BRANCH   3  12
HETATM   12  C3  UNK     1      18.015   5.638  32.911  1.00  0.00     0.192 C 
HETATM   13  C1  UNK     1      19.318   6.398  33.228  1.00  0.00     0.183 C 
HETATM   14  C2  UNK     1      19.025   7.691  33.998  1.00  0.00     0.181 C 
HETATM   15  C4  UNK     1      17.920   8.497  33.304  1.00  0.00     0.180 C 
HETATM   16  C5  UNK     1      16.696   7.628  32.990  1.00  0.00     0.177 C 
HETATM   17  O1  UNK     1      17.087   6.486  32.222  1.00  0.00    -0.368 OA
BRANCH  13  18
HETATM   18  O2  UNK     1      19.975   6.741  32.007  1.00  0.00    -0.390 OA
HETATM   19  H8  UNK     1      20.243   5.919  31.563  1.00  0.00     0.210 HD
ENDBRANCH  13  18
BRANCH  14  20
HETATM   20  O3  UNK     1      18.657   7.378  35.342  1.00  0.00    -0.390 OA
HETATM   21  H9  UNK     1      18.830   6.438  35.506  1.00  0.00     0.210 HD
ENDBRANCH  14  20
BRANCH  15  22
HETATM   22  O4  UNK     1      17.539   9.604  34.112  1.00  0.00    -0.390 OA
HETATM   23  H10 UNK     1      17.719  10.415  33.607  1.00  0.00     0.210 HD
ENDBRANCH  15  22
BRANCH  16  24
HETATM   24  C7  UNK     1      15.657   8.392  32.174  1.00  0.00     0.198 C 
BRANCH  24  25
HETATM   25  O5  UNK     1      16.121   8.498  30.840  1.00  0.00    -0.398 OA
HETATM   26  H13 UNK     1      15.562   9.157  30.394  1.00  0.00     0.209 HD
ENDBRANCH  24  25
ENDBRANCH  16  24
ENDBRANCH   3  12
BRANCH   5  27
HETATM   27  O7  UNK     1      18.300   5.658  30.076  1.00  0.00    -0.360 OA
HETATM   28  H15 UNK     1      17.501   5.657  29.521  1.00  0.00     0.217 HD
ENDBRANCH   5  27
BRANCH  10  29
HETATM   29  C16 UNK     1      18.592  -0.515  34.970  1.00  0.00    -0.020 A 
HETATM   30  C17 UNK     1      17.530  -0.840  35.816  1.00  0.00     0.015 A 
HETATM   31  C19 UNK     1      17.577  -2.005  36.581  1.00  0.00     0.037 A 
HETATM   32  C21 UNK     1      18.686  -2.848  36.503  1.00  0.00     0.065 A 
HETATM   33  C20 UNK     1      19.748  -2.525  35.659  1.00  0.00     0.037 A 
HETATM   34  C18 UNK     1      19.702  -1.360  34.894  1.00  0.00     0.015 A 
BRANCH  32  35
HETATM   35  O9  UNK     1      18.730  -3.984  37.250  1.00  0.00    -0.361 OA
HETATM   36  H20 UNK     1      18.296  -4.702  36.757  1.00  0.00     0.217 HD
ENDBRANCH  32  35
ENDBRANCH  10  29
TORSDOF 9
ENDMDL
MODEL 4
REMARK VINA RESULT:      -8.1     24.081     26.681
REMARK  9 active torsions:
REMARK  status: ('A' for Active; 'I' for Inactive)
REMARK    1  A    between atoms: C1_10  and  O2_2 
REMARK    2  A    between atoms: C2_11  and  O3_3 
REMARK    3  A    between atoms: C4_13  and  O4_4 
REMARK    4  A    between atoms: C7_16  and  O5_5 
REMARK    5  A    between atoms: C9_18  and  O7_7 
REMARK    6  A    between atoms: C21_30  and  O9_9 
REMARK    7  A    between atoms: C3_12  and  C6_15 
REMARK    8  A    between atoms: C5_14  and  C7_16 
REMARK    9  A    between atoms: C14_23  and  C16_25 
ROOT
HETATM    1  O6  UNK     1      14.260   9.310   8.086  1.00  0.00    -0.320 OA
HETATM    2  O8  UNK     1      17.787   9.687  10.103  1.00  0.00    -0.286 OA
HETATM    3  C6  UNK     1      13.822   7.230   9.116  1.00  0.00     0.041 A 
HETATM    4  C8  UNK     1      14.661   8.336   8.963  1.00  0.00     0.101 A 
HETATM    5  C9  UNK     1      14.177   6.207   9.994  1.00  0.00     0.077 A 
HETATM    6  C10 UNK     1      15.849   8.416   9.687  1.00  0.00     0.050 A 
HETATM    7  C11 UNK     1      15.367   6.288  10.719  1.00  0.00     0.038 A 
HETATM    8  C12 UNK     1      16.207   7.391  10.568  1.00  0.00     0.021 A 
HETATM    9  C13 UNK     1      16.722   9.592   9.508  1.00  0.00     0.197 A 
HETATM   10  C14 UNK     1      16.239  10.635   8.561  1.00  0.00     0.048 A 
HETATM   11  C15 UNK     1      15.070  10.411   7.942  1.00  0.00     0.159 A 
ENDROOT
BRANCH   3  12
HETATM   12  C3  UNK     1      12.527   7.134   8.331  1.00  0.00     0.192 C 
HETATM   13  C1  UNK     1      12.672   6.252   7.074  1.00  0.00     0.183 C 
HETATM   14  C2  UNK     1      11.336   6.132   6.333  1.00  0.00     0.181 C 
HETATM   15  C4  UNK     1      10.209   5.753   7.302  1.00  0.00     0.180 C 
HETATM   16  C5  UNK     1      10.195   6.663   8.538  1.00  0.00     0.177 C 
HETATM   17  O1  UNK     1      11.476   6.647   9.175  1.00  0.00    -0.368 OA
BRANCH  13  18
HETATM   18  O2  UNK     1      13.091   4.943   7.462  1.00  0.00    -0.390 OA
HETATM   19  H8  UNK     1      13.735   4.622   6.808  1.00  0.00     0.210 HD
ENDBRANCH  13  18
BRANCH  14  20
HETATM   20  O3  UNK     1      11.042   7.361   5.668  1.00  0.00    -0.390 OA
HETATM   21  H9  UNK     1      10.663   7.165   4.797  1.00  0.00     0.210 HD
ENDBRANCH  14  20
BRANCH  15  22
HETATM   22  O4  UNK     1       8.952   5.809   6.640  1.00  0.00    -0.390 OA
HETATM   23  H10 UNK     1       8.858   6.698   6.258  1.00  0.00     0.210 HD
ENDBRANCH  15  22
BRANCH  16  24
HETATM   24  C7  UNK     1       9.168   6.198   9.566  1.00  0.00     0.198 C 
BRANCH  24  25
HETATM   25  O5  UNK     1       8.979   4.802   9.415  1.00  0.00    -0.398 OA
HETATM   26  H13 UNK     1       8.873   4.629   8.464  1.00  0.00     0.209 HD
ENDBRANCH  24  25
ENDBRANCH  16  24
ENDBRANCH   3  12
BRANCH   5  27
HETATM   27  O7  UNK     1      13.375   5.119  10.158  1.00  0.00    -0.360 OA
HETATM   28  H15 UNK     1      13.606   4.449   9.492  1.00  0.00     0.217 HD
ENDBRANCH   5  27
BRANCH  10  29
HETATM   29  C16 UNK     1      16.993  11.876   8.320  1.00  0.00    -0.020 A 
HETATM   30  C17 UNK     1      16.685  13.034   9.036  1.00  0.00     0.015 A 
HETATM   31  C19 UNK     1      17.401  14.209   8.806  1.00  0.00     0.037 A 
HETATM   32  C21 UNK     1      18.427  14.229   7.860  1.00  0.00     0.065 A 
HETATM   33  C20 UNK     1      18.735  13.073   7.143  1.00  0.00     0.037 A 
HETATM   34  C18 UNK     1      18.019  11.898   7.373  1.00  0.00     0.015 A 
BRANCH  32  35
HETATM   35  O9  UNK     1      19.124  15.376   7.637  1.00  0.00    -0.361 OA
HETATM   36  H20 UNK     1      18.725  15.844   6.883  1.00  0.00     0.217 HD
ENDBRANCH  32  35
ENDBRANCH  10  29
TORSDOF 9
ENDMDL
MODEL 5
REMARK VINA RESULT:      -7.8      3.229     10.091
REMARK  9 active torsions:
REMARK  status: ('A' for Active; 'I' for Inactive)
REMARK    1  A    between atoms: C1_10  and  O2_2 
REMARK    2  A    between atoms: C2_11  and  O3_3 
REMARK    3  A    between atoms: C4_13  and  O4_4 
REMARK    4  A    between atoms: C7_16  and  O5_5 
REMARK    5  A    between atoms: C9_18  and  O7_7 
REMARK    6  A    between atoms: C21_30  and  O9_9 
REMARK    7  A    between atoms: C3_12  and  C6_15 
REMARK    8  A    between atoms: C5_14  and  C7_16 
REMARK    9  A    between atoms: C14_23  and  C16_25 
ROOT
HETATM    1  O6  UNK     1      16.798   7.585  32.913  1.00  0.00    -0.320 OA
HETATM    2  O8  UNK     1      20.471   5.876  33.402  1.00  0.00    -0.286 OA
HETATM    3  C6  UNK     1      17.584   9.656  33.733  1.00  0.00     0.041 A 
HETATM    4  C8  UNK     1      17.843   8.324  33.405  1.00  0.00     0.101 A 
HETATM    5  C9  UNK     1      18.607  10.456  34.240  1.00  0.00     0.077 A 
HETATM    6  C10 UNK     1      19.121   7.796  33.584  1.00  0.00     0.050 A 
HETATM    7  C11 UNK     1      19.886   9.928  34.418  1.00  0.00     0.038 A 
HETATM    8  C12 UNK     1      20.148   8.597  34.092  1.00  0.00     0.021 A 
HETATM    9  C13 UNK     1      19.371   6.385  33.234  1.00  0.00     0.197 A 
HETATM   10  C14 UNK     1      18.214   5.625  32.683  1.00  0.00     0.048 A 
HETATM   11  C15 UNK     1      17.047   6.278  32.570  1.00  0.00     0.159 A 
ENDROOT
BRANCH   3  12
HETATM   12  C3  UNK     1      16.196  10.238  33.543  1.00  0.00     0.192 C 
HETATM   13  C1  UNK     1      15.135   9.502  34.386  1.00  0.00     0.183 C 
HETATM   14  C2  UNK     1      13.755  10.145  34.213  1.00  0.00     0.181 C 
HETATM   15  C4  UNK     1      13.837  11.666  34.402  1.00  0.00     0.180 C 
HETATM   16  C5  UNK     1      14.959  12.282  33.557  1.00  0.00     0.177 C 
HETATM   17  O1  UNK     1      16.204  11.639  33.848  1.00  0.00    -0.368 OA
BRANCH  13  18
HETATM   18  O2  UNK     1      15.495   9.573  35.766  1.00  0.00    -0.390 OA
HETATM   19  H8  UNK     1      14.932   8.954  36.261  1.00  0.00     0.210 HD
ENDBRANCH  13  18
BRANCH  14  20
HETATM   20  O3  UNK     1      13.230   9.822  32.925  1.00  0.00    -0.390 OA
HETATM   21  H9  UNK     1      12.869   8.923  32.948  1.00  0.00     0.210 HD
ENDBRANCH  14  20
BRANCH  15  22
HETATM   22  O4  UNK     1      12.591  12.269  34.075  1.00  0.00    -0.390 OA
HETATM   23  H10 UNK     1      12.526  13.101  34.573  1.00  0.00     0.210 HD
ENDBRANCH  15  22
BRANCH  16  24
HETATM   24  C7  UNK     1      15.134  13.768  33.853  1.00  0.00     0.198 C 
BRANCH  24  25
HETATM   25  O5  UNK     1      16.519  14.045  33.970  1.00  0.00    -0.398 OA
HETATM   26  H13 UNK     1      16.819  13.656  34.809  1.00  0.00     0.209 HD
ENDBRANCH  24  25
ENDBRANCH  16  24
ENDBRANCH   3  12
BRANCH   5  27
HETATM   27  O7  UNK     1      18.377  11.758  34.567  1.00  0.00    -0.360 OA
HETATM   28  H15 UNK     1      18.676  12.328  33.839  1.00  0.00     0.217 HD
ENDBRANCH   5  27
BRANCH  10  29
HETATM   29  C16 UNK     1      18.337   4.222  32.257  1.00  0.00    -0.020 A 
HETATM   30  C17 UNK     1      18.185   3.191  33.185  1.00  0.00     0.015 A 
HETATM   31  C19 UNK     1      18.302   1.861  32.778  1.00  0.00     0.037 A 
HETATM   32  C21 UNK     1      18.570   1.560  31.442  1.00  0.00     0.065 A 
HETATM   33  C20 UNK     1      18.722   2.589  30.513  1.00  0.00     0.037 A 
HETATM   34  C18 UNK     1      18.606   3.919  30.920  1.00  0.00     0.015 A 
BRANCH  32  35
HETATM   35  O9  UNK     1      18.684   0.264  31.047  1.00  0.00    -0.361 OA
HETATM   36  H20 UNK     1      18.333   0.178  30.144  1.00  0.00     0.217 HD
ENDBRANCH  32  35
ENDBRANCH  10  29
TORSDOF 9
ENDMDL
MODEL 6
REMARK VINA RESULT:      -7.8      3.656      9.332
REMARK  9 active torsions:
REMARK  status: ('A' for Active; 'I' for Inactive)
REMARK    1  A    between atoms: C1_10  and  O2_2 
REMARK    2  A    between atoms: C2_11  and  O3_3 
REMARK    3  A    between atoms: C4_13  and  O4_4 
REMARK    4  A    between atoms: C7_16  and  O5_5 
REMARK    5  A    between atoms: C9_18  and  O7_7 
REMARK    6  A    between atoms: C21_30  and  O9_9 
REMARK    7  A    between atoms: C3_12  and  C6_15 
REMARK    8  A    between atoms: C5_14  and  C7_16 
REMARK    9  A    between atoms: C14_23  and  C16_25 
ROOT
HETATM    1  O6  UNK     1      19.789  -1.864  34.380  1.00  0.00    -0.320 OA
HETATM    2  O8  UNK     1      18.412  -2.285  38.198  1.00  0.00    -0.286 OA
HETATM    3  C6  UNK     1      18.726   0.234  34.162  1.00  0.00     0.041 A 
HETATM    4  C8  UNK     1      19.018  -0.883  34.947  1.00  0.00     0.101 A 
HETATM    5  C9  UNK     1      17.944   1.263  34.685  1.00  0.00     0.077 A 
HETATM    6  C10 UNK     1      18.528  -0.968  36.250  1.00  0.00     0.050 A 
HETATM    7  C11 UNK     1      17.455   1.178  35.989  1.00  0.00     0.038 A 
HETATM    8  C12 UNK     1      17.744   0.063  36.775  1.00  0.00     0.021 A 
HETATM    9  C13 UNK     1      18.845  -2.159  37.060  1.00  0.00     0.197 A 
HETATM   10  C14 UNK     1      19.703  -3.190  36.413  1.00  0.00     0.048 A 
HETATM   11  C15 UNK     1      20.097  -2.959  35.151  1.00  0.00     0.159 A 
ENDROOT
BRANCH   3  12
HETATM   12  C3  UNK     1      19.254   0.334  32.743  1.00  0.00     0.192 C 
HETATM   13  C1  UNK     1      19.304  -1.038  32.042  1.00  0.00     0.183 C 
HETATM   14  C2  UNK     1      19.791  -0.896  30.596  1.00  0.00     0.181 C 
HETATM   15  C4  UNK     1      19.017   0.211  29.868  1.00  0.00     0.180 C 
HETATM   16  C5  UNK     1      18.988   1.511  30.681  1.00  0.00     0.177 C 
HETATM   17  O1  UNK     1      18.463   1.262  31.989  1.00  0.00    -0.368 OA
BRANCH  13  18
HETATM   18  O2  UNK     1      17.994  -1.607  32.022  1.00  0.00    -0.390 OA
HETATM   19  H8  UNK     1      17.939  -2.221  31.271  1.00  0.00     0.210 HD
ENDBRANCH  13  18
BRANCH  14  20
HETATM   20  O3  UNK     1      21.193  -0.627  30.583  1.00  0.00    -0.390 OA
HETATM   21  H9  UNK     1      21.475  -0.385  31.478  1.00  0.00     0.210 HD
ENDBRANCH  14  20
BRANCH  15  22
HETATM   22  O4  UNK     1      19.587   0.448  28.587  1.00  0.00    -0.390 OA
HETATM   23  H10 UNK     1      20.363   1.020  28.710  1.00  0.00     0.210 HD
ENDBRANCH  15  22
BRANCH  16  24
HETATM   24  C7  UNK     1      18.100   2.564  30.027  1.00  0.00     0.198 C 
BRANCH  24  25
HETATM   25  O5  UNK     1      17.100   2.950  30.953  1.00  0.00    -0.398 OA
HETATM   26  H13 UNK     1      17.373   3.803  31.331  1.00  0.00     0.209 HD
ENDBRANCH  24  25
ENDBRANCH  16  24
ENDBRANCH   3  12
BRANCH   5  27
HETATM   27  O7  UNK     1      17.647   2.362  33.936  1.00  0.00    -0.360 OA
HETATM   28  H15 UNK     1      17.245   2.077  33.098  1.00  0.00     0.217 HD
ENDBRANCH   5  27
BRANCH  10  29
HETATM   29  C16 UNK     1      20.127  -4.407  37.123  1.00  0.00    -0.020 A 
HETATM   30  C17 UNK     1      21.377  -4.458  37.744  1.00  0.00     0.015 A 
HETATM   31  C19 UNK     1      21.776  -5.613  38.417  1.00  0.00     0.037 A 
HETATM   32  C21 UNK     1      20.928  -6.719  38.471  1.00  0.00     0.065 A 
HETATM   33  C20 UNK     1      19.680  -6.671  37.851  1.00  0.00     0.037 A 
HETATM   34  C18 UNK     1      19.280  -5.516  37.178  1.00  0.00     0.015 A 
BRANCH  32  35
HETATM   35  O9  UNK     1      21.320  -7.845  39.127  1.00  0.00    -0.361 OA
HETATM   36  H20 UNK     1      21.474  -7.626  40.062  1.00  0.00     0.217 HD
ENDBRANCH  32  35
ENDBRANCH  10  29
TORSDOF 9
ENDMDL
MODEL 7
REMARK VINA RESULT:      -7.8     14.744     17.058
REMARK  9 active torsions:
REMARK  status: ('A' for Active; 'I' for Inactive)
REMARK    1  A    between atoms: C1_10  and  O2_2 
REMARK    2  A    between atoms: C2_11  and  O3_3 
REMARK    3  A    between atoms: C4_13  and  O4_4 
REMARK    4  A    between atoms: C7_16  and  O5_5 
REMARK    5  A    between atoms: C9_18  and  O7_7 
REMARK    6  A    between atoms: C21_30  and  O9_9 
REMARK    7  A    between atoms: C3_12  and  C6_15 
REMARK    8  A    between atoms: C5_14  and  C7_16 
REMARK    9  A    between atoms: C14_23  and  C16_25 
ROOT
HETATM    1  O6  UNK     1      30.333  -7.738  33.649  1.00  0.00    -0.320 OA
HETATM    2  O8  UNK     1      33.256  -5.716  35.652  1.00  0.00    -0.286 OA
HETATM    3  C6  UNK     1      31.884  -8.522  32.050  1.00  0.00     0.041 A 
HETATM    4  C8  UNK     1      31.629  -7.779  33.204  1.00  0.00     0.101 A 
HETATM    5  C9  UNK     1      33.184  -8.600  31.550  1.00  0.00     0.077 A 
HETATM    6  C10 UNK     1      32.670  -7.117  33.853  1.00  0.00     0.050 A 
HETATM    7  C11 UNK     1      34.225  -7.937  32.200  1.00  0.00     0.038 A 
HETATM    8  C12 UNK     1      33.973  -7.194  33.353  1.00  0.00     0.021 A 
HETATM    9  C13 UNK     1      32.376  -6.335  35.069  1.00  0.00     0.197 A 
HETATM   10  C14 UNK     1      30.960  -6.334  35.529  1.00  0.00     0.048 A 
HETATM   11  C15 UNK     1      30.074  -7.025  34.794  1.00  0.00     0.159 A 
ENDROOT
BRANCH   3  12
HETATM   12  C3  UNK     1      30.757  -9.245  31.336  1.00  0.00     0.192 C 
HETATM   13  C1  UNK     1      30.232  -8.451  30.123  1.00  0.00     0.183 C 
HETATM   14  C2  UNK     1      29.132  -9.229  29.394  1.00  0.00     0.181 C 
HETATM   15  C4  UNK     1      29.578 -10.672  29.120  1.00  0.00     0.180 C 
HETATM   16  C5  UNK     1      30.130 -11.344  30.383  1.00  0.00     0.177 C 
HETATM   17  O1  UNK     1      31.187 -10.554  30.939  1.00  0.00    -0.368 OA
BRANCH  13  18
HETATM   18  O2  UNK     1      31.304  -8.222  29.209  1.00  0.00    -0.390 OA
HETATM   19  H8  UNK     1      31.792  -7.432  29.500  1.00  0.00     0.210 HD
ENDBRANCH  13  18
BRANCH  14  20
HETATM   20  O3  UNK     1      27.932  -9.208  30.167  1.00  0.00    -0.390 OA
HETATM   21  H9  UNK     1      27.509  -8.341  30.069  1.00  0.00     0.210 HD
ENDBRANCH  14  20
BRANCH  15  22
HETATM   22  O4  UNK     1      28.495 -11.430  28.596  1.00  0.00    -0.390 OA
HETATM   23  H10 UNK     1      28.649 -11.547  27.644  1.00  0.00     0.210 HD
ENDBRANCH  15  22
BRANCH  16  24
HETATM   24  C7  UNK     1      30.705 -12.724  30.081  1.00  0.00     0.198 C 
BRANCH  24  25
HETATM   25  O5  UNK     1      29.633 -13.638  29.939  1.00  0.00    -0.398 OA
HETATM   26  H13 UNK     1      29.336 -13.874  30.835  1.00  0.00     0.209 HD
ENDBRANCH  24  25
ENDBRANCH  16  24
ENDBRANCH   3  12
BRANCH   5  27
HETATM   27  O7  UNK     1      33.456  -9.318  30.424  1.00  0.00    -0.360 OA
HETATM   28  H15 UNK     1      33.361 -10.266  30.621  1.00  0.00     0.217 HD
ENDBRANCH   5  27
BRANCH  10  29
HETATM   29  C16 UNK     1      30.538  -5.628  36.749  1.00  0.00    -0.020 A 
HETATM   30  C17 UNK     1      30.785  -4.261  36.890  1.00  0.00     0.015 A 
HETATM   31  C19 UNK     1      30.384  -3.594  38.048  1.00  0.00     0.037 A 
HETATM   32  C21 UNK     1      29.735  -4.291  39.067  1.00  0.00     0.065 A 
HETATM   33  C20 UNK     1      29.487  -5.656  38.928  1.00  0.00     0.037 A 
HETATM   34  C18 UNK     1      29.888  -6.324  37.771  1.00  0.00     0.015 A 
BRANCH  32  35
HETATM   35  O9  UNK     1      29.345  -3.638  40.195  1.00  0.00    -0.361 OA
HETATM   36  H20 UNK     1      29.898  -3.936  40.937  1.00  0.00     0.217 HD
ENDBRANCH  32  35
ENDBRANCH  10  29
TORSDOF 9
ENDMDL
MODEL 8
REMARK VINA RESULT:      -7.8      1.921      3.271
REMARK  9 active torsions:
REMARK  status: ('A' for Active; 'I' for Inactive)
REMARK    1  A    between atoms: C1_10  and  O2_2 
REMARK    2  A    between atoms: C2_11  and  O3_3 
REMARK    3  A    between atoms: C4_13  and  O4_4 
REMARK    4  A    between atoms: C7_16  and  O5_5 
REMARK    5  A    between atoms: C9_18  and  O7_7 
REMARK    6  A    between atoms: C21_30  and  O9_9 
REMARK    7  A    between atoms: C3_12  and  C6_15 
REMARK    8  A    between atoms: C5_14  and  C7_16 
REMARK    9  A    between atoms: C14_23  and  C16_25 
ROOT
HETATM    1  O6  UNK     1      18.904   0.878  32.615  1.00  0.00    -0.320 OA
HETATM    2  O8  UNK     1      18.966   2.883  29.061  1.00  0.00    -0.286 OA
HETATM    3  C6  UNK     1      19.681  -1.099  31.584  1.00  0.00     0.041 A 
HETATM    4  C8  UNK     1      19.310   0.242  31.471  1.00  0.00     0.101 A 
HETATM    5  C9  UNK     1      20.102  -1.799  30.454  1.00  0.00     0.077 A 
HETATM    6  C10 UNK     1      19.362   0.879  30.232  1.00  0.00     0.050 A 
HETATM    7  C11 UNK     1      20.154  -1.162  29.214  1.00  0.00     0.038 A 
HETATM    8  C12 UNK     1      19.783   0.179  29.098  1.00  0.00     0.021 A 
HETATM    9  C13 UNK     1      18.962   2.295  30.135  1.00  0.00     0.197 A 
HETATM   10  C14 UNK     1      18.547   2.953  31.405  1.00  0.00     0.048 A 
HETATM   11  C15 UNK     1      18.554   2.204  32.517  1.00  0.00     0.159 A 
ENDROOT
BRANCH   3  12
HETATM   12  C3  UNK     1      19.627  -1.801  32.928  1.00  0.00     0.192 C 
HETATM   13  C1  UNK     1      20.927  -2.569  33.237  1.00  0.00     0.183 C 
HETATM   14  C2  UNK     1      20.862  -3.222  34.621  1.00  0.00     0.181 C 
HETATM   15  C4  UNK     1      20.404  -2.209  35.679  1.00  0.00     0.180 C 
HETATM   16  C5  UNK     1      19.134  -1.469  35.242  1.00  0.00     0.177 C 
HETATM   17  O1  UNK     1      19.337  -0.854  33.965  1.00  0.00    -0.368 OA
BRANCH  13  18
HETATM   18  O2  UNK     1      22.029  -1.660  33.219  1.00  0.00    -0.390 OA
HETATM   19  H8  UNK     1      21.913  -1.025  33.947  1.00  0.00     0.210 HD
ENDBRANCH  13  18
BRANCH  14  20
HETATM   20  O3  UNK     1      19.983  -4.347  34.583  1.00  0.00    -0.390 OA
HETATM   21  H9  UNK     1      19.853  -4.614  33.660  1.00  0.00     0.210 HD
ENDBRANCH  14  20
BRANCH  15  22
HETATM   22  O4  UNK     1      20.186  -2.863  36.923  1.00  0.00    -0.390 OA
HETATM   23  H10 UNK     1      21.037  -2.901  37.391  1.00  0.00     0.210 HD
ENDBRANCH  15  22
BRANCH  16  24
HETATM   24  C7  UNK     1      18.761  -0.364  36.225  1.00  0.00     0.198 C 
BRANCH  24  25
HETATM   25  O5  UNK     1      19.303   0.858  35.757  1.00  0.00    -0.398 OA
HETATM   26  H13 UNK     1      20.171   0.969  36.181  1.00  0.00     0.209 HD
ENDBRANCH  24  25
ENDBRANCH  16  24
ENDBRANCH   3  12
BRANCH   5  27
HETATM   27  O7  UNK     1      20.467  -3.109  30.541  1.00  0.00    -0.360 OA
HETATM   28  H15 UNK     1      21.173  -3.286  29.896  1.00  0.00     0.217 HD
ENDBRANCH   5  27
BRANCH  10  29
HETATM   29  C16 UNK     1      18.163   4.374  31.456  1.00  0.00    -0.020 A 
HETATM   30  C17 UNK     1      18.625   5.261  30.483  1.00  0.00     0.015 A 
HETATM   31  C19 UNK     1      18.260   6.607  30.534  1.00  0.00     0.037 A 
HETATM   32  C21 UNK     1      17.431   7.067  31.557  1.00  0.00     0.065 A 
HETATM   33  C20 UNK     1      16.969   6.183  32.531  1.00  0.00     0.037 A 
HETATM   34  C18 UNK     1      17.335   4.837  32.480  1.00  0.00     0.015 A 
BRANCH  32  35
HETATM   35  O9  UNK     1      17.076   8.380  31.605  1.00  0.00    -0.361 OA
HETATM   36  H20 UNK     1      16.583   8.542  32.427  1.00  0.00     0.217 HD
ENDBRANCH  32  35
ENDBRANCH  10  29
TORSDOF 9
ENDMDL
MODEL 9
REMARK VINA RESULT:      -7.7      1.550      2.530
REMARK  9 active torsions:
REMARK  status: ('A' for Active; 'I' for Inactive)
REMARK    1  A    between atoms: C1_10  and  O2_2 
REMARK    2  A    between atoms: C2_11  and  O3_3 
REMARK    3  A    between atoms: C4_13  and  O4_4 
REMARK    4  A    between atoms: C7_16  and  O5_5 
REMARK    5  A    between atoms: C9_18  and  O7_7 
REMARK    6  A    between atoms: C21_30  and  O9_9 
REMARK    7  A    between atoms: C3_12  and  C6_15 
REMARK    8  A    between atoms: C5_14  and  C7_16 
REMARK    9  A    between atoms: C14_23  and  C16_25 
ROOT
HETATM    1  O6  UNK     1      18.222   4.098  33.497  1.00  0.00    -0.320 OA
HETATM    2  O8  UNK     1      19.127   6.870  30.642  1.00  0.00    -0.286 OA
HETATM    3  C6  UNK     1      18.241   2.357  31.901  1.00  0.00     0.041 A 
HETATM    4  C8  UNK     1      18.397   3.713  32.193  1.00  0.00     0.101 A 
HETATM    5  C9  UNK     1      18.405   1.907  30.592  1.00  0.00     0.077 A 
HETATM    6  C10 UNK     1      18.717   4.614  31.178  1.00  0.00     0.050 A 
HETATM    7  C11 UNK     1      18.726   2.808  29.576  1.00  0.00     0.038 A 
HETATM    8  C12 UNK     1      18.882   4.164  29.865  1.00  0.00     0.021 A 
HETATM    9  C13 UNK     1      18.874   6.043  31.508  1.00  0.00     0.197 A 
HETATM   10  C14 UNK     1      18.695   6.414  32.939  1.00  0.00     0.048 A 
HETATM   11  C15 UNK     1      18.392   5.428  33.797  1.00  0.00     0.159 A 
ENDROOT
BRANCH   3  12
HETATM   12  C3  UNK     1      17.891   1.371  32.999  1.00  0.00     0.192 C 
HETATM   13  C1  UNK     1      18.404  -0.051  32.690  1.00  0.00     0.183 C 
HETATM   14  C2  UNK     1      18.082  -1.011  33.840  1.00  0.00     0.181 C 
HETATM   15  C4  UNK     1      18.512  -0.412  35.185  1.00  0.00     0.180 C 
HETATM   16  C5  UNK     1      17.991   1.020  35.360  1.00  0.00     0.177 C 
HETATM   17  O1  UNK     1      18.403   1.833  34.257  1.00  0.00    -0.368 OA
BRANCH  13  18
HETATM   18  O2  UNK     1      19.821  -0.015  32.517  1.00  0.00    -0.390 OA
HETATM   19  H8  UNK     1      20.055   0.823  32.082  1.00  0.00     0.210 HD
ENDBRANCH  13  18
BRANCH  14  20
HETATM   20  O3  UNK     1      16.685  -1.310  33.841  1.00  0.00    -0.390 OA
HETATM   21  H9  UNK     1      16.263  -0.839  34.576  1.00  0.00     0.210 HD
ENDBRANCH  14  20
BRANCH  15  22
HETATM   22  O4  UNK     1      18.059  -1.232  36.255  1.00  0.00    -0.390 OA
HETATM   23  H10 UNK     1      17.104  -1.369  36.138  1.00  0.00     0.210 HD
ENDBRANCH  15  22
BRANCH  16  24
HETATM   24  C7  UNK     1      18.537   1.666  36.630  1.00  0.00     0.198 C 
BRANCH  24  25
HETATM   25  O5  UNK     1      19.637   2.486  36.282  1.00  0.00    -0.398 OA
HETATM   26  H13 UNK     1      20.066   2.078  35.510  1.00  0.00     0.209 HD
ENDBRANCH  24  25
ENDBRANCH  16  24
ENDBRANCH   3  12
BRANCH   5  27
HETATM   27  O7  UNK     1      18.257   0.588  30.284  1.00  0.00    -0.360 OA
HETATM   28  H15 UNK     1      17.603   0.192  30.886  1.00  0.00     0.217 HD
ENDBRANCH   5  27
BRANCH  10  29
HETATM   29  C16 UNK     1      18.864   7.798  33.411  1.00  0.00    -0.020 A 
HETATM   30  C17 UNK     1      17.811   8.709  33.306  1.00  0.00     0.015 A 
HETATM   31  C19 UNK     1      17.973  10.020  33.754  1.00  0.00     0.037 A 
HETATM   32  C21 UNK     1      19.188  10.424  34.308  1.00  0.00     0.065 A 
HETATM   33  C20 UNK     1      20.241   9.516  34.414  1.00  0.00     0.037 A 
HETATM   34  C18 UNK     1      20.079   8.205  33.966  1.00  0.00     0.015 A 
BRANCH  32  35
HETATM   35  O9  UNK     1      19.344  11.703  34.745  1.00  0.00    -0.361 OA
HETATM   36  H20 UNK     1      19.694  12.243  34.015  1.00  0.00     0.217 HD
ENDBRANCH  32  35
ENDBRANCH  10  29
TORSDOF 9
ENDMDL
MODEL 10
REMARK VINA RESULT:      -7.7     24.050     26.844
REMARK  9 active torsions:
REMARK  status: ('A' for Active; 'I' for Inactive)
REMARK    1  A    between atoms: C1_10  and  O2_2 
REMARK    2  A    between atoms: C2_11  and  O3_3 
REMARK    3  A    between atoms: C4_13  and  O4_4 
REMARK    4  A    between atoms: C7_16  and  O5_5 
REMARK    5  A    between atoms: C9_18  and  O7_7 
REMARK    6  A    between atoms: C21_30  and  O9_9 
REMARK    7  A    between atoms: C3_12  and  C6_15 
REMARK    8  A    between atoms: C5_14  and  C7_16 
REMARK    9  A    between atoms: C14_23  and  C16_25 
ROOT
HETATM    1  O6  UNK     1      14.866  10.018   7.962  1.00  0.00    -0.320 OA
HETATM    2  O8  UNK     1      15.713  13.589   9.746  1.00  0.00    -0.286 OA
HETATM    3  C6  UNK     1      13.736   9.253   9.889  1.00  0.00     0.041 A 
HETATM    4  C8  UNK     1      14.443  10.267   9.242  1.00  0.00     0.101 A 
HETATM    5  C9  UNK     1      13.281   9.448  11.193  1.00  0.00     0.077 A 
HETATM    6  C10 UNK     1      14.695  11.472   9.898  1.00  0.00     0.050 A 
HETATM    7  C11 UNK     1      13.533  10.653  11.849  1.00  0.00     0.038 A 
HETATM    8  C12 UNK     1      14.240  11.669  11.205  1.00  0.00     0.021 A 
HETATM    9  C13 UNK     1      15.447  12.528   9.196  1.00  0.00     0.197 A 
HETATM   10  C14 UNK     1      15.869  12.224   7.801  1.00  0.00     0.048 A 
HETATM   11  C15 UNK     1      15.547  11.018   7.310  1.00  0.00     0.159 A 
ENDROOT
BRANCH   3  12
HETATM   12  C3  UNK     1      13.458   7.939   9.183  1.00  0.00     0.192 C 
HETATM   13  C1  UNK     1      14.506   6.861   9.527  1.00  0.00     0.183 C 
HETATM   14  C2  UNK     1      14.170   5.532   8.842  1.00  0.00     0.181 C 
HETATM   15  C4  UNK     1      12.702   5.153   9.081  1.00  0.00     0.180 C 
HETATM   16  C5  UNK     1      11.757   6.317   8.756  1.00  0.00     0.177 C 
HETATM   17  O1  UNK     1      12.137   7.481   9.498  1.00  0.00    -0.368 OA
BRANCH  13  18
HETATM   18  O2  UNK     1      14.519   6.648  10.939  1.00  0.00    -0.390 OA
HETATM   19  H8  UNK     1      15.115   5.904  11.131  1.00  0.00     0.210 HD
ENDBRANCH  13  18
BRANCH  14  20
HETATM   20  O3  UNK     1      14.448   5.627   7.444  1.00  0.00    -0.390 OA
HETATM   21  H9  UNK     1      15.027   4.893   7.188  1.00  0.00     0.210 HD
ENDBRANCH  14  20
BRANCH  15  22
HETATM   22  O4  UNK     1      12.357   4.012   8.306  1.00  0.00    -0.390 OA
HETATM   23  H10 UNK     1      13.123   3.789   7.751  1.00  0.00     0.210 HD
ENDBRANCH  15  22
BRANCH  16  24
HETATM   24  C7  UNK     1      10.314   5.990   9.129  1.00  0.00     0.198 C 
BRANCH  24  25
HETATM   25  O5  UNK     1       9.681   5.402   8.008  1.00  0.00    -0.398 OA
HETATM   26  H13 UNK     1      10.071   5.805   7.213  1.00  0.00     0.209 HD
ENDBRANCH  24  25
ENDBRANCH  16  24
ENDBRANCH   3  12
BRANCH   5  27
HETATM   27  O7  UNK     1      12.589   8.471  11.844  1.00  0.00    -0.360 OA
HETATM   28  H15 UNK     1      12.712   8.579  12.802  1.00  0.00     0.217 HD
ENDBRANCH   5  27
BRANCH  10  29
HETATM   29  C16 UNK     1      16.591  13.205   6.975  1.00  0.00    -0.020 A 
HETATM   30  C17 UNK     1      17.952  13.035   6.711  1.00  0.00     0.015 A 
HETATM   31  C19 UNK     1      18.634  13.967   5.928  1.00  0.00     0.037 A 
HETATM   32  C21 UNK     1      17.957  15.070   5.406  1.00  0.00     0.065 A 
HETATM   33  C20 UNK     1      16.599  15.242   5.668  1.00  0.00     0.037 A 
HETATM   34  C18 UNK     1      15.916  14.310   6.452  1.00  0.00     0.015 A 
BRANCH  32  35
HETATM   35  O9  UNK     1      18.624  15.977   4.642  1.00  0.00    -0.361 OA
HETATM   36  H20 UNK     1      18.819  16.761   5.184  1.00  0.00     0.217 HD
ENDBRANCH  32  35
ENDBRANCH  10  29
TORSDOF 9
ENDMDL
