MODEL 1
REMARK VINA RESULT:      -9.2      0.000      0.000
REMARK  2 active torsions:
REMARK  status: ('A' for Active; 'I' for Inactive)
REMARK    1  A    between atoms: C1_5  and  N1_4 
REMARK       I    between atoms: C6_10  and  N1_4 
REMARK    2  A    between atoms: C4_8  and  C6_10 
ROOT
HETATM    1  O2  UNK     1      20.163  -5.294  35.195  1.00  0.00    -0.267 OA
HETATM    2  N1  UNK     1      19.887  -5.003  37.515  1.00  0.00    -0.322 N 
HETATM    3  C6  UNK     1      19.926  -4.605  36.186  1.00  0.00     0.262 C 
HETATM    4  H1  UNK     1      19.548  -4.343  38.211  1.00  0.00     0.169 HD
ENDROOT
BRANCH   3   5
HETATM    5  C4  UNK     1      19.637  -3.175  36.027  1.00  0.00     0.108 A 
HETATM    6  C14 UNK     1      20.132  -2.399  34.868  1.00  0.00     0.304 A 
HETATM    7  O1  UNK     1      19.791  -1.050  34.829  1.00  0.00    -0.274 OA
HETATM    8  O3  UNK     1      20.809  -2.913  33.984  1.00  0.00    -0.259 OA
HETATM    9  C10 UNK     1      19.013  -0.450  35.837  1.00  0.00     0.089 A 
HETATM   10  C5  UNK     1      18.557  -1.198  36.918  1.00  0.00    -0.001 A 
HETATM   11  C16 UNK     1      18.722   0.907  35.710  1.00  0.00     0.038 A 
HETATM   12  C15 UNK     1      17.788  -0.567  37.898  1.00  0.00     0.014 A 
HETATM   13  C7  UNK     1      18.897  -2.611  36.988  1.00  0.00     0.037 A 
HETATM   14  C17 UNK     1      17.489   0.793  37.785  1.00  0.00     0.001 A 
HETATM   15  C18 UNK     1      17.954   1.529  36.693  1.00  0.00     0.003 A 
ENDBRANCH   3   5
BRANCH   2  16
HETATM   16  C1  UNK     1      20.113  -6.300  38.035  1.00  0.00     0.046 A 
HETATM   17  C2  UNK     1      21.333  -6.594  38.625  1.00  0.00    -0.035 A 
HETATM   18  C12 UNK     1      22.424  -5.577  38.730  1.00  0.00     0.050 C 
HETATM   19  C8  UNK     1      21.557  -7.872  39.137  1.00  0.00     0.009 A 
HETATM   20  C11 UNK     1      20.558  -8.841  39.054  1.00  0.00     0.001 A 
HETATM   21  C9  UNK     1      19.334  -8.533  38.457  1.00  0.00     0.009 A 
HETATM   22  C3  UNK     1      19.111  -7.255  37.946  1.00  0.00    -0.035 A 
HETATM   23  C13 UNK     1      17.791  -6.955  37.314  1.00  0.00     0.050 C 
ENDBRANCH   2  16
TORSDOF 2
ENDMDL
MODEL 2
REMARK VINA RESULT:      -9.2      0.002      1.835
REMARK  2 active torsions:
REMARK  status: ('A' for Active; 'I' for Inactive)
REMARK    1  A    between atoms: C1_5  and  N1_4 
REMARK       I    between atoms: C6_10  and  N1_4 
REMARK    2  A    between atoms: C4_8  and  C6_10 
ROOT
HETATM    1  O2  UNK     1      20.163  -5.294  35.194  1.00  0.00    -0.267 OA
HETATM    2  N1  UNK     1      19.887  -5.004  37.515  1.00  0.00    -0.322 N 
HETATM    3  C6  UNK     1      19.926  -4.606  36.185  1.00  0.00     0.262 C 
HETATM    4  H1  UNK     1      19.547  -4.344  38.210  1.00  0.00     0.169 HD
ENDROOT
BRANCH   3   5
HETATM    5  C4  UNK     1      19.637  -3.176  36.026  1.00  0.00     0.108 A 
HETATM    6  C14 UNK     1      20.132  -2.398  34.868  1.00  0.00     0.304 A 
HETATM    7  O1  UNK     1      19.790  -1.050  34.829  1.00  0.00    -0.274 OA
HETATM    8  O3  UNK     1      20.809  -2.912  33.984  1.00  0.00    -0.259 OA
HETATM    9  C10 UNK     1      19.012  -0.450  35.838  1.00  0.00     0.089 A 
HETATM   10  C5  UNK     1      18.557  -1.199  36.918  1.00  0.00    -0.001 A 
HETATM   11  C16 UNK     1      18.722   0.907  35.711  1.00  0.00     0.038 A 
HETATM   12  C15 UNK     1      17.788  -0.568  37.899  1.00  0.00     0.014 A 
HETATM   13  C7  UNK     1      18.897  -2.611  36.988  1.00  0.00     0.037 A 
HETATM   14  C17 UNK     1      17.489   0.792  37.786  1.00  0.00     0.001 A 
HETATM   15  C18 UNK     1      17.954   1.528  36.694  1.00  0.00     0.003 A 
ENDBRANCH   3   5
BRANCH   2  16
HETATM   16  C1  UNK     1      20.113  -6.301  38.034  1.00  0.00     0.046 A 
HETATM   17  C2  UNK     1      19.111  -7.255  37.943  1.00  0.00    -0.035 A 
HETATM   18  C12 UNK     1      17.791  -6.955  37.310  1.00  0.00     0.050 C 
HETATM   19  C8  UNK     1      19.332  -8.533  38.456  1.00  0.00     0.009 A 
HETATM   20  C11 UNK     1      20.554  -8.843  39.053  1.00  0.00     0.001 A 
HETATM   21  C9  UNK     1      21.555  -7.873  39.139  1.00  0.00     0.009 A 
HETATM   22  C3  UNK     1      21.332  -6.596  38.626  1.00  0.00    -0.035 A 
HETATM   23  C13 UNK     1      22.422  -5.579  38.731  1.00  0.00     0.050 C 
ENDBRANCH   2  16
TORSDOF 2
ENDMDL
MODEL 3
REMARK VINA RESULT:      -9.1      7.942     11.488
REMARK  2 active torsions:
REMARK  status: ('A' for Active; 'I' for Inactive)
REMARK    1  A    between atoms: C1_5  and  N1_4 
REMARK       I    between atoms: C6_10  and  N1_4 
REMARK    2  A    between atoms: C4_8  and  C6_10 
ROOT
HETATM    1  O2  UNK     1      17.699   3.552  33.045  1.00  0.00    -0.267 OA
HETATM    2  N1  UNK     1      18.871   5.054  31.660  1.00  0.00    -0.322 N 
HETATM    3  C6  UNK     1      18.364   3.820  32.046  1.00  0.00     0.262 C 
HETATM    4  H1  UNK     1      19.292   5.140  30.738  1.00  0.00     0.169 HD
ENDROOT
BRANCH   3   5
HETATM    5  C4  UNK     1      18.703   2.758  31.091  1.00  0.00     0.108 A 
HETATM    6  C14 UNK     1      18.607   2.958  29.628  1.00  0.00     0.304 A 
HETATM    7  O1  UNK     1      18.957   1.876  28.825  1.00  0.00    -0.274 OA
HETATM    8  O3  UNK     1      18.239   4.022  29.141  1.00  0.00    -0.259 OA
HETATM    9  C10 UNK     1      19.383   0.651  29.373  1.00  0.00     0.089 A 
HETATM   10  C5  UNK     1      19.467   0.484  30.751  1.00  0.00    -0.001 A 
HETATM   11  C16 UNK     1      19.713  -0.374  28.489  1.00  0.00     0.038 A 
HETATM   12  C15 UNK     1      19.893  -0.747  31.257  1.00  0.00     0.014 A 
HETATM   13  C7  UNK     1      19.108   1.596  31.617  1.00  0.00     0.037 A 
HETATM   14  C17 UNK     1      20.227  -1.783  30.383  1.00  0.00     0.001 A 
HETATM   15  C18 UNK     1      20.137  -1.598  29.001  1.00  0.00     0.003 A 
ENDBRANCH   3   5
BRANCH   2  16
HETATM   16  C1  UNK     1      18.738   6.291  32.334  1.00  0.00     0.046 A 
HETATM   17  C2  UNK     1      19.847   6.855  32.945  1.00  0.00    -0.035 A 
HETATM   18  C12 UNK     1      21.187   6.194  32.915  1.00  0.00     0.050 C 
HETATM   19  C8  UNK     1      19.717   8.074  33.611  1.00  0.00     0.009 A 
HETATM   20  C11 UNK     1      18.479   8.715  33.657  1.00  0.00     0.001 A 
HETATM   21  C9  UNK     1      17.371   8.136  33.037  1.00  0.00     0.009 A 
HETATM   22  C3  UNK     1      17.502   6.917  32.372  1.00  0.00    -0.035 A 
HETATM   23  C13 UNK     1      16.297   6.323  31.718  1.00  0.00     0.050 C 
ENDBRANCH   2  16
TORSDOF 2
ENDMDL
MODEL 4
REMARK VINA RESULT:      -9.0      4.265      6.989
REMARK  2 active torsions:
REMARK  status: ('A' for Active; 'I' for Inactive)
REMARK    1  A    between atoms: C1_5  and  N1_4 
REMARK       I    between atoms: C6_10  and  N1_4 
REMARK    2  A    between atoms: C4_8  and  C6_10 
ROOT
HETATM    1  O2  UNK     1      16.492   0.828  34.061  1.00  0.00    -0.267 OA
HETATM    2  N1  UNK     1      18.749   0.673  34.714  1.00  0.00    -0.322 N 
HETATM    3  C6  UNK     1      17.681   1.120  33.948  1.00  0.00     0.262 C 
HETATM    4  H1  UNK     1      19.659   1.106  34.580  1.00  0.00     0.169 HD
ENDROOT
BRANCH   3   5
HETATM    5  C4  UNK     1      18.105   2.053  32.897  1.00  0.00     0.108 A 
HETATM    6  C14 UNK     1      18.664   1.583  31.609  1.00  0.00     0.304 A 
HETATM    7  O1  UNK     1      19.029   2.564  30.692  1.00  0.00    -0.274 OA
HETATM    8  O3  UNK     1      18.800   0.390  31.357  1.00  0.00    -0.259 OA
HETATM    9  C10 UNK     1      18.875   3.936  30.969  1.00  0.00     0.089 A 
HETATM   10  C5  UNK     1      18.348   4.356  32.186  1.00  0.00    -0.001 A 
HETATM   11  C16 UNK     1      19.269   4.844  29.988  1.00  0.00     0.038 A 
HETATM   12  C15 UNK     1      18.212   5.726  32.425  1.00  0.00     0.014 A 
HETATM   13  C7  UNK     1      17.957   3.355  33.166  1.00  0.00     0.037 A 
HETATM   14  C17 UNK     1      18.602   6.648  31.451  1.00  0.00     0.001 A 
HETATM   15  C18 UNK     1      19.130   6.208  30.234  1.00  0.00     0.003 A 
ENDBRANCH   3   5
BRANCH   2  16
HETATM   16  C1  UNK     1      18.712  -0.227  35.806  1.00  0.00     0.046 A 
HETATM   17  C2  UNK     1      18.186   0.195  37.017  1.00  0.00    -0.035 A 
HETATM   18  C12 UNK     1      17.655   1.579  37.208  1.00  0.00     0.050 C 
HETATM   19  C8  UNK     1      18.150  -0.691  38.095  1.00  0.00     0.009 A 
HETATM   20  C11 UNK     1      18.639  -1.988  37.947  1.00  0.00     0.001 A 
HETATM   21  C9  UNK     1      19.165  -2.401  36.722  1.00  0.00     0.009 A 
HETATM   22  C3  UNK     1      19.201  -1.515  35.646  1.00  0.00    -0.035 A 
HETATM   23  C13 UNK     1      19.770  -1.985  34.346  1.00  0.00     0.050 C 
ENDBRANCH   2  16
TORSDOF 2
ENDMDL
MODEL 5
REMARK VINA RESULT:      -9.0      4.258      6.970
REMARK  2 active torsions:
REMARK  status: ('A' for Active; 'I' for Inactive)
REMARK    1  A    between atoms: C1_5  and  N1_4 
REMARK       I    between atoms: C6_10  and  N1_4 
REMARK    2  A    between atoms: C4_8  and  C6_10 
ROOT
HETATM    1  O2  UNK     1      16.492   0.825  34.070  1.00  0.00    -0.267 OA
HETATM    2  N1  UNK     1      18.751   0.660  34.715  1.00  0.00    -0.322 N 
HETATM    3  C6  UNK     1      17.682   1.112  33.953  1.00  0.00     0.262 C 
HETATM    4  H1  UNK     1      19.662   1.091  34.579  1.00  0.00     0.169 HD
ENDROOT
BRANCH   3   5
HETATM    5  C4  UNK     1      18.106   2.045  32.902  1.00  0.00     0.108 A 
HETATM    6  C14 UNK     1      18.664   1.576  31.614  1.00  0.00     0.304 A 
HETATM    7  O1  UNK     1      19.029   2.557  30.697  1.00  0.00    -0.274 OA
HETATM    8  O3  UNK     1      18.798   0.383  31.362  1.00  0.00    -0.259 OA
HETATM    9  C10 UNK     1      18.877   3.929  30.975  1.00  0.00     0.089 A 
HETATM   10  C5  UNK     1      18.351   4.349  32.193  1.00  0.00    -0.001 A 
HETATM   11  C16 UNK     1      19.271   4.836  29.995  1.00  0.00     0.038 A 
HETATM   12  C15 UNK     1      18.216   5.718  32.432  1.00  0.00     0.014 A 
HETATM   13  C7  UNK     1      17.959   3.348  33.173  1.00  0.00     0.037 A 
HETATM   14  C17 UNK     1      18.607   6.640  31.458  1.00  0.00     0.001 A 
HETATM   15  C18 UNK     1      19.133   6.201  30.241  1.00  0.00     0.003 A 
ENDBRANCH   3   5
BRANCH   2  16
HETATM   16  C1  UNK     1      18.713  -0.241  35.806  1.00  0.00     0.046 A 
HETATM   17  C2  UNK     1      19.199  -1.529  35.641  1.00  0.00    -0.035 A 
HETATM   18  C12 UNK     1      19.764  -2.000  34.340  1.00  0.00     0.050 C 
HETATM   19  C8  UNK     1      19.161  -2.419  36.716  1.00  0.00     0.009 A 
HETATM   20  C11 UNK     1      18.639  -2.009  37.942  1.00  0.00     0.001 A 
HETATM   21  C9  UNK     1      18.154  -0.709  38.095  1.00  0.00     0.009 A 
HETATM   22  C3  UNK     1      18.192   0.179  37.020  1.00  0.00    -0.035 A 
HETATM   23  C13 UNK     1      17.665   1.564  37.214  1.00  0.00     0.050 C 
ENDBRANCH   2  16
TORSDOF 2
ENDMDL
MODEL 6
REMARK VINA RESULT:      -8.8     19.103     21.308
REMARK  2 active torsions:
REMARK  status: ('A' for Active; 'I' for Inactive)
REMARK    1  A    between atoms: C1_5  and  N1_4 
REMARK       I    between atoms: C6_10  and  N1_4 
REMARK    2  A    between atoms: C4_8  and  C6_10 
ROOT
HETATM    1  O2  UNK     1      17.641  -2.291  16.024  1.00  0.00    -0.267 OA
HETATM    2  N1  UNK     1      19.750  -1.893  15.056  1.00  0.00    -0.322 N 
HETATM    3  C6  UNK     1      18.697  -1.668  15.932  1.00  0.00     0.262 C 
HETATM    4  H1  UNK     1      20.614  -1.373  15.189  1.00  0.00     0.169 HD
ENDROOT
BRANCH   3   5
HETATM    5  C4  UNK     1      18.953  -0.533  16.826  1.00  0.00     0.108 A 
HETATM    6  C14 UNK     1      19.198   0.833  16.310  1.00  0.00     0.304 A 
HETATM    7  O1  UNK     1      19.428   1.827  17.257  1.00  0.00    -0.274 OA
HETATM    8  O3  UNK     1      19.198   1.082  15.109  1.00  0.00    -0.259 OA
HETATM    9  C10 UNK     1      19.428   1.552  18.638  1.00  0.00     0.089 A 
HETATM   10  C5  UNK     1      19.196   0.261  19.102  1.00  0.00    -0.001 A 
HETATM   11  C16 UNK     1      19.668   2.612  19.509  1.00  0.00     0.038 A 
HETATM   12  C15 UNK     1      19.205   0.028  20.479  1.00  0.00     0.014 A 
HETATM   13  C7  UNK     1      18.952  -0.800  18.137  1.00  0.00     0.037 A 
HETATM   14  C17 UNK     1      19.443   1.082  21.365  1.00  0.00     0.001 A 
HETATM   15  C18 UNK     1      19.674   2.372  20.882  1.00  0.00     0.003 A 
ENDBRANCH   3   5
BRANCH   2  16
HETATM   16  C1  UNK     1      19.848  -2.897  14.062  1.00  0.00     0.046 A 
HETATM   17  C2  UNK     1      20.288  -4.163  14.416  1.00  0.00    -0.035 A 
HETATM   18  C12 UNK     1      20.666  -4.504  15.821  1.00  0.00     0.050 C 
HETATM   19  C8  UNK     1      20.385  -5.153  13.437  1.00  0.00     0.009 A 
HETATM   20  C11 UNK     1      20.040  -4.865  12.117  1.00  0.00     0.001 A 
HETATM   21  C9  UNK     1      19.597  -3.586  11.775  1.00  0.00     0.009 A 
HETATM   22  C3  UNK     1      19.501  -2.597  12.754  1.00  0.00    -0.035 A 
HETATM   23  C13 UNK     1      19.024  -1.238  12.357  1.00  0.00     0.050 C 
ENDBRANCH   2  16
TORSDOF 2
ENDMDL
MODEL 7
REMARK VINA RESULT:      -8.8     19.103     21.325
REMARK  2 active torsions:
REMARK  status: ('A' for Active; 'I' for Inactive)
REMARK    1  A    between atoms: C1_5  and  N1_4 
REMARK       I    between atoms: C6_10  and  N1_4 
REMARK    2  A    between atoms: C4_8  and  C6_10 
ROOT
HETATM    1  O2  UNK     1      17.668  -2.336  16.025  1.00  0.00    -0.267 OA
HETATM    2  N1  UNK     1      19.780  -1.928  15.067  1.00  0.00    -0.322 N 
HETATM    3  C6  UNK     1      18.718  -1.702  15.932  1.00  0.00     0.262 C 
HETATM    4  H1  UNK     1      20.637  -1.396  15.200  1.00  0.00     0.169 HD
ENDROOT
BRANCH   3   5
HETATM    5  C4  UNK     1      18.954  -0.551  16.811  1.00  0.00     0.108 A 
HETATM    6  C14 UNK     1      19.180   0.811  16.277  1.00  0.00     0.304 A 
HETATM    7  O1  UNK     1      19.391   1.821  17.211  1.00  0.00    -0.274 OA
HETATM    8  O3  UNK     1      19.180   1.044  15.073  1.00  0.00    -0.259 OA
HETATM    9  C10 UNK     1      19.390   1.566  18.596  1.00  0.00     0.089 A 
HETATM   10  C5  UNK     1      19.176   0.278  19.077  1.00  0.00    -0.001 A 
HETATM   11  C16 UNK     1      19.611   2.641  19.454  1.00  0.00     0.038 A 
HETATM   12  C15 UNK     1      19.184   0.064  20.457  1.00  0.00     0.014 A 
HETATM   13  C7  UNK     1      18.952  -0.800  18.126  1.00  0.00     0.037 A 
HETATM   14  C17 UNK     1      19.403   1.133  21.329  1.00  0.00     0.001 A 
HETATM   15  C18 UNK     1      19.617   2.419  20.829  1.00  0.00     0.003 A 
ENDBRANCH   3   5
BRANCH   2  16
HETATM   16  C1  UNK     1      19.897  -2.945  14.090  1.00  0.00     0.046 A 
HETATM   17  C2  UNK     1      19.538  -2.673  12.779  1.00  0.00    -0.035 A 
HETATM   18  C12 UNK     1      19.029  -1.331  12.362  1.00  0.00     0.050 C 
HETATM   19  C8  UNK     1      19.652  -3.675  11.815  1.00  0.00     0.009 A 
HETATM   20  C11 UNK     1      20.123  -4.937  12.174  1.00  0.00     0.001 A 
HETATM   21  C9  UNK     1      20.481  -5.198  13.497  1.00  0.00     0.009 A 
HETATM   22  C3  UNK     1      20.367  -4.196  14.460  1.00  0.00    -0.035 A 
HETATM   23  C13 UNK     1      20.758  -4.505  15.869  1.00  0.00     0.050 C 
ENDBRANCH   2  16
TORSDOF 2
ENDMDL
MODEL 8
REMARK VINA RESULT:      -8.6      5.386      7.930
REMARK  2 active torsions:
REMARK  status: ('A' for Active; 'I' for Inactive)
REMARK    1  A    between atoms: C1_5  and  N1_4 
REMARK       I    between atoms: C6_10  and  N1_4 
REMARK    2  A    between atoms: C4_8  and  C6_10 
ROOT
HETATM    1  O2  UNK     1      23.177  -8.782  40.181  1.00  0.00    -0.267 OA
HETATM    2  N1  UNK     1      22.569  -8.145  37.997  1.00  0.00    -0.322 N 
HETATM    3  C6  UNK     1      23.377  -8.184  39.125  1.00  0.00     0.262 C 
HETATM    4  H1  UNK     1      22.933  -7.711  37.152  1.00  0.00     0.169 HD
ENDROOT
BRANCH   3   5
HETATM    5  C4  UNK     1      24.601  -7.391  38.958  1.00  0.00     0.108 A 
HETATM    6  C14 UNK     1      24.571  -5.914  38.855  1.00  0.00     0.304 A 
HETATM    7  O1  UNK     1      25.797  -5.274  38.700  1.00  0.00    -0.274 OA
HETATM    8  O3  UNK     1      23.522  -5.282  38.905  1.00  0.00    -0.259 OA
HETATM    9  C10 UNK     1      27.008  -5.991  38.644  1.00  0.00     0.089 A 
HETATM   10  C5  UNK     1      27.014  -7.379  38.742  1.00  0.00    -0.001 A 
HETATM   11  C16 UNK     1      28.185  -5.262  38.486  1.00  0.00     0.038 A 
HETATM   12  C15 UNK     1      28.235  -8.054  38.682  1.00  0.00     0.014 A 
HETATM   13  C7  UNK     1      25.748  -8.077  38.905  1.00  0.00     0.037 A 
HETATM   14  C17 UNK     1      29.423  -7.337  38.524  1.00  0.00     0.001 A 
HETATM   15  C18 UNK     1      29.399  -5.943  38.427  1.00  0.00     0.003 A 
ENDBRANCH   3   5
BRANCH   2  16
HETATM   16  C1  UNK     1      21.324  -8.790  37.804  1.00  0.00     0.046 A 
HETATM   17  C2  UNK     1      21.264  -9.935  37.025  1.00  0.00    -0.035 A 
HETATM   18  C12 UNK     1      22.480 -10.514  36.378  1.00  0.00     0.050 C 
HETATM   19  C8  UNK     1      20.036 -10.570  36.833  1.00  0.00     0.009 A 
HETATM   20  C11 UNK     1      18.884 -10.053  37.424  1.00  0.00     0.001 A 
HETATM   21  C9  UNK     1      18.958  -8.899  38.207  1.00  0.00     0.009 A 
HETATM   22  C3  UNK     1      20.186  -8.265  38.397  1.00  0.00    -0.035 A 
HETATM   23  C13 UNK     1      20.234  -7.032  39.240  1.00  0.00     0.050 C 
ENDBRANCH   2  16
TORSDOF 2
ENDMDL
MODEL 9
REMARK VINA RESULT:      -8.5      1.562      7.002
REMARK  2 active torsions:
REMARK  status: ('A' for Active; 'I' for Inactive)
REMARK    1  A    between atoms: C1_5  and  N1_4 
REMARK       I    between atoms: C6_10  and  N1_4 
REMARK    2  A    between atoms: C4_8  and  C6_10 
ROOT
HETATM    1  O2  UNK     1      21.250  -2.480  36.166  1.00  0.00    -0.267 OA
HETATM    2  N1  UNK     1      18.923  -2.609  35.828  1.00  0.00    -0.322 N 
HETATM    3  C6  UNK     1      20.190  -3.100  36.114  1.00  0.00     0.262 C 
HETATM    4  H1  UNK     1      18.123  -3.224  35.952  1.00  0.00     0.169 HD
ENDROOT
BRANCH   3   5
HETATM    5  C4  UNK     1      20.177  -4.544  36.379  1.00  0.00     0.108 A 
HETATM    6  C14 UNK     1      20.251  -5.542  35.289  1.00  0.00     0.304 A 
HETATM    7  O1  UNK     1      20.231  -6.882  35.667  1.00  0.00    -0.274 OA
HETATM    8  O3  UNK     1      20.326  -5.211  34.110  1.00  0.00    -0.259 OA
HETATM    9  C10 UNK     1      20.147  -7.273  37.017  1.00  0.00     0.089 A 
HETATM   10  C5  UNK     1      20.078  -6.318  38.026  1.00  0.00    -0.001 A 
HETATM   11  C16 UNK     1      20.134  -8.638  37.296  1.00  0.00     0.038 A 
HETATM   12  C15 UNK     1      19.995  -6.745  39.354  1.00  0.00     0.014 A 
HETATM   13  C7  UNK     1      20.097  -4.909  37.664  1.00  0.00     0.037 A 
HETATM   14  C17 UNK     1      19.981  -8.110  39.649  1.00  0.00     0.001 A 
HETATM   15  C18 UNK     1      20.050  -9.055  38.623  1.00  0.00     0.003 A 
ENDBRANCH   3   5
BRANCH   2  16
HETATM   16  C1  UNK     1      18.563  -1.273  35.527  1.00  0.00     0.046 A 
HETATM   17  C2  UNK     1      18.703  -0.807  34.229  1.00  0.00    -0.035 A 
HETATM   18  C12 UNK     1      19.226  -1.675  33.130  1.00  0.00     0.050 C 
HETATM   19  C8  UNK     1      18.350   0.510  33.931  1.00  0.00     0.009 A 
HETATM   20  C11 UNK     1      17.859   1.344  34.936  1.00  0.00     0.001 A 
HETATM   21  C9  UNK     1      17.723   0.862  36.238  1.00  0.00     0.009 A 
HETATM   22  C3  UNK     1      18.077  -0.454  36.535  1.00  0.00    -0.035 A 
HETATM   23  C13 UNK     1      17.920  -0.942  37.939  1.00  0.00     0.050 C 
ENDBRANCH   2  16
TORSDOF 2
ENDMDL
MODEL 10
REMARK VINA RESULT:      -8.5      1.563      6.986
REMARK  2 active torsions:
REMARK  status: ('A' for Active; 'I' for Inactive)
REMARK    1  A    between atoms: C1_5  and  N1_4 
REMARK       I    between atoms: C6_10  and  N1_4 
REMARK    2  A    between atoms: C4_8  and  C6_10 
ROOT
HETATM    1  O2  UNK     1      21.246  -2.469  36.170  1.00  0.00    -0.267 OA
HETATM    2  N1  UNK     1      18.921  -2.603  35.820  1.00  0.00    -0.322 N 
HETATM    3  C6  UNK     1      20.187  -3.092  36.113  1.00  0.00     0.262 C 
HETATM    4  H1  UNK     1      18.121  -3.220  35.941  1.00  0.00     0.169 HD
ENDROOT
BRANCH   3   5
HETATM    5  C4  UNK     1      20.176  -4.535  36.378  1.00  0.00     0.108 A 
HETATM    6  C14 UNK     1      20.252  -5.534  35.289  1.00  0.00     0.304 A 
HETATM    7  O1  UNK     1      20.234  -6.874  35.667  1.00  0.00    -0.274 OA
HETATM    8  O3  UNK     1      20.328  -5.204  34.110  1.00  0.00    -0.259 OA
HETATM    9  C10 UNK     1      20.149  -7.264  37.017  1.00  0.00     0.089 A 
HETATM   10  C5  UNK     1      20.078  -6.309  38.026  1.00  0.00    -0.001 A 
HETATM   11  C16 UNK     1      20.137  -8.629  37.297  1.00  0.00     0.038 A 
HETATM   12  C15 UNK     1      19.994  -6.736  39.353  1.00  0.00     0.014 A 
HETATM   13  C7  UNK     1      20.095  -4.900  37.663  1.00  0.00     0.037 A 
HETATM   14  C17 UNK     1      19.981  -8.101  39.650  1.00  0.00     0.001 A 
HETATM   15  C18 UNK     1      20.053  -9.046  38.624  1.00  0.00     0.003 A 
ENDBRANCH   3   5
BRANCH   2  16
HETATM   16  C1  UNK     1      18.560  -1.268  35.517  1.00  0.00     0.046 A 
HETATM   17  C2  UNK     1      18.071  -0.450  36.523  1.00  0.00    -0.035 A 
HETATM   18  C12 UNK     1      17.913  -0.936  37.928  1.00  0.00     0.050 C 
HETATM   19  C8  UNK     1      17.714   0.865  36.225  1.00  0.00     0.009 A 
HETATM   20  C11 UNK     1      17.850   1.346  34.923  1.00  0.00     0.001 A 
HETATM   21  C9  UNK     1      18.344   0.512  33.919  1.00  0.00     0.009 A 
HETATM   22  C3  UNK     1      18.701  -0.802  34.218  1.00  0.00    -0.035 A 
HETATM   23  C13 UNK     1      19.226  -1.671  33.122  1.00  0.00     0.050 C 
ENDBRANCH   2  16
TORSDOF 2
ENDMDL
