MODEL 1
REMARK VINA RESULT:      -8.3      0.000      0.000
REMARK  7 active torsions:
REMARK  status: ('A' for Active; 'I' for Inactive)
REMARK    1  A    between atoms: C10_19  and  O2_5 
REMARK    2  A    between atoms: C16_25  and  O3_6 
REMARK    3  A    between atoms: C18_27  and  O3_6 
REMARK    4  A    between atoms: C23_32  and  O5_8 
REMARK    5  A    between atoms: C7_16  and  N1_9 
REMARK    6  A    between atoms: C7_16  and  C8_17 
REMARK    7  A    between atoms: C15_24  and  C17_26 
ROOT
HETATM    1  O1  UNK     1      31.069  -7.499  37.012  1.00  0.00    -0.301 OA
HETATM    2  O4  UNK     1      27.217  -8.616  36.299  1.00  0.00    -0.284 OA
HETATM    3  C8  UNK     1      30.360  -5.714  38.384  1.00  0.00     0.038 A 
HETATM    4  C9  UNK     1      30.035  -6.798  37.578  1.00  0.00     0.101 A 
HETATM    5  C10 UNK     1      29.362  -4.958  38.988  1.00  0.00     0.076 A 
HETATM    6  C11 UNK     1      28.697  -7.128  37.373  1.00  0.00     0.052 A 
HETATM    7  C12 UNK     1      28.022  -5.290  38.783  1.00  0.00     0.038 A 
HETATM    8  C13 UNK     1      27.685  -6.376  37.975  1.00  0.00     0.021 A 
HETATM    9  C14 UNK     1      28.373  -8.278  36.517  1.00  0.00     0.221 A 
HETATM   10  C15 UNK     1      30.771  -8.586  36.202  1.00  0.00     0.197 A 
HETATM   11  C16 UNK     1      29.523  -9.004  35.931  1.00  0.00     0.165 A 
ENDROOT
BRANCH  11  12
HETATM   12  O3  UNK     1      29.265 -10.089  35.121  1.00  0.00    -0.304 OA
BRANCH  12  13
HETATM   13  C18 UNK     1      29.270  -9.869  33.772  1.00  0.00     0.076 A 
HETATM   14  C19 UNK     1      29.897 -10.779  32.925  1.00  0.00     0.040 A 
HETATM   15  C21 UNK     1      29.902 -10.554  31.549  1.00  0.00     0.039 A 
HETATM   16  C23 UNK     1      29.280  -9.421  31.025  1.00  0.00     0.068 A 
HETATM   17  C22 UNK     1      28.653  -8.512  31.877  1.00  0.00     0.039 A 
HETATM   18  C20 UNK     1      28.648  -8.737  33.254  1.00  0.00     0.040 A 
BRANCH  16  19
HETATM   19  O5  UNK     1      29.285  -9.202  29.681  1.00  0.00    -0.356 OA
HETATM   20  C24 UNK     1      29.731  -7.923  29.232  1.00  0.00     0.210 C 
ENDBRANCH  16  19
ENDBRANCH  12  13
ENDBRANCH  11  12
BRANCH  10  21
HETATM   21  C17 UNK     1      32.002  -9.251  35.660  1.00  0.00     0.442 C 
HETATM   22  F1  UNK     1      33.096  -8.874  36.352  1.00  0.00    -0.164 F 
HETATM   23  F2  UNK     1      31.901 -10.592  35.742  1.00  0.00    -0.164 F 
HETATM   24  F3  UNK     1      32.198  -8.927  34.366  1.00  0.00    -0.164 F 
ENDBRANCH  10  21
BRANCH   3  25
HETATM   25  C7  UNK     1      31.802  -5.349  38.612  1.00  0.00     0.316 C 
BRANCH  25  26
HETATM   26  N1  UNK     1      32.585  -5.419  37.376  1.00  0.00     0.092 N 
HETATM   27  C1  UNK     1      33.953  -5.853  37.678  1.00  0.00     0.272 C 
HETATM   28  C3  UNK     1      34.992  -5.732  36.559  1.00  0.00     0.030 C 
HETATM   29  C5  UNK     1      34.472  -6.075  35.166  1.00  0.00     0.002 C 
HETATM   30  C6  UNK     1      33.798  -4.882  34.494  1.00  0.00     0.002 C 
HETATM   31  C4  UNK     1      32.474  -4.447  35.116  1.00  0.00     0.030 C 
HETATM   32  C2  UNK     1      32.502  -4.167  36.621  1.00  0.00     0.272 C 
ENDBRANCH  25  26
ENDBRANCH   3  25
BRANCH   5  33
HETATM   33  O2  UNK     1      29.667  -3.893  39.782  1.00  0.00    -0.360 OA
HETATM   34  H17 UNK     1      29.743  -3.095  39.229  1.00  0.00     0.217 HD
ENDBRANCH   5  33
TORSDOF 7
ENDMDL
MODEL 2
REMARK VINA RESULT:      -8.2      2.881      3.930
REMARK  7 active torsions:
REMARK  status: ('A' for Active; 'I' for Inactive)
REMARK    1  A    between atoms: C10_19  and  O2_5 
REMARK    2  A    between atoms: C16_25  and  O3_6 
REMARK    3  A    between atoms: C18_27  and  O3_6 
REMARK    4  A    between atoms: C23_32  and  O5_8 
REMARK    5  A    between atoms: C7_16  and  N1_9 
REMARK    6  A    between atoms: C7_16  and  C8_17 
REMARK    7  A    between atoms: C15_24  and  C17_26 
ROOT
HETATM    1  O1  UNK     1      31.546  -5.912  34.507  1.00  0.00    -0.301 OA
HETATM    2  O4  UNK     1      28.360  -7.942  36.031  1.00  0.00    -0.284 OA
HETATM    3  C8  UNK     1      32.908  -6.571  36.318  1.00  0.00     0.038 A 
HETATM    4  C9  UNK     1      31.671  -6.602  35.685  1.00  0.00     0.101 A 
HETATM    5  C10 UNK     1      33.106  -7.247  37.516  1.00  0.00     0.076 A 
HETATM    6  C11 UNK     1      30.622  -7.315  36.259  1.00  0.00     0.052 A 
HETATM    7  C12 UNK     1      32.054  -7.961  38.090  1.00  0.00     0.038 A 
HETATM    8  C13 UNK     1      30.807  -7.998  37.464  1.00  0.00     0.021 A 
HETATM    9  C14 UNK     1      29.321  -7.335  35.576  1.00  0.00     0.221 A 
HETATM   10  C15 UNK     1      30.321  -5.927  33.854  1.00  0.00     0.197 A 
HETATM   11  C16 UNK     1      29.235  -6.578  34.305  1.00  0.00     0.165 A 
ENDROOT
BRANCH  11  12
HETATM   12  O3  UNK     1      28.033  -6.570  33.631  1.00  0.00    -0.304 OA
BRANCH  12  13
HETATM   13  C18 UNK     1      27.967  -7.302  32.478  1.00  0.00     0.076 A 
HETATM   14  C19 UNK     1      27.197  -6.845  31.412  1.00  0.00     0.040 A 
HETATM   15  C21 UNK     1      27.129  -7.591  30.236  1.00  0.00     0.039 A 
HETATM   16  C23 UNK     1      27.831  -8.793  30.130  1.00  0.00     0.068 A 
HETATM   17  C22 UNK     1      28.601  -9.247  31.202  1.00  0.00     0.039 A 
HETATM   18  C20 UNK     1      28.669  -8.500  32.377  1.00  0.00     0.040 A 
BRANCH  16  19
HETATM   19  O5  UNK     1      27.765  -9.521  28.982  1.00  0.00    -0.356 OA
HETATM   20  C24 UNK     1      29.002  -9.919  28.393  1.00  0.00     0.210 C 
ENDBRANCH  16  19
ENDBRANCH  12  13
ENDBRANCH  11  12
BRANCH  10  21
HETATM   21  C17 UNK     1      30.340  -5.132  32.582  1.00  0.00     0.442 C 
HETATM   22  F1  UNK     1      29.135  -4.578  32.344  1.00  0.00    -0.164 F 
HETATM   23  F2  UNK     1      31.248  -4.139  32.648  1.00  0.00    -0.164 F 
HETATM   24  F3  UNK     1      30.653  -5.913  31.528  1.00  0.00    -0.164 F 
ENDBRANCH  10  21
BRANCH   3  25
HETATM   25  C7  UNK     1      34.050  -5.804  35.706  1.00  0.00     0.316 C 
BRANCH  25  26
HETATM   26  N1  UNK     1      34.846  -6.638  34.804  1.00  0.00     0.092 N 
HETATM   27  C1  UNK     1      36.226  -6.726  35.296  1.00  0.00     0.272 C 
HETATM   28  C3  UNK     1      37.270  -7.331  34.353  1.00  0.00     0.030 C 
HETATM   29  C5  UNK     1      36.777  -8.517  33.529  1.00  0.00     0.002 C 
HETATM   30  C6  UNK     1      36.069  -8.073  32.252  1.00  0.00     0.002 C 
HETATM   31  C4  UNK     1      34.725  -7.381  32.459  1.00  0.00     0.030 C 
HETATM   32  C2  UNK     1      34.729  -6.186  33.416  1.00  0.00     0.272 C 
ENDBRANCH  25  26
ENDBRANCH   3  25
BRANCH   5  33
HETATM   33  O2  UNK     1      34.314  -7.225  38.147  1.00  0.00    -0.360 OA
HETATM   34  H17 UNK     1      34.268  -7.783  38.943  1.00  0.00     0.217 HD
ENDBRANCH   5  33
TORSDOF 7
ENDMDL
MODEL 3
REMARK VINA RESULT:      -8.1     12.164     14.429
REMARK  7 active torsions:
REMARK  status: ('A' for Active; 'I' for Inactive)
REMARK    1  A    between atoms: C10_19  and  O2_5 
REMARK    2  A    between atoms: C16_25  and  O3_6 
REMARK    3  A    between atoms: C18_27  and  O3_6 
REMARK    4  A    between atoms: C23_32  and  O5_8 
REMARK    5  A    between atoms: C7_16  and  N1_9 
REMARK    6  A    between atoms: C7_16  and  C8_17 
REMARK    7  A    between atoms: C15_24  and  C17_26 
ROOT
HETATM    1  O1  UNK     1      19.833  -1.648  34.057  1.00  0.00    -0.301 OA
HETATM    2  O4  UNK     1      16.755   1.014  33.892  1.00  0.00    -0.284 OA
HETATM    3  C8  UNK     1      19.482  -2.002  36.364  1.00  0.00     0.038 A 
HETATM    4  C9  UNK     1      19.114  -1.359  35.188  1.00  0.00     0.101 A 
HETATM    5  C10 UNK     1      18.799  -1.755  37.549  1.00  0.00     0.076 A 
HETATM    6  C11 UNK     1      18.052  -0.458  35.199  1.00  0.00     0.052 A 
HETATM    7  C12 UNK     1      17.734  -0.853  37.558  1.00  0.00     0.038 A 
HETATM    8  C13 UNK     1      17.357  -0.201  36.383  1.00  0.00     0.021 A 
HETATM    9  C14 UNK     1      17.678   0.212  33.946  1.00  0.00     0.221 A 
HETATM   10  C15 UNK     1      19.486  -1.020  32.869  1.00  0.00     0.197 A 
HETATM   11  C16 UNK     1      18.481  -0.135  32.751  1.00  0.00     0.165 A 
ENDROOT
BRANCH  11  12
HETATM   12  O3  UNK     1      18.165   0.471  31.554  1.00  0.00    -0.304 OA
BRANCH  12  13
HETATM   13  C18 UNK     1      18.397   1.814  31.460  1.00  0.00     0.076 A 
HETATM   14  C19 UNK     1      18.275   2.618  32.591  1.00  0.00     0.040 A 
HETATM   15  C21 UNK     1      18.512   3.989  32.495  1.00  0.00     0.039 A 
HETATM   16  C23 UNK     1      18.872   4.551  31.269  1.00  0.00     0.068 A 
HETATM   17  C22 UNK     1      18.993   3.742  30.140  1.00  0.00     0.039 A 
HETATM   18  C20 UNK     1      18.756   2.371  30.236  1.00  0.00     0.040 A 
BRANCH  16  19
HETATM   19  O5  UNK     1      19.104   5.889  31.176  1.00  0.00    -0.356 OA
HETATM   20  C24 UNK     1      19.600   6.546  32.341  1.00  0.00     0.210 C 
ENDBRANCH  16  19
ENDBRANCH  12  13
ENDBRANCH  11  12
BRANCH  10  21
HETATM   21  C17 UNK     1      20.359  -1.439  31.723  1.00  0.00     0.442 C 
HETATM   22  F1  UNK     1      21.342  -2.260  32.142  1.00  0.00    -0.164 F 
HETATM   23  F2  UNK     1      19.643  -2.093  30.787  1.00  0.00    -0.164 F 
HETATM   24  F3  UNK     1      20.933  -0.370  31.135  1.00  0.00    -0.164 F 
ENDBRANCH  10  21
BRANCH   3  25
HETATM   25  C7  UNK     1      20.629  -2.977  36.363  1.00  0.00     0.316 C 
BRANCH  25  26
HETATM   26  N1  UNK     1      20.263  -4.250  36.989  1.00  0.00     0.092 N 
HETATM   27  C1  UNK     1      21.400  -4.771  37.757  1.00  0.00     0.272 C 
HETATM   28  C3  UNK     1      21.302  -6.214  38.263  1.00  0.00     0.030 C 
HETATM   29  C5  UNK     1      19.918  -6.627  38.752  1.00  0.00     0.002 C 
HETATM   30  C6  UNK     1      19.024  -7.104  37.610  1.00  0.00     0.002 C 
HETATM   31  C4  UNK     1      18.590  -6.020  36.627  1.00  0.00     0.030 C 
HETATM   32  C2  UNK     1      19.717  -5.189  36.008  1.00  0.00     0.272 C 
ENDBRANCH  25  26
ENDBRANCH   3  25
BRANCH   5  33
HETATM   33  O2  UNK     1      19.149  -2.379  38.708  1.00  0.00    -0.360 OA
HETATM   34  H17 UNK     1      18.519  -2.129  39.407  1.00  0.00     0.217 HD
ENDBRANCH   5  33
TORSDOF 7
ENDMDL
MODEL 4
REMARK VINA RESULT:      -8.1     18.763     21.295
REMARK  7 active torsions:
REMARK  status: ('A' for Active; 'I' for Inactive)
REMARK    1  A    between atoms: C10_19  and  O2_5 
REMARK    2  A    between atoms: C16_25  and  O3_6 
REMARK    3  A    between atoms: C18_27  and  O3_6 
REMARK    4  A    between atoms: C23_32  and  O5_8 
REMARK    5  A    between atoms: C7_16  and  N1_9 
REMARK    6  A    between atoms: C7_16  and  C8_17 
REMARK    7  A    between atoms: C15_24  and  C17_26 
ROOT
HETATM    1  O1  UNK     1      17.076   6.751  32.168  1.00  0.00    -0.301 OA
HETATM    2  O4  UNK     1      18.716   8.529  35.446  1.00  0.00    -0.284 OA
HETATM    3  C8  UNK     1      19.200   6.063  31.405  1.00  0.00     0.038 A 
HETATM    4  C9  UNK     1      18.433   6.717  32.361  1.00  0.00     0.101 A 
HETATM    5  C10 UNK     1      20.582   5.991  31.536  1.00  0.00     0.076 A 
HETATM    6  C11 UNK     1      19.055   7.305  33.459  1.00  0.00     0.052 A 
HETATM    7  C12 UNK     1      21.205   6.580  32.637  1.00  0.00     0.038 A 
HETATM    8  C13 UNK     1      20.444   7.240  33.603  1.00  0.00     0.021 A 
HETATM    9  C14 UNK     1      18.227   7.992  34.461  1.00  0.00     0.221 A 
HETATM   10  C15 UNK     1      16.286   7.397  33.109  1.00  0.00     0.197 A 
HETATM   11  C16 UNK     1      16.767   8.000  34.210  1.00  0.00     0.165 A 
ENDROOT
BRANCH  11  12
HETATM   12  O3  UNK     1      15.953   8.633  35.124  1.00  0.00    -0.304 OA
BRANCH  12  13
HETATM   13  C18 UNK     1      15.572   9.913  34.830  1.00  0.00     0.076 A 
HETATM   14  C19 UNK     1      16.508  10.817  34.335  1.00  0.00     0.040 A 
HETATM   15  C21 UNK     1      16.119  12.122  34.035  1.00  0.00     0.039 A 
HETATM   16  C23 UNK     1      14.795  12.519  34.231  1.00  0.00     0.068 A 
HETATM   17  C22 UNK     1      13.861  11.609  34.728  1.00  0.00     0.039 A 
HETATM   18  C20 UNK     1      14.250  10.304  35.027  1.00  0.00     0.040 A 
BRANCH  16  19
HETATM   19  O5  UNK     1      14.416  13.793  33.938  1.00  0.00    -0.356 OA
HETATM   20  C24 UNK     1      14.379  14.160  32.560  1.00  0.00     0.210 C 
ENDBRANCH  16  19
ENDBRANCH  12  13
ENDBRANCH  11  12
BRANCH  10  21
HETATM   21  C17 UNK     1      14.827   7.349  32.763  1.00  0.00     0.442 C 
HETATM   22  F1  UNK     1      14.593   6.441  31.795  1.00  0.00    -0.164 F 
HETATM   23  F2  UNK     1      14.088   7.010  33.838  1.00  0.00    -0.164 F 
HETATM   24  F3  UNK     1      14.394   8.547  32.322  1.00  0.00    -0.164 F 
ENDBRANCH  10  21
BRANCH   3  25
HETATM   25  C7  UNK     1      18.538   5.424  30.214  1.00  0.00     0.316 C 
BRANCH  25  26
HETATM   26  N1  UNK     1      18.719   3.970  30.204  1.00  0.00     0.092 N 
HETATM   27  C1  UNK     1      18.309   3.428  28.904  1.00  0.00     0.272 C 
HETATM   28  C3  UNK     1      18.174   1.906  28.790  1.00  0.00     0.030 C 
HETATM   29  C5  UNK     1      19.238   1.112  29.541  1.00  0.00     0.002 C 
HETATM   30  C6  UNK     1      18.870   0.905  31.009  1.00  0.00     0.002 C 
HETATM   31  C4  UNK     1      18.893   2.165  31.869  1.00  0.00     0.030 C 
HETATM   32  C2  UNK     1      18.063   3.343  31.353  1.00  0.00     0.272 C 
ENDBRANCH  25  26
ENDBRANCH   3  25
BRANCH   5  33
HETATM   33  O2  UNK     1      21.346   5.353  30.605  1.00  0.00    -0.360 OA
HETATM   34  H17 UNK     1      21.133   5.705  29.723  1.00  0.00     0.217 HD
ENDBRANCH   5  33
TORSDOF 7
ENDMDL
MODEL 5
REMARK VINA RESULT:      -7.9      1.916      2.790
REMARK  7 active torsions:
REMARK  status: ('A' for Active; 'I' for Inactive)
REMARK    1  A    between atoms: C10_19  and  O2_5 
REMARK    2  A    between atoms: C16_25  and  O3_6 
REMARK    3  A    between atoms: C18_27  and  O3_6 
REMARK    4  A    between atoms: C23_32  and  O5_8 
REMARK    5  A    between atoms: C7_16  and  N1_9 
REMARK    6  A    between atoms: C7_16  and  C8_17 
REMARK    7  A    between atoms: C15_24  and  C17_26 
ROOT
HETATM    1  O1  UNK     1      30.021  -5.912  35.536  1.00  0.00    -0.301 OA
HETATM    2  O4  UNK     1      27.287  -8.830  36.309  1.00  0.00    -0.284 OA
HETATM    3  C8  UNK     1      29.754  -5.006  37.699  1.00  0.00     0.038 A 
HETATM    4  C9  UNK     1      29.407  -5.970  36.760  1.00  0.00     0.101 A 
HETATM    5  C10 UNK     1      29.170  -5.003  38.960  1.00  0.00     0.076 A 
HETATM    6  C11 UNK     1      28.464  -6.941  37.087  1.00  0.00     0.052 A 
HETATM    7  C12 UNK     1      28.226  -5.978  39.287  1.00  0.00     0.038 A 
HETATM    8  C13 UNK     1      27.869  -6.950  38.352  1.00  0.00     0.021 A 
HETATM    9  C14 UNK     1      28.109  -7.953  36.082  1.00  0.00     0.221 A 
HETATM   10  C15 UNK     1      29.692  -6.863  34.580  1.00  0.00     0.197 A 
HETATM   11  C16 UNK     1      28.800  -7.850  34.776  1.00  0.00     0.165 A 
ENDROOT
BRANCH  11  12
HETATM   12  O3  UNK     1      28.498  -8.778  33.803  1.00  0.00    -0.304 OA
BRANCH  12  13
HETATM   13  C18 UNK     1      29.352  -9.837  33.672  1.00  0.00     0.076 A 
HETATM   14  C19 UNK     1      30.168 -10.205  34.739  1.00  0.00     0.040 A 
HETATM   15  C21 UNK     1      31.040 -11.285  34.605  1.00  0.00     0.039 A 
HETATM   16  C23 UNK     1      31.093 -11.994  33.404  1.00  0.00     0.068 A 
HETATM   17  C22 UNK     1      30.274 -11.622  32.338  1.00  0.00     0.039 A 
HETATM   18  C20 UNK     1      29.402 -10.542  32.472  1.00  0.00     0.040 A 
BRANCH  16  19
HETATM   19  O5  UNK     1      31.943 -13.049  33.274  1.00  0.00    -0.356 OA
HETATM   20  C24 UNK     1      31.361 -14.349  33.206  1.00  0.00     0.210 C 
ENDBRANCH  16  19
ENDBRANCH  12  13
ENDBRANCH  11  12
BRANCH  10  21
HETATM   21  C17 UNK     1      30.445  -6.672  33.297  1.00  0.00     0.442 C 
HETATM   22  F1  UNK     1      31.450  -7.564  33.192  1.00  0.00    -0.164 F 
HETATM   23  F2  UNK     1      29.634  -6.833  32.233  1.00  0.00    -0.164 F 
HETATM   24  F3  UNK     1      30.980  -5.436  33.229  1.00  0.00    -0.164 F 
ENDBRANCH  10  21
BRANCH   3  25
HETATM   25  C7  UNK     1      30.773  -3.952  37.356  1.00  0.00     0.316 C 
BRANCH  25  26
HETATM   26  N1  UNK     1      32.015  -4.537  36.848  1.00  0.00     0.092 N 
HETATM   27  C1  UNK     1      32.703  -5.257  37.926  1.00  0.00     0.272 C 
HETATM   28  C3  UNK     1      34.142  -5.710  37.661  1.00  0.00     0.030 C 
HETATM   29  C5  UNK     1      34.401  -6.217  36.246  1.00  0.00     0.002 C 
HETATM   30  C6  UNK     1      34.718  -5.081  35.277  1.00  0.00     0.002 C 
HETATM   31  C4  UNK     1      33.550  -4.151  34.962  1.00  0.00     0.030 C 
HETATM   32  C2  UNK     1      32.839  -3.535  36.170  1.00  0.00     0.272 C 
ENDBRANCH  25  26
ENDBRANCH   3  25
BRANCH   5  33
HETATM   33  O2  UNK     1      29.502  -4.064  39.889  1.00  0.00    -0.360 OA
HETATM   34  H17 UNK     1      29.966  -4.497  40.628  1.00  0.00     0.217 HD
ENDBRANCH   5  33
TORSDOF 7
ENDMDL
MODEL 6
REMARK VINA RESULT:      -7.9     33.278     35.793
REMARK  7 active torsions:
REMARK  status: ('A' for Active; 'I' for Inactive)
REMARK    1  A    between atoms: C10_19  and  O2_5 
REMARK    2  A    between atoms: C16_25  and  O3_6 
REMARK    3  A    between atoms: C18_27  and  O3_6 
REMARK    4  A    between atoms: C23_32  and  O5_8 
REMARK    5  A    between atoms: C7_16  and  N1_9 
REMARK    6  A    between atoms: C7_16  and  C8_17 
REMARK    7  A    between atoms: C15_24  and  C17_26 
ROOT
HETATM    1  O1  UNK     1      13.877   8.966  10.234  1.00  0.00    -0.301 OA
HETATM    2  O4  UNK     1      17.869   8.207   9.963  1.00  0.00    -0.284 OA
HETATM    3  C8  UNK     1      13.356   6.714   9.757  1.00  0.00     0.038 A 
HETATM    4  C9  UNK     1      14.317   7.700   9.948  1.00  0.00     0.101 A 
HETATM    5  C10 UNK     1      13.730   5.409   9.462  1.00  0.00     0.076 A 
HETATM    6  C11 UNK     1      15.667   7.375   9.841  1.00  0.00     0.052 A 
HETATM    7  C12 UNK     1      15.083   5.084   9.356  1.00  0.00     0.038 A 
HETATM    8  C13 UNK     1      16.057   6.066   9.545  1.00  0.00     0.021 A 
HETATM    9  C14 UNK     1      16.669   8.430  10.046  1.00  0.00     0.221 A 
HETATM   10  C15 UNK     1      14.816   9.969  10.430  1.00  0.00     0.197 A 
HETATM   11  C16 UNK     1      16.145   9.781  10.355  1.00  0.00     0.165 A 
ENDROOT
BRANCH  11  12
HETATM   12  O3  UNK     1      17.050  10.801  10.555  1.00  0.00    -0.304 OA
BRANCH  12  13
HETATM   13  C18 UNK     1      17.678  11.296   9.446  1.00  0.00     0.076 A 
HETATM   14  C19 UNK     1      16.951  11.513   8.278  1.00  0.00     0.040 A 
HETATM   15  C21 UNK     1      17.591  12.019   7.148  1.00  0.00     0.039 A 
HETATM   16  C23 UNK     1      18.956  12.306   7.189  1.00  0.00     0.068 A 
HETATM   17  C22 UNK     1      19.680  12.087   8.361  1.00  0.00     0.039 A 
HETATM   18  C20 UNK     1      19.039  11.581   9.491  1.00  0.00     0.040 A 
BRANCH  16  19
HETATM   19  O5  UNK     1      19.582  12.800   6.085  1.00  0.00    -0.356 OA
HETATM   20  C24 UNK     1      18.840  13.703   5.267  1.00  0.00     0.210 C 
ENDBRANCH  16  19
ENDBRANCH  12  13
ENDBRANCH  11  12
BRANCH  10  21
HETATM   21  C17 UNK     1      14.184  11.295  10.736  1.00  0.00     0.442 C 
HETATM   22  F1  UNK     1      14.278  12.127   9.681  1.00  0.00    -0.164 F 
HETATM   23  F2  UNK     1      12.879  11.148  11.035  1.00  0.00    -0.164 F 
HETATM   24  F3  UNK     1      14.787  11.887  11.787  1.00  0.00    -0.164 F 
ENDBRANCH  10  21
BRANCH   3  25
HETATM   25  C7  UNK     1      11.894   7.055   9.871  1.00  0.00     0.316 C 
BRANCH  25  26
HETATM   26  N1  UNK     1      11.156   6.708   8.654  1.00  0.00     0.092 N 
HETATM   27  C1  UNK     1      11.820   7.298   7.486  1.00  0.00     0.272 C 
HETATM   28  C3  UNK     1      11.057   7.271   6.157  1.00  0.00     0.030 C 
HETATM   29  C5  UNK     1      10.263   5.994   5.902  1.00  0.00     0.002 C 
HETATM   30  C6  UNK     1       8.881   6.039   6.547  1.00  0.00     0.002 C 
HETATM   31  C4  UNK     1       8.872   5.997   8.072  1.00  0.00     0.030 C 
HETATM   32  C2  UNK     1       9.737   7.045   8.776  1.00  0.00     0.272 C 
ENDBRANCH  25  26
ENDBRANCH   3  25
BRANCH   5  33
HETATM   33  O2  UNK     1      12.798   4.433   9.273  1.00  0.00    -0.360 OA
HETATM   34  H17 UNK     1      11.955   4.845   9.010  1.00  0.00     0.217 HD
ENDBRANCH   5  33
TORSDOF 7
ENDMDL
MODEL 7
REMARK VINA RESULT:      -7.8     19.941     21.707
REMARK  7 active torsions:
REMARK  status: ('A' for Active; 'I' for Inactive)
REMARK    1  A    between atoms: C10_19  and  O2_5 
REMARK    2  A    between atoms: C16_25  and  O3_6 
REMARK    3  A    between atoms: C18_27  and  O3_6 
REMARK    4  A    between atoms: C23_32  and  O5_8 
REMARK    5  A    between atoms: C7_16  and  N1_9 
REMARK    6  A    between atoms: C7_16  and  C8_17 
REMARK    7  A    between atoms: C15_24  and  C17_26 
ROOT
HETATM    1  O1  UNK     1      17.895   9.928  34.278  1.00  0.00    -0.301 OA
HETATM    2  O4  UNK     1      15.903   6.601  33.031  1.00  0.00    -0.284 OA
HETATM    3  C8  UNK     1      15.969  11.262  33.991  1.00  0.00     0.038 A 
HETATM    4  C9  UNK     1      16.575  10.013  33.915  1.00  0.00     0.101 A 
HETATM    5  C10 UNK     1      14.634  11.422  33.637  1.00  0.00     0.076 A 
HETATM    6  C11 UNK     1      15.839   8.915  33.480  1.00  0.00     0.052 A 
HETATM    7  C12 UNK     1      13.897  10.320  33.202  1.00  0.00     0.038 A 
HETATM    8  C13 UNK     1      14.496   9.062  33.121  1.00  0.00     0.021 A 
HETATM    9  C14 UNK     1      16.497   7.603  33.406  1.00  0.00     0.221 A 
HETATM   10  C15 UNK     1      18.524   8.693  34.212  1.00  0.00     0.197 A 
HETATM   11  C16 UNK     1      17.921   7.560  33.811  1.00  0.00     0.165 A 
ENDROOT
BRANCH  11  12
HETATM   12  O3  UNK     1      18.578   6.350  33.757  1.00  0.00    -0.304 OA
BRANCH  12  13
HETATM   13  C18 UNK     1      18.599   5.711  32.550  1.00  0.00     0.076 A 
HETATM   14  C19 UNK     1      19.044   6.386  31.416  1.00  0.00     0.040 A 
HETATM   15  C21 UNK     1      19.065   5.734  30.184  1.00  0.00     0.039 A 
HETATM   16  C23 UNK     1      18.641   4.408  30.090  1.00  0.00     0.068 A 
HETATM   17  C22 UNK     1      18.196   3.735  31.228  1.00  0.00     0.039 A 
HETATM   18  C20 UNK     1      18.175   4.388  32.460  1.00  0.00     0.040 A 
BRANCH  16  19
HETATM   19  O5  UNK     1      18.662   3.770  28.887  1.00  0.00    -0.356 OA
HETATM   20  C24 UNK     1      18.202   2.421  28.858  1.00  0.00     0.210 C 
ENDBRANCH  16  19
ENDBRANCH  12  13
ENDBRANCH  11  12
BRANCH  10  21
HETATM   21  C17 UNK     1      19.960   8.758  34.641  1.00  0.00     0.442 C 
HETATM   22  F1  UNK     1      20.350  10.035  34.825  1.00  0.00    -0.164 F 
HETATM   23  F2  UNK     1      20.147   8.096  35.800  1.00  0.00    -0.164 F 
HETATM   24  F3  UNK     1      20.769   8.207  33.713  1.00  0.00    -0.164 F 
ENDBRANCH  10  21
BRANCH   3  25
HETATM   25  C7  UNK     1      16.756  12.456  34.460  1.00  0.00     0.316 C 
BRANCH  25  26
HETATM   26  N1  UNK     1      17.083  13.362  33.357  1.00  0.00     0.092 N 
HETATM   27  C1  UNK     1      18.537  13.411  33.168  1.00  0.00     0.272 C 
HETATM   28  C3  UNK     1      19.089  14.499  32.242  1.00  0.00     0.030 C 
HETATM   29  C5  UNK     1      18.243  14.772  31.002  1.00  0.00     0.002 C 
HETATM   30  C6  UNK     1      17.116  15.762  31.283  1.00  0.00     0.002 C 
HETATM   31  C4  UNK     1      16.005  15.244  32.191  1.00  0.00     0.030 C 
HETATM   32  C2  UNK     1      16.454  14.671  33.538  1.00  0.00     0.272 C 
ENDBRANCH  25  26
ENDBRANCH   3  25
BRANCH   5  33
HETATM   33  O2  UNK     1      14.028  12.640  33.707  1.00  0.00    -0.360 OA
HETATM   34  H17 UNK     1      14.584  13.243  34.230  1.00  0.00     0.217 HD
ENDBRANCH   5  33
TORSDOF 7
ENDMDL
MODEL 8
REMARK VINA RESULT:      -7.8      2.747      6.965
REMARK  7 active torsions:
REMARK  status: ('A' for Active; 'I' for Inactive)
REMARK    1  A    between atoms: C10_19  and  O2_5 
REMARK    2  A    between atoms: C16_25  and  O3_6 
REMARK    3  A    between atoms: C18_27  and  O3_6 
REMARK    4  A    between atoms: C23_32  and  O5_8 
REMARK    5  A    between atoms: C7_16  and  N1_9 
REMARK    6  A    between atoms: C7_16  and  C8_17 
REMARK    7  A    between atoms: C15_24  and  C17_26 
ROOT
HETATM    1  O1  UNK     1      32.987  -8.997  34.792  1.00  0.00    -0.301 OA
HETATM    2  O4  UNK     1      34.489  -6.511  37.648  1.00  0.00    -0.284 OA
HETATM    3  C8  UNK     1      34.645  -8.327  33.252  1.00  0.00     0.038 A 
HETATM    4  C9  UNK     1      34.086  -8.224  34.520  1.00  0.00     0.101 A 
HETATM    5  C10 UNK     1      35.759  -7.571  32.907  1.00  0.00     0.076 A 
HETATM    6  C11 UNK     1      34.647  -7.354  35.452  1.00  0.00     0.052 A 
HETATM    7  C12 UNK     1      36.322  -6.701  33.842  1.00  0.00     0.038 A 
HETATM    8  C13 UNK     1      35.767  -6.588  35.118  1.00  0.00     0.021 A 
HETATM    9  C14 UNK     1      34.042  -7.258  36.788  1.00  0.00     0.221 A 
HETATM   10  C15 UNK     1      32.409  -8.913  36.051  1.00  0.00     0.197 A 
HETATM   11  C16 UNK     1      32.859  -8.114  37.035  1.00  0.00     0.165 A 
ENDROOT
BRANCH  11  12
HETATM   12  O3  UNK     1      32.259  -8.056  38.274  1.00  0.00    -0.304 OA
BRANCH  12  13
HETATM   13  C18 UNK     1      31.210  -7.191  38.413  1.00  0.00     0.076 A 
HETATM   14  C19 UNK     1      29.933  -7.688  38.664  1.00  0.00     0.040 A 
HETATM   15  C21 UNK     1      28.862  -6.806  38.806  1.00  0.00     0.039 A 
HETATM   16  C23 UNK     1      29.072  -5.430  38.698  1.00  0.00     0.068 A 
HETATM   17  C22 UNK     1      30.353  -4.938  38.446  1.00  0.00     0.039 A 
HETATM   18  C20 UNK     1      31.423  -5.820  38.304  1.00  0.00     0.040 A 
BRANCH  16  19
HETATM   19  O5  UNK     1      28.027  -4.569  38.837  1.00  0.00    -0.356 OA
HETATM   20  C24 UNK     1      26.715  -5.113  38.705  1.00  0.00     0.210 C 
ENDBRANCH  16  19
ENDBRANCH  12  13
ENDBRANCH  11  12
BRANCH  10  21
HETATM   21  C17 UNK     1      31.221  -9.817  36.199  1.00  0.00     0.442 C 
HETATM   22  F1  UNK     1      31.246 -10.798  35.275  1.00  0.00    -0.164 F 
HETATM   23  F2  UNK     1      31.202 -10.394  37.416  1.00  0.00    -0.164 F 
HETATM   24  F3  UNK     1      30.069  -9.133  36.045  1.00  0.00    -0.164 F 
ENDBRANCH  10  21
BRANCH   3  25
HETATM   25  C7  UNK     1      34.046  -9.264  32.238  1.00  0.00     0.316 C 
BRANCH  25  26
HETATM   26  N1  UNK     1      33.050  -8.595  31.398  1.00  0.00     0.092 N 
HETATM   27  C1  UNK     1      31.736  -9.219  31.593  1.00  0.00     0.272 C 
HETATM   28  C3  UNK     1      30.625  -8.836  30.610  1.00  0.00     0.030 C 
HETATM   29  C5  UNK     1      30.615  -7.367  30.199  1.00  0.00     0.002 C 
HETATM   30  C6  UNK     1      31.563  -7.090  29.034  1.00  0.00     0.002 C 
HETATM   31  C4  UNK     1      33.048  -7.212  29.361  1.00  0.00     0.030 C 
HETATM   32  C2  UNK     1      33.486  -8.531  30.002  1.00  0.00     0.272 C 
ENDBRANCH  25  26
ENDBRANCH   3  25
BRANCH   5  33
HETATM   33  O2  UNK     1      36.317  -7.664  31.668  1.00  0.00    -0.360 OA
HETATM   34  H17 UNK     1      36.854  -8.475  31.619  1.00  0.00     0.217 HD
ENDBRANCH   5  33
TORSDOF 7
ENDMDL
MODEL 9
REMARK VINA RESULT:      -7.8      3.930      6.657
REMARK  7 active torsions:
REMARK  status: ('A' for Active; 'I' for Inactive)
REMARK    1  A    between atoms: C10_19  and  O2_5 
REMARK    2  A    between atoms: C16_25  and  O3_6 
REMARK    3  A    between atoms: C18_27  and  O3_6 
REMARK    4  A    between atoms: C23_32  and  O5_8 
REMARK    5  A    between atoms: C7_16  and  N1_9 
REMARK    6  A    between atoms: C7_16  and  C8_17 
REMARK    7  A    between atoms: C15_24  and  C17_26 
ROOT
HETATM    1  O1  UNK     1      28.013  -8.138  36.515  1.00  0.00    -0.301 OA
HETATM    2  O4  UNK     1      26.470  -6.016  39.630  1.00  0.00    -0.284 OA
HETATM    3  C8  UNK     1      29.677  -6.505  36.148  1.00  0.00     0.038 A 
HETATM    4  C9  UNK     1      28.579  -6.944  36.879  1.00  0.00     0.101 A 
HETATM    5  C10 UNK     1      30.300  -5.303  36.461  1.00  0.00     0.076 A 
HETATM    6  C11 UNK     1      28.100  -6.171  37.933  1.00  0.00     0.052 A 
HETATM    7  C12 UNK     1      29.819  -4.529  37.519  1.00  0.00     0.038 A 
HETATM    8  C13 UNK     1      28.717  -4.960  38.259  1.00  0.00     0.021 A 
HETATM    9  C14 UNK     1      26.938  -6.651  38.695  1.00  0.00     0.221 A 
HETATM   10  C15 UNK     1      26.916  -8.600  37.229  1.00  0.00     0.197 A 
HETATM   11  C16 UNK     1      26.363  -7.947  38.265  1.00  0.00     0.165 A 
ENDROOT
BRANCH  11  12
HETATM   12  O3  UNK     1      25.272  -8.435  38.952  1.00  0.00    -0.304 OA
BRANCH  12  13
HETATM   13  C18 UNK     1      24.049  -7.928  38.610  1.00  0.00     0.076 A 
HETATM   14  C19 UNK     1      23.297  -8.547  37.615  1.00  0.00     0.040 A 
HETATM   15  C21 UNK     1      22.050  -8.030  37.267  1.00  0.00     0.039 A 
HETATM   16  C23 UNK     1      21.558  -6.896  37.916  1.00  0.00     0.068 A 
HETATM   17  C22 UNK     1      22.316  -6.280  38.912  1.00  0.00     0.039 A 
HETATM   18  C20 UNK     1      23.563  -6.797  39.260  1.00  0.00     0.040 A 
BRANCH  16  19
HETATM   19  O5  UNK     1      20.340  -6.392  37.576  1.00  0.00    -0.356 OA
HETATM   20  C24 UNK     1      19.192  -7.116  38.014  1.00  0.00     0.210 C 
ENDBRANCH  16  19
ENDBRANCH  12  13
ENDBRANCH  11  12
BRANCH  10  21
HETATM   21  C17 UNK     1      26.410  -9.916  36.716  1.00  0.00     0.442 C 
HETATM   22  F1  UNK     1      27.185 -10.369  35.711  1.00  0.00    -0.164 F 
HETATM   23  F2  UNK     1      26.410 -10.845  37.692  1.00  0.00    -0.164 F 
HETATM   24  F3  UNK     1      25.151  -9.803  36.249  1.00  0.00    -0.164 F 
ENDBRANCH  10  21
BRANCH   3  25
HETATM   25  C7  UNK     1      30.203  -7.333  35.007  1.00  0.00     0.316 C 
BRANCH  25  26
HETATM   26  N1  UNK     1      29.481  -7.068  33.761  1.00  0.00     0.092 N 
HETATM   27  C1  UNK     1      28.923  -8.319  33.234  1.00  0.00     0.272 C 
HETATM   28  C3  UNK     1      28.363  -8.292  31.809  1.00  0.00     0.030 C 
HETATM   29  C5  UNK     1      27.610  -7.017  31.442  1.00  0.00     0.002 C 
HETATM   30  C6  UNK     1      28.549  -5.915  30.956  1.00  0.00     0.002 C 
HETATM   31  C4  UNK     1      29.467  -5.325  32.022  1.00  0.00     0.030 C 
HETATM   32  C2  UNK     1      30.312  -6.330  32.809  1.00  0.00     0.272 C 
ENDBRANCH  25  26
ENDBRANCH   3  25
BRANCH   5  33
HETATM   33  O2  UNK     1      31.377  -4.861  35.753  1.00  0.00    -0.360 OA
HETATM   34  H17 UNK     1      31.077  -4.546  34.882  1.00  0.00     0.217 HD
ENDBRANCH   5  33
TORSDOF 7
ENDMDL
MODEL 10
REMARK VINA RESULT:      -7.7      4.715      8.619
REMARK  7 active torsions:
REMARK  status: ('A' for Active; 'I' for Inactive)
REMARK    1  A    between atoms: C10_19  and  O2_5 
REMARK    2  A    between atoms: C16_25  and  O3_6 
REMARK    3  A    between atoms: C18_27  and  O3_6 
REMARK    4  A    between atoms: C23_32  and  O5_8 
REMARK    5  A    between atoms: C7_16  and  N1_9 
REMARK    6  A    between atoms: C7_16  and  C8_17 
REMARK    7  A    between atoms: C15_24  and  C17_26 
ROOT
HETATM    1  O1  UNK     1      32.682  -9.676  29.999  1.00  0.00    -0.301 OA
HETATM    2  O4  UNK     1      34.604 -12.057  32.687  1.00  0.00    -0.284 OA
HETATM    3  C8  UNK     1      30.935 -11.246  29.768  1.00  0.00     0.038 A 
HETATM    4  C9  UNK     1      32.140 -10.884  30.356  1.00  0.00     0.101 A 
HETATM    5  C10 UNK     1      30.329 -12.457  30.083  1.00  0.00     0.076 A 
HETATM    6  C11 UNK     1      32.747 -11.744  31.268  1.00  0.00     0.052 A 
HETATM    7  C12 UNK     1      30.938 -13.317  30.997  1.00  0.00     0.038 A 
HETATM    8  C13 UNK     1      32.149 -12.964  31.594  1.00  0.00     0.021 A 
HETATM    9  C14 UNK     1      34.022 -11.344  31.881  1.00  0.00     0.221 A 
HETATM   10  C15 UNK     1      33.885  -9.290  30.572  1.00  0.00     0.197 A 
HETATM   11  C16 UNK     1      34.566 -10.030  31.465  1.00  0.00     0.165 A 
ENDROOT
BRANCH  11  12
HETATM   12  O3  UNK     1      35.760  -9.615  32.014  1.00  0.00    -0.304 OA
BRANCH  12  13
HETATM   13  C18 UNK     1      35.687  -8.748  33.068  1.00  0.00     0.076 A 
HETATM   14  C19 UNK     1      36.778  -7.937  33.373  1.00  0.00     0.040 A 
HETATM   15  C21 UNK     1      36.703  -7.052  34.448  1.00  0.00     0.039 A 
HETATM   16  C23 UNK     1      35.539  -6.980  35.213  1.00  0.00     0.068 A 
HETATM   17  C22 UNK     1      34.449  -7.794  34.903  1.00  0.00     0.039 A 
HETATM   18  C20 UNK     1      34.523  -8.679  33.829  1.00  0.00     0.040 A 
BRANCH  16  19
HETATM   19  O5  UNK     1      35.466  -6.115  36.263  1.00  0.00    -0.356 OA
HETATM   20  C24 UNK     1      34.469  -6.373  37.250  1.00  0.00     0.210 C 
ENDBRANCH  16  19
ENDBRANCH  12  13
ENDBRANCH  11  12
BRANCH  10  21
HETATM   21  C17 UNK     1      34.348  -7.949  30.086  1.00  0.00     0.442 C 
HETATM   22  F1  UNK     1      34.257  -7.026  31.063  1.00  0.00    -0.164 F 
HETATM   23  F2  UNK     1      35.633  -8.000  29.682  1.00  0.00    -0.164 F 
HETATM   24  F3  UNK     1      33.602  -7.526  29.046  1.00  0.00    -0.164 F 
ENDBRANCH  10  21
BRANCH   3  25
HETATM   25  C7  UNK     1      30.270 -10.324  28.780  1.00  0.00     0.316 C 
BRANCH  25  26
HETATM   26  N1  UNK     1      29.649  -9.174  29.440  1.00  0.00     0.092 N 
HETATM   27  C1  UNK     1      28.201  -9.385  29.549  1.00  0.00     0.272 C 
HETATM   28  C3  UNK     1      27.346  -8.185  29.968  1.00  0.00     0.030 C 
HETATM   29  C5  UNK     1      27.974  -7.294  31.035  1.00  0.00     0.002 C 
HETATM   30  C6  UNK     1      28.912  -6.252  30.433  1.00  0.00     0.002 C 
HETATM   31  C4  UNK     1      30.200  -6.805  29.829  1.00  0.00     0.030 C 
HETATM   32  C2  UNK     1      30.028  -7.917  28.791  1.00  0.00     0.272 C 
ENDBRANCH  25  26
ENDBRANCH   3  25
BRANCH   5  33
HETATM   33  O2  UNK     1      29.147 -12.823  29.513  1.00  0.00    -0.360 OA
HETATM   34  H17 UNK     1      28.865 -13.678  29.885  1.00  0.00     0.217 HD
ENDBRANCH   5  33
TORSDOF 7
ENDMDL
