MODEL 1
REMARK VINA RESULT:      -9.1      0.000      0.000
REMARK  2 active torsions:
REMARK  status: ('A' for Active; 'I' for Inactive)
REMARK       I    between atoms: C6_11  and  N1_5 
REMARK    1  A    between atoms: C9_14  and  N1_5 
REMARK    2  A    between atoms: C2_7  and  C6_11 
ROOT
HETATM    1  O1  UNK     1      19.131   1.358  28.753  1.00  0.00    -0.274 OA
HETATM    2  O3  UNK     1      18.339   3.496  28.911  1.00  0.00    -0.259 OA
HETATM    3  C1  UNK     1      19.577   0.091  30.780  1.00  0.00    -0.001 A 
HETATM    4  C2  UNK     1      18.738   2.358  30.951  1.00  0.00     0.108 A 
HETATM    5  C3  UNK     1      19.561   0.178  29.392  1.00  0.00     0.089 A 
HETATM    6  C4  UNK     1      19.145   1.239  31.562  1.00  0.00     0.037 A 
HETATM    7  C5  UNK     1      20.010  -1.096  31.376  1.00  0.00     0.014 A 
HETATM    8  C7  UNK     1      18.711   2.472  29.475  1.00  0.00     0.304 A 
HETATM    9  C8  UNK     1      19.963  -0.884  28.584  1.00  0.00     0.038 A 
HETATM   10  C10 UNK     1      20.416  -2.170  30.579  1.00  0.00     0.001 A 
HETATM   11  C11 UNK     1      20.392  -2.064  29.186  1.00  0.00     0.003 A 
ENDROOT
BRANCH   4  12
HETATM   12  C6  UNK     1      18.321   3.460  31.825  1.00  0.00     0.262 C 
HETATM   13  O2  UNK     1      17.632   3.220  32.816  1.00  0.00    -0.267 OA
HETATM   14  N1  UNK     1      18.793   4.685  31.376  1.00  0.00    -0.323 N 
HETATM   15  H4  UNK     1      19.374   4.712  30.541  1.00  0.00     0.169 HD
BRANCH  14  16
HETATM   16  C9  UNK     1      18.574   5.926  31.981  1.00  0.00     0.035 A 
HETATM   17  C12 UNK     1      17.417   6.645  31.688  1.00  0.00     0.031 A 
HETATM   18  C14 UNK     1      17.198   7.884  32.292  1.00  0.00     0.021 A 
HETATM   19  C16 UNK     1      18.135   8.399  33.187  1.00  0.00     0.011 A 
HETATM   20 Br1  UNK     1      17.838  10.078  34.005  1.00  0.00    -0.051 Br
HETATM   21  C15 UNK     1      19.291   7.676  33.479  1.00  0.00     0.021 A 
HETATM   22  C13 UNK     1      19.511   6.439  32.876  1.00  0.00     0.031 A 
ENDBRANCH  14  16
ENDBRANCH   4  12
TORSDOF 2
ENDMDL
MODEL 2
REMARK VINA RESULT:      -8.9      8.374     11.620
REMARK  2 active torsions:
REMARK  status: ('A' for Active; 'I' for Inactive)
REMARK       I    between atoms: C6_11  and  N1_5 
REMARK    1  A    between atoms: C9_14  and  N1_5 
REMARK    2  A    between atoms: C2_7  and  C6_11 
ROOT
HETATM    1  O1  UNK     1      19.453  -0.922  34.670  1.00  0.00    -0.274 OA
HETATM    2  O3  UNK     1      20.594  -2.810  34.070  1.00  0.00    -0.259 OA
HETATM    3  C1  UNK     1      18.471  -0.769  36.889  1.00  0.00    -0.001 A 
HETATM    4  C2  UNK     1      19.679  -2.772  36.255  1.00  0.00     0.108 A 
HETATM    5  C3  UNK     1      18.719  -0.212  35.639  1.00  0.00     0.089 A 
HETATM    6  C4  UNK     1      18.982  -2.100  37.179  1.00  0.00     0.037 A 
HETATM    7  C5  UNK     1      17.738  -0.033  37.823  1.00  0.00     0.014 A 
HETATM    8  C7  UNK     1      19.956  -2.197  34.919  1.00  0.00     0.304 A 
HETATM    9  C8  UNK     1      18.257   1.058  35.297  1.00  0.00     0.038 A 
HETATM   10  C10 UNK     1      17.268   1.242  37.494  1.00  0.00     0.001 A 
HETATM   11  C11 UNK     1      17.527   1.786  36.234  1.00  0.00     0.003 A 
ENDROOT
BRANCH   4  12
HETATM   12  C6  UNK     1      20.153  -4.106  36.642  1.00  0.00     0.262 C 
HETATM   13  O2  UNK     1      21.283  -4.235  37.111  1.00  0.00    -0.267 OA
HETATM   14  N1  UNK     1      19.197  -5.084  36.407  1.00  0.00    -0.323 N 
HETATM   15  H4  UNK     1      18.293  -4.808  36.029  1.00  0.00     0.169 HD
BRANCH  14  16
HETATM   16  C9  UNK     1      19.334  -6.450  36.665  1.00  0.00     0.035 A 
HETATM   17  C12 UNK     1      19.973  -7.271  35.737  1.00  0.00     0.031 A 
HETATM   18  C14 UNK     1      20.110  -8.635  35.995  1.00  0.00     0.021 A 
HETATM   19  C16 UNK     1      19.609  -9.176  37.179  1.00  0.00     0.011 A 
HETATM   20 Br1  UNK     1      19.794 -11.024  37.527  1.00  0.00    -0.051 Br
HETATM   21  C15 UNK     1      18.971  -8.352  38.105  1.00  0.00     0.021 A 
HETATM   22  C13 UNK     1      18.833  -6.988  37.848  1.00  0.00     0.031 A 
ENDBRANCH  14  16
ENDBRANCH   4  12
TORSDOF 2
ENDMDL
MODEL 3
REMARK VINA RESULT:      -8.6      1.460      2.268
REMARK  2 active torsions:
REMARK  status: ('A' for Active; 'I' for Inactive)
REMARK       I    between atoms: C6_11  and  N1_5 
REMARK    1  A    between atoms: C9_14  and  N1_5 
REMARK    2  A    between atoms: C2_7  and  C6_11 
ROOT
HETATM    1  O1  UNK     1      18.692   0.425  32.695  1.00  0.00    -0.274 OA
HETATM    2  O3  UNK     1      17.838   2.253  33.768  1.00  0.00    -0.259 OA
HETATM    3  C1  UNK     1      19.545   0.654  30.430  1.00  0.00    -0.001 A 
HETATM    4  C2  UNK     1      18.639   2.594  31.565  1.00  0.00     0.108 A 
HETATM    5  C3  UNK     1      19.282  -0.134  31.545  1.00  0.00     0.089 A 
HETATM    6  C4  UNK     1      19.200   2.067  30.470  1.00  0.00     0.037 A 
HETATM    7  C5  UNK     1      20.131   0.063  29.308  1.00  0.00     0.014 A 
HETATM    8  C7  UNK     1      18.351   1.774  32.763  1.00  0.00     0.304 A 
HETATM    9  C8  UNK     1      19.587  -1.494  31.571  1.00  0.00     0.038 A 
HETATM   10  C10 UNK     1      20.443  -1.300  29.319  1.00  0.00     0.001 A 
HETATM   11  C11 UNK     1      20.172  -2.076  30.449  1.00  0.00     0.003 A 
ENDROOT
BRANCH   4  12
HETATM   12  C6  UNK     1      18.327   4.027  31.509  1.00  0.00     0.262 C 
HETATM   13  O2  UNK     1      18.511   4.647  30.462  1.00  0.00    -0.267 OA
HETATM   14  N1  UNK     1      17.842   4.499  32.720  1.00  0.00    -0.323 N 
HETATM   15  H4  UNK     1      17.728   3.847  33.493  1.00  0.00     0.169 HD
BRANCH  14  16
HETATM   16  C9  UNK     1      17.454   5.813  32.997  1.00  0.00     0.035 A 
HETATM   17  C12 UNK     1      16.340   6.356  32.361  1.00  0.00     0.031 A 
HETATM   18  C14 UNK     1      15.953   7.668  32.638  1.00  0.00     0.021 A 
HETATM   19  C16 UNK     1      16.679   8.432  33.551  1.00  0.00     0.011 A 
HETATM   20 Br1  UNK     1      16.154  10.209  33.925  1.00  0.00    -0.051 Br
HETATM   21  C15 UNK     1      17.793   7.885  34.186  1.00  0.00     0.021 A 
HETATM   22  C13 UNK     1      18.181   6.575  33.910  1.00  0.00     0.031 A 
ENDBRANCH  14  16
ENDBRANCH   4  12
TORSDOF 2
ENDMDL
MODEL 4
REMARK VINA RESULT:      -8.5      8.595     10.481
REMARK  2 active torsions:
REMARK  status: ('A' for Active; 'I' for Inactive)
REMARK       I    between atoms: C6_11  and  N1_5 
REMARK    1  A    between atoms: C9_14  and  N1_5 
REMARK    2  A    between atoms: C2_7  and  C6_11 
ROOT
HETATM    1  O1  UNK     1      20.097  -8.128  35.645  1.00  0.00    -0.274 OA
HETATM    2  O3  UNK     1      20.342  -6.165  34.500  1.00  0.00    -0.259 OA
HETATM    3  C1  UNK     1      19.863  -8.084  38.064  1.00  0.00    -0.001 A 
HETATM    4  C2  UNK     1      20.124  -6.001  36.853  1.00  0.00     0.108 A 
HETATM    5  C3  UNK     1      19.932  -8.798  36.873  1.00  0.00     0.089 A 
HETATM    6  C4  UNK     1      19.966  -6.633  38.022  1.00  0.00     0.037 A 
HETATM    7  C5  UNK     1      19.699  -8.785  39.262  1.00  0.00     0.014 A 
HETATM    8  C7  UNK     1      20.198  -6.741  35.573  1.00  0.00     0.304 A 
HETATM    9  C8  UNK     1      19.842 -10.188  36.843  1.00  0.00     0.038 A 
HETATM   10  C10 UNK     1      19.607 -10.179  39.248  1.00  0.00     0.001 A 
HETATM   11  C11 UNK     1      19.678 -10.879  38.041  1.00  0.00     0.003 A 
ENDROOT
BRANCH   4  12
HETATM   12  C6  UNK     1      20.216  -4.538  36.914  1.00  0.00     0.262 C 
HETATM   13  O2  UNK     1      21.285  -4.011  37.222  1.00  0.00    -0.267 OA
HETATM   14  N1  UNK     1      19.012  -3.929  36.596  1.00  0.00    -0.323 N 
HETATM   15  H4  UNK     1      18.217  -4.512  36.340  1.00  0.00     0.169 HD
BRANCH  14  16
HETATM   16  C9  UNK     1      18.767  -2.553  36.560  1.00  0.00     0.035 A 
HETATM   17  C12 UNK     1      18.114  -1.937  37.627  1.00  0.00     0.031 A 
HETATM   18  C14 UNK     1      17.869  -0.564  37.592  1.00  0.00     0.021 A 
HETATM   19  C16 UNK     1      18.278   0.190  36.492  1.00  0.00     0.011 A 
HETATM   20 Br1  UNK     1      17.947   2.051  36.445  1.00  0.00    -0.051 Br
HETATM   21  C15 UNK     1      18.932  -0.429  35.427  1.00  0.00     0.021 A 
HETATM   22  C13 UNK     1      19.176  -1.801  35.461  1.00  0.00     0.031 A 
ENDBRANCH  14  16
ENDBRANCH   4  12
TORSDOF 2
ENDMDL
MODEL 5
REMARK VINA RESULT:      -8.3     14.447     15.980
REMARK  2 active torsions:
REMARK  status: ('A' for Active; 'I' for Inactive)
REMARK       I    between atoms: C6_11  and  N1_5 
REMARK    1  A    between atoms: C9_14  and  N1_5 
REMARK    2  A    between atoms: C2_7  and  C6_11 
ROOT
HETATM    1  O1  UNK     1      27.993  -4.764  38.676  1.00  0.00    -0.274 OA
HETATM    2  O3  UNK     1      25.740  -5.066  38.910  1.00  0.00    -0.259 OA
HETATM    3  C1  UNK     1      29.457  -6.701  38.551  1.00  0.00    -0.001 A 
HETATM    4  C2  UNK     1      27.068  -7.025  38.800  1.00  0.00     0.108 A 
HETATM    5  C3  UNK     1      29.281  -5.321  38.552  1.00  0.00     0.089 A 
HETATM    6  C4  UNK     1      28.290  -7.559  38.682  1.00  0.00     0.037 A 
HETATM    7  C5  UNK     1      30.750  -7.216  38.426  1.00  0.00     0.014 A 
HETATM    8  C7  UNK     1      26.857  -5.560  38.802  1.00  0.00     0.304 A 
HETATM    9  C8  UNK     1      30.356  -4.443  38.432  1.00  0.00     0.038 A 
HETATM   10  C10 UNK     1      31.839  -6.348  38.305  1.00  0.00     0.001 A 
HETATM   11  C11 UNK     1      31.642  -4.965  38.307  1.00  0.00     0.003 A 
ENDROOT
BRANCH   4  12
HETATM   12  C6  UNK     1      25.955  -7.972  38.926  1.00  0.00     0.262 C 
HETATM   13  O2  UNK     1      26.161  -9.091  39.394  1.00  0.00    -0.267 OA
HETATM   14  N1  UNK     1      24.761  -7.433  38.470  1.00  0.00    -0.323 N 
HETATM   15  H4  UNK     1      24.753  -6.474  38.127  1.00  0.00     0.169 HD
BRANCH  14  16
HETATM   16  C9  UNK     1      23.519  -8.073  38.452  1.00  0.00     0.035 A 
HETATM   17  C12 UNK     1      22.725  -8.077  39.597  1.00  0.00     0.031 A 
HETATM   18  C14 UNK     1      21.485  -8.716  39.580  1.00  0.00     0.021 A 
HETATM   19  C16 UNK     1      21.042  -9.349  38.418  1.00  0.00     0.011 A 
HETATM   20 Br1  UNK     1      19.362 -10.216  38.396  1.00  0.00    -0.051 Br
HETATM   21  C15 UNK     1      21.839  -9.343  37.274  1.00  0.00     0.021 A 
HETATM   22  C13 UNK     1      23.079  -8.705  37.291  1.00  0.00     0.031 A 
ENDBRANCH  14  16
ENDBRANCH   4  12
TORSDOF 2
ENDMDL
MODEL 6
REMARK VINA RESULT:      -8.2     14.624     18.077
REMARK  2 active torsions:
REMARK  status: ('A' for Active; 'I' for Inactive)
REMARK       I    between atoms: C6_11  and  N1_5 
REMARK    1  A    between atoms: C9_14  and  N1_5 
REMARK    2  A    between atoms: C2_7  and  C6_11 
ROOT
HETATM    1  O1  UNK     1      19.314   1.181  15.643  1.00  0.00    -0.274 OA
HETATM    2  O3  UNK     1      19.425  -0.289  13.896  1.00  0.00    -0.259 OA
HETATM    3  C1  UNK     1      18.870   0.349  17.883  1.00  0.00    -0.001 A 
HETATM    4  C2  UNK     1      18.987  -1.212  16.034  1.00  0.00     0.108 A 
HETATM    5  C3  UNK     1      19.122   1.409  17.019  1.00  0.00     0.089 A 
HETATM    6  C4  UNK     1      18.806  -1.000  17.342  1.00  0.00     0.037 A 
HETATM    7  C5  UNK     1      18.686   0.616  19.243  1.00  0.00     0.014 A 
HETATM    8  C7  UNK     1      19.258  -0.099  15.096  1.00  0.00     0.304 A 
HETATM    9  C8  UNK     1      19.196   2.725  17.472  1.00  0.00     0.038 A 
HETATM   10  C10 UNK     1      18.757   1.931  19.712  1.00  0.00     0.001 A 
HETATM   11  C11 UNK     1      19.011   2.983  18.829  1.00  0.00     0.003 A 
ENDROOT
BRANCH   4  12
HETATM   12  C6  UNK     1      18.904  -2.606  15.584  1.00  0.00     0.262 C 
HETATM   13  O2  UNK     1      17.865  -3.240  15.765  1.00  0.00    -0.267 OA
HETATM   14  N1  UNK     1      20.082  -3.029  14.985  1.00  0.00    -0.323 N 
HETATM   15  H4  UNK     1      20.852  -2.369  14.893  1.00  0.00     0.169 HD
BRANCH  14  16
HETATM   16  C9  UNK     1      20.327  -4.297  14.452  1.00  0.00     0.035 A 
HETATM   17  C12 UNK     1      20.833  -5.307  15.269  1.00  0.00     0.031 A 
HETATM   18  C14 UNK     1      21.079  -6.573  14.737  1.00  0.00     0.021 A 
HETATM   19  C16 UNK     1      20.817  -6.827  13.391  1.00  0.00     0.011 A 
HETATM   20 Br1  UNK     1      21.150  -8.543  12.671  1.00  0.00    -0.051 Br
HETATM   21  C15 UNK     1      20.310  -5.815  12.577  1.00  0.00     0.021 A 
HETATM   22  C13 UNK     1      20.065  -4.549  13.108  1.00  0.00     0.031 A 
ENDBRANCH  14  16
ENDBRANCH   4  12
TORSDOF 2
ENDMDL
MODEL 7
REMARK VINA RESULT:      -8.0      6.361      9.212
REMARK  2 active torsions:
REMARK  status: ('A' for Active; 'I' for Inactive)
REMARK       I    between atoms: C6_11  and  N1_5 
REMARK    1  A    between atoms: C9_14  and  N1_5 
REMARK    2  A    between atoms: C2_7  and  C6_11 
ROOT
HETATM    1  O1  UNK     1      18.726   0.554  32.699  1.00  0.00    -0.274 OA
HETATM    2  O3  UNK     1      18.144   0.500  34.909  1.00  0.00    -0.259 OA
HETATM    3  C1  UNK     1      19.874  -1.349  31.714  1.00  0.00    -0.001 A 
HETATM    4  C2  UNK     1      19.259  -1.409  34.058  1.00  0.00     0.108 A 
HETATM    5  C3  UNK     1      19.323  -0.079  31.591  1.00  0.00     0.089 A 
HETATM    6  C4  UNK     1      19.826  -2.015  33.007  1.00  0.00     0.037 A 
HETATM    7  C5  UNK     1      20.456  -1.944  30.592  1.00  0.00     0.014 A 
HETATM    8  C7  UNK     1      18.665  -0.058  33.949  1.00  0.00     0.304 A 
HETATM    9  C8  UNK     1      19.336   0.614  30.382  1.00  0.00     0.038 A 
HETATM   10  C10 UNK     1      20.478  -1.262  29.372  1.00  0.00     0.001 A 
HETATM   11  C11 UNK     1      19.919   0.014  29.267  1.00  0.00     0.003 A 
ENDROOT
BRANCH   4  12
HETATM   12  C6  UNK     1      19.260  -2.161  35.318  1.00  0.00     0.262 C 
HETATM   13  O2  UNK     1      18.838  -1.625  36.343  1.00  0.00    -0.267 OA
HETATM   14  N1  UNK     1      19.766  -3.442  35.158  1.00  0.00    -0.323 N 
HETATM   15  H4  UNK     1      20.057  -3.744  34.230  1.00  0.00     0.169 HD
BRANCH  14  16
HETATM   16  C9  UNK     1      19.902  -4.407  36.159  1.00  0.00     0.035 A 
HETATM   17  C12 UNK     1      20.894  -4.268  37.127  1.00  0.00     0.031 A 
HETATM   18  C14 UNK     1      21.030  -5.231  38.127  1.00  0.00     0.021 A 
HETATM   19  C16 UNK     1      20.172  -6.331  38.158  1.00  0.00     0.011 A 
HETATM   20 Br1  UNK     1      20.355  -7.636  39.513  1.00  0.00    -0.051 Br
HETATM   21  C15 UNK     1      19.179  -6.467  37.188  1.00  0.00     0.021 A 
HETATM   22  C13 UNK     1      19.044  -5.505  36.188  1.00  0.00     0.031 A 
ENDBRANCH  14  16
ENDBRANCH   4  12
TORSDOF 2
ENDMDL
MODEL 8
REMARK VINA RESULT:      -7.9      3.474      8.246
REMARK  2 active torsions:
REMARK  status: ('A' for Active; 'I' for Inactive)
REMARK       I    between atoms: C6_11  and  N1_5 
REMARK    1  A    between atoms: C9_14  and  N1_5 
REMARK    2  A    between atoms: C2_7  and  C6_11 
ROOT
HETATM    1  O1  UNK     1      17.759   7.466  34.589  1.00  0.00    -0.274 OA
HETATM    2  O3  UNK     1      19.554   6.094  34.243  1.00  0.00    -0.259 OA
HETATM    3  C1  UNK     1      16.022   7.619  32.895  1.00  0.00    -0.001 A 
HETATM    4  C2  UNK     1      17.924   6.164  32.524  1.00  0.00     0.108 A 
HETATM    5  C3  UNK     1      16.538   7.997  34.130  1.00  0.00     0.089 A 
HETATM    6  C4  UNK     1      16.764   6.666  32.084  1.00  0.00     0.037 A 
HETATM    7  C5  UNK     1      14.808   8.168  32.475  1.00  0.00     0.014 A 
HETATM    8  C7  UNK     1      18.491   6.551  33.836  1.00  0.00     0.304 A 
HETATM    9  C8  UNK     1      15.878   8.906  34.955  1.00  0.00     0.038 A 
HETATM   10  C10 UNK     1      14.134   9.081  33.291  1.00  0.00     0.001 A 
HETATM   11  C11 UNK     1      14.668   9.449  34.528  1.00  0.00     0.003 A 
ENDROOT
BRANCH   4  12
HETATM   12  C6  UNK     1      18.597   5.210  31.636  1.00  0.00     0.262 C 
HETATM   13  O2  UNK     1      19.556   5.584  30.961  1.00  0.00    -0.267 OA
HETATM   14  N1  UNK     1      18.017   3.952  31.691  1.00  0.00    -0.323 N 
HETATM   15  H4  UNK     1      17.234   3.798  32.323  1.00  0.00     0.169 HD
BRANCH  14  16
HETATM   16  C9  UNK     1      18.420   2.824  30.970  1.00  0.00     0.035 A 
HETATM   17  C12 UNK     1      19.017   1.753  31.633  1.00  0.00     0.031 A 
HETATM   18  C14 UNK     1      19.419   0.628  30.913  1.00  0.00     0.021 A 
HETATM   19  C16 UNK     1      19.224   0.576  29.533  1.00  0.00     0.011 A 
HETATM   20 Br1  UNK     1      19.770  -0.949  28.558  1.00  0.00    -0.051 Br
HETATM   21  C15 UNK     1      18.626   1.649  28.873  1.00  0.00     0.021 A 
HETATM   22  C13 UNK     1      18.225   2.774  29.591  1.00  0.00     0.031 A 
ENDBRANCH  14  16
ENDBRANCH   4  12
TORSDOF 2
ENDMDL
MODEL 9
REMARK VINA RESULT:      -7.9      8.421     10.434
REMARK  2 active torsions:
REMARK  status: ('A' for Active; 'I' for Inactive)
REMARK       I    between atoms: C6_11  and  N1_5 
REMARK    1  A    between atoms: C9_14  and  N1_5 
REMARK    2  A    between atoms: C2_7  and  C6_11 
ROOT
HETATM    1  O1  UNK     1      18.717  -8.203  36.960  1.00  0.00    -0.274 OA
HETATM    2  O3  UNK     1      17.579  -6.243  37.258  1.00  0.00    -0.259 OA
HETATM    3  C1  UNK     1      21.138  -8.163  36.750  1.00  0.00    -0.001 A 
HETATM    4  C2  UNK     1      19.935  -6.084  37.065  1.00  0.00     0.108 A 
HETATM    5  C3  UNK     1      19.943  -8.873  36.784  1.00  0.00     0.089 A 
HETATM    6  C4  UNK     1      21.102  -6.717  36.898  1.00  0.00     0.037 A 
HETATM    7  C5  UNK     1      22.334  -8.864  36.574  1.00  0.00     0.014 A 
HETATM    8  C7  UNK     1      18.650  -6.819  37.105  1.00  0.00     0.304 A 
HETATM    9  C8  UNK     1      19.907 -10.259  36.647  1.00  0.00     0.038 A 
HETATM   10  C10 UNK     1      22.315 -10.255  36.435  1.00  0.00     0.001 A 
HETATM   11  C11 UNK     1      21.104 -10.951  36.472  1.00  0.00     0.003 A 
ENDROOT
BRANCH   4  12
HETATM   12  C6  UNK     1      20.001  -4.625  37.205  1.00  0.00     0.262 C 
HETATM   13  O2  UNK     1      20.933  -4.118  37.829  1.00  0.00    -0.267 OA
HETATM   14  N1  UNK     1      18.938  -3.994  36.576  1.00  0.00    -0.323 N 
HETATM   15  H4  UNK     1      18.254  -4.561  36.079  1.00  0.00     0.169 HD
BRANCH  14  16
HETATM   16  C9  UNK     1      18.709  -2.616  36.524  1.00  0.00     0.035 A 
HETATM   17  C12 UNK     1      17.958  -2.000  37.523  1.00  0.00     0.031 A 
HETATM   18  C14 UNK     1      17.729  -0.625  37.471  1.00  0.00     0.021 A 
HETATM   19  C16 UNK     1      18.253   0.131  36.423  1.00  0.00     0.011 A 
HETATM   20 Br1  UNK     1      17.943   1.995  36.353  1.00  0.00    -0.051 Br
HETATM   21  C15 UNK     1      19.006  -0.489  35.425  1.00  0.00     0.021 A 
HETATM   22  C13 UNK     1      19.234  -1.863  35.476  1.00  0.00     0.031 A 
ENDBRANCH  14  16
ENDBRANCH   4  12
TORSDOF 2
ENDMDL
MODEL 10
REMARK VINA RESULT:      -7.7     13.929     16.367
REMARK  2 active torsions:
REMARK  status: ('A' for Active; 'I' for Inactive)
REMARK       I    between atoms: C6_11  and  N1_5 
REMARK    1  A    between atoms: C9_14  and  N1_5 
REMARK    2  A    between atoms: C2_7  and  C6_11 
ROOT
HETATM    1  O1  UNK     1      19.332  -2.251  12.768  1.00  0.00    -0.274 OA
HETATM    2  O3  UNK     1      19.337  -0.332  14.009  1.00  0.00    -0.259 OA
HETATM    3  C1  UNK     1      18.526  -4.319  13.761  1.00  0.00    -0.001 A 
HETATM    4  C2  UNK     1      18.531  -2.286  15.080  1.00  0.00     0.108 A 
HETATM    5  C3  UNK     1      19.055  -3.629  12.675  1.00  0.00     0.089 A 
HETATM    6  C4  UNK     1      18.266  -3.595  14.995  1.00  0.00     0.037 A 
HETATM    7  C5  UNK     1      18.264  -5.685  13.629  1.00  0.00     0.014 A 
HETATM    8  C7  UNK     1      19.093  -1.531  13.936  1.00  0.00     0.304 A 
HETATM    9  C8  UNK     1      19.328  -4.263  11.465  1.00  0.00     0.038 A 
HETATM   10  C10 UNK     1      18.534  -6.335  12.421  1.00  0.00     0.001 A 
HETATM   11  C11 UNK     1      19.064  -5.625  11.341  1.00  0.00     0.003 A 
ENDROOT
BRANCH   4  12
HETATM   12  C6  UNK     1      18.234  -1.645  16.365  1.00  0.00     0.262 C 
HETATM   13  O2  UNK     1      17.175  -1.898  16.938  1.00  0.00    -0.267 OA
HETATM   14  N1  UNK     1      19.253  -0.795  16.769  1.00  0.00    -0.323 N 
HETATM   15  H4  UNK     1      20.083  -0.710  16.185  1.00  0.00     0.169 HD
BRANCH  14  16
HETATM   16  C9  UNK     1      19.280  -0.037  17.942  1.00  0.00     0.035 A 
HETATM   17  C12 UNK     1      19.561  -0.653  19.160  1.00  0.00     0.031 A 
HETATM   18  C14 UNK     1      19.588   0.104  20.332  1.00  0.00     0.021 A 
HETATM   19  C16 UNK     1      19.333   1.475  20.283  1.00  0.00     0.011 A 
HETATM   20 Br1  UNK     1      19.369   2.500  21.871  1.00  0.00    -0.051 Br
HETATM   21  C15 UNK     1      19.053   2.088  19.063  1.00  0.00     0.021 A 
HETATM   22  C13 UNK     1      19.025   1.332  17.892  1.00  0.00     0.031 A 
ENDBRANCH  14  16
ENDBRANCH   4  12
TORSDOF 2
ENDMDL
