MODEL 1
REMARK VINA RESULT:      -9.0      0.000      0.000
REMARK  8 active torsions:
REMARK  status: ('A' for Active; 'I' for Inactive)
REMARK    1  A    between atoms: C16_22  and  O1_1 
REMARK    2  A    between atoms: C6_12  and  O1_1 
REMARK    3  A    between atoms: C18_24  and  O2_2 
REMARK    4  A    between atoms: C7_13  and  O2_2 
REMARK       I    between atoms: C10_16  and  N1_6 
REMARK    5  A    between atoms: C3_9  and  N1_6 
REMARK    6  A    between atoms: C1_7  and  C2_8 
REMARK    7  A    between atoms: C1_7  and  C3_9 
REMARK    8  A    between atoms: C10_16  and  C9_15 
ROOT
HETATM    1  O4  UNK     1      17.388   3.330  31.458  1.00  0.00    -0.267 OA
HETATM    2  N1  UNK     1      19.249   4.206  30.361  1.00  0.00    -0.356 N 
HETATM    3  C10 UNK     1      18.410   3.193  30.789  1.00  0.00     0.257 C 
HETATM    4  H7  UNK     1      20.075   3.989  29.812  1.00  0.00     0.162 HD
ENDROOT
BRANCH   2   5
HETATM    5  C3  UNK     1      19.018   5.600  30.662  1.00  0.00     0.127 C 
BRANCH   5   6
HETATM    6  C1  UNK     1      19.573   6.007  32.025  1.00  0.00     0.058 C 
BRANCH   6   7
HETATM    7  C2  UNK     1      18.805   7.140  32.659  1.00  0.00    -0.054 A 
HETATM    8  C4  UNK     1      17.524   7.426  32.214  1.00  0.00     0.046 A 
HETATM    9  C6  UNK     1      16.814   8.474  32.801  1.00  0.00     0.102 A 
HETATM   10  C7  UNK     1      17.394   9.222  33.826  1.00  0.00     0.102 A 
HETATM   11  C8  UNK     1      18.684   8.921  34.263  1.00  0.00     0.040 A 
HETATM   12  C5  UNK     1      19.394   7.874  33.677  1.00  0.00     0.010 A 
BRANCH   9  13
HETATM   13  O1  UNK     1      15.555   8.757  32.365  1.00  0.00    -0.349 OA
BRANCH  13  14
HETATM   14  C16 UNK     1      14.600   7.699  32.412  1.00  0.00     0.171 C 
HETATM   15  C21 UNK     1      14.190   7.468  33.852  1.00  0.00     0.034 C 
ENDBRANCH  13  14
ENDBRANCH   9  13
BRANCH  10  16
HETATM   16  O2  UNK     1      16.711  10.246  34.407  1.00  0.00    -0.349 OA
BRANCH  16  17
HETATM   17  C18 UNK     1      17.235  11.561  34.225  1.00  0.00     0.171 C 
HETATM   18  C22 UNK     1      16.585  12.493  35.226  1.00  0.00     0.034 C 
ENDBRANCH  16  17
ENDBRANCH  10  16
ENDBRANCH   6   7
ENDBRANCH   5   6
ENDBRANCH   2   5
BRANCH   3  19
HETATM   19  C9  UNK     1      18.855   1.863  30.355  1.00  0.00     0.108 A 
HETATM   20  C12 UNK     1      19.364   1.071  31.307  1.00  0.00     0.037 A 
HETATM   21  C11 UNK     1      19.833  -0.266  30.976  1.00  0.00    -0.001 A 
HETATM   22  C13 UNK     1      19.744  -0.703  29.657  1.00  0.00     0.089 A 
HETATM   23  C15 UNK     1      20.370  -1.126  31.936  1.00  0.00     0.014 A 
HETATM   24  O3  UNK     1      19.208   0.136  28.660  1.00  0.00    -0.274 OA
HETATM   25  C17 UNK     1      20.176  -1.970  29.274  1.00  0.00     0.038 A 
HETATM   26  C14 UNK     1      18.751   1.419  28.947  1.00  0.00     0.304 A 
HETATM   27  O5  UNK     1      18.287   2.142  28.073  1.00  0.00    -0.259 OA
HETATM   28  C20 UNK     1      20.711  -2.823  30.238  1.00  0.00     0.003 A 
HETATM   29  C19 UNK     1      20.807  -2.402  31.566  1.00  0.00     0.001 A 
ENDBRANCH   3  19
TORSDOF 8
ENDMDL
MODEL 2
REMARK VINA RESULT:      -8.9      6.419     12.289
REMARK  8 active torsions:
REMARK  status: ('A' for Active; 'I' for Inactive)
REMARK    1  A    between atoms: C16_22  and  O1_1 
REMARK    2  A    between atoms: C6_12  and  O1_1 
REMARK    3  A    between atoms: C18_24  and  O2_2 
REMARK    4  A    between atoms: C7_13  and  O2_2 
REMARK       I    between atoms: C10_16  and  N1_6 
REMARK    5  A    between atoms: C3_9  and  N1_6 
REMARK    6  A    between atoms: C1_7  and  C2_8 
REMARK    7  A    between atoms: C1_7  and  C3_9 
REMARK    8  A    between atoms: C10_16  and  C9_15 
ROOT
HETATM    1  O4  UNK     1      17.029  -0.623  35.457  1.00  0.00    -0.267 OA
HETATM    2  N1  UNK     1      18.994  -1.876  35.522  1.00  0.00    -0.356 N 
HETATM    3  C10 UNK     1      18.081  -1.008  34.950  1.00  0.00     0.257 C 
HETATM    4  H7  UNK     1      19.837  -2.136  35.019  1.00  0.00     0.162 HD
ENDROOT
BRANCH   2   5
HETATM    5  C3  UNK     1      18.815  -2.457  36.833  1.00  0.00     0.127 C 
BRANCH   5   6
HETATM    6  C1  UNK     1      20.100  -3.071  37.382  1.00  0.00     0.058 C 
BRANCH   6   7
HETATM    7  C2  UNK     1      20.156  -4.569  37.211  1.00  0.00    -0.054 A 
HETATM    8  C4  UNK     1      21.318  -5.248  37.545  1.00  0.00     0.046 A 
HETATM    9  C6  UNK     1      21.371  -6.633  37.387  1.00  0.00     0.102 A 
HETATM   10  C7  UNK     1      20.260  -7.322  36.897  1.00  0.00     0.102 A 
HETATM   11  C8  UNK     1      19.098  -6.625  36.567  1.00  0.00     0.040 A 
HETATM   12  C5  UNK     1      19.046  -5.240  36.724  1.00  0.00     0.010 A 
BRANCH   9  13
HETATM   13  O1  UNK     1      22.511  -7.302  37.714  1.00  0.00    -0.349 OA
BRANCH  13  14
HETATM   14  C16 UNK     1      22.973  -7.178  39.058  1.00  0.00     0.171 C 
HETATM   15  C21 UNK     1      22.216  -8.155  39.932  1.00  0.00     0.034 C 
ENDBRANCH  13  14
ENDBRANCH   9  13
BRANCH  10  16
HETATM   16  O2  UNK     1      20.299  -8.674  36.740  1.00  0.00    -0.349 OA
BRANCH  16  17
HETATM   17  C18 UNK     1      19.523  -9.455  37.646  1.00  0.00     0.171 C 
HETATM   18  C22 UNK     1      19.921 -10.910  37.510  1.00  0.00     0.034 C 
ENDBRANCH  16  17
ENDBRANCH  10  16
ENDBRANCH   6   7
ENDBRANCH   5   6
ENDBRANCH   2   5
BRANCH   3  19
HETATM   19  C9  UNK     1      18.487  -0.552  33.615  1.00  0.00     0.108 A 
HETATM   20  C12 UNK     1      19.129  -1.447  32.855  1.00  0.00     0.037 A 
HETATM   21  C11 UNK     1      19.572  -1.088  31.516  1.00  0.00    -0.001 A 
HETATM   22  C13 UNK     1      19.317   0.197  31.045  1.00  0.00     0.089 A 
HETATM   23  C15 UNK     1      20.245  -1.989  30.688  1.00  0.00     0.014 A 
HETATM   24  O3  UNK     1      18.640   1.133  31.850  1.00  0.00    -0.274 OA
HETATM   25  C17 UNK     1      19.715   0.603  29.774  1.00  0.00     0.038 A 
HETATM   26  C14 UNK     1      18.205   0.819  33.134  1.00  0.00     0.304 A 
HETATM   27  O5  UNK     1      17.618   1.642  33.829  1.00  0.00    -0.259 OA
HETATM   28  C20 UNK     1      20.386  -0.302  28.953  1.00  0.00     0.003 A 
HETATM   29  C19 UNK     1      20.650  -1.595  29.409  1.00  0.00     0.001 A 
ENDBRANCH   3  19
TORSDOF 8
ENDMDL
MODEL 3
REMARK VINA RESULT:      -8.9      6.780      9.697
REMARK  8 active torsions:
REMARK  status: ('A' for Active; 'I' for Inactive)
REMARK    1  A    between atoms: C16_22  and  O1_1 
REMARK    2  A    between atoms: C6_12  and  O1_1 
REMARK    3  A    between atoms: C18_24  and  O2_2 
REMARK    4  A    between atoms: C7_13  and  O2_2 
REMARK       I    between atoms: C10_16  and  N1_6 
REMARK    5  A    between atoms: C3_9  and  N1_6 
REMARK    6  A    between atoms: C1_7  and  C2_8 
REMARK    7  A    between atoms: C1_7  and  C3_9 
REMARK    8  A    between atoms: C10_16  and  C9_15 
ROOT
HETATM    1  O4  UNK     1      20.171  -4.314  35.034  1.00  0.00    -0.267 OA
HETATM    2  N1  UNK     1      19.474  -3.906  37.220  1.00  0.00    -0.356 N 
HETATM    3  C10 UNK     1      19.793  -4.704  36.137  1.00  0.00     0.257 C 
HETATM    4  H7  UNK     1      19.167  -4.326  38.093  1.00  0.00     0.162 HD
ENDROOT
BRANCH   2   5
HETATM    5  C3  UNK     1      19.549  -2.463  37.186  1.00  0.00     0.127 C 
BRANCH   5   6
HETATM    6  C1  UNK     1      18.173  -1.805  37.125  1.00  0.00     0.058 C 
BRANCH   6   7
HETATM    7  C2  UNK     1      18.108  -0.665  36.139  1.00  0.00    -0.054 A 
HETATM    8  C4  UNK     1      18.365  -0.910  34.799  1.00  0.00     0.046 A 
HETATM    9  C6  UNK     1      18.305   0.145  33.887  1.00  0.00     0.102 A 
HETATM   10  C7  UNK     1      17.990   1.431  34.327  1.00  0.00     0.102 A 
HETATM   11  C8  UNK     1      17.733   1.661  35.679  1.00  0.00     0.040 A 
HETATM   12  C5  UNK     1      17.793   0.607  36.591  1.00  0.00     0.010 A 
BRANCH   9  13
HETATM   13  O1  UNK     1      18.557  -0.094  32.570  1.00  0.00    -0.349 OA
BRANCH  13  14
HETATM   14  C16 UNK     1      19.119  -1.361  32.236  1.00  0.00     0.171 C 
HETATM   15  C21 UNK     1      20.192  -1.164  31.186  1.00  0.00     0.034 C 
ENDBRANCH  13  14
ENDBRANCH   9  13
BRANCH  10  16
HETATM   16  O2  UNK     1      17.928   2.467  33.447  1.00  0.00    -0.349 OA
BRANCH  16  17
HETATM   17  C18 UNK     1      18.312   3.753  33.931  1.00  0.00     0.171 C 
HETATM   18  C22 UNK     1      18.013   4.790  32.869  1.00  0.00     0.034 C 
ENDBRANCH  16  17
ENDBRANCH  10  16
ENDBRANCH   6   7
ENDBRANCH   5   6
ENDBRANCH   2   5
BRANCH   3  19
HETATM   19  C9  UNK     1      19.640  -6.136  36.418  1.00  0.00     0.108 A 
HETATM   20  C12 UNK     1      20.749  -6.879  36.322  1.00  0.00     0.037 A 
HETATM   21  C11 UNK     1      20.698  -8.310  36.582  1.00  0.00    -0.001 A 
HETATM   22  C13 UNK     1      19.481  -8.888  36.930  1.00  0.00     0.089 A 
HETATM   23  C15 UNK     1      21.830  -9.124  36.493  1.00  0.00     0.014 A 
HETATM   24  O3  UNK     1      18.317  -8.100  37.030  1.00  0.00    -0.274 OA
HETATM   25  C17 UNK     1      19.364 -10.251  37.191  1.00  0.00     0.038 A 
HETATM   26  C14 UNK     1      18.335  -6.729  36.788  1.00  0.00     0.304 A 
HETATM   27  O5  UNK     1      17.317  -6.052  36.876  1.00  0.00    -0.259 OA
HETATM   28  C20 UNK     1      20.498 -11.056  37.101  1.00  0.00     0.003 A 
HETATM   29  C19 UNK     1      21.728 -10.494  36.753  1.00  0.00     0.001 A 
ENDBRANCH   3  19
TORSDOF 8
ENDMDL
MODEL 4
REMARK VINA RESULT:      -8.7      6.342     12.054
REMARK  8 active torsions:
REMARK  status: ('A' for Active; 'I' for Inactive)
REMARK    1  A    between atoms: C16_22  and  O1_1 
REMARK    2  A    between atoms: C6_12  and  O1_1 
REMARK    3  A    between atoms: C18_24  and  O2_2 
REMARK    4  A    between atoms: C7_13  and  O2_2 
REMARK       I    between atoms: C10_16  and  N1_6 
REMARK    5  A    between atoms: C3_9  and  N1_6 
REMARK    6  A    between atoms: C1_7  and  C2_8 
REMARK    7  A    between atoms: C1_7  and  C3_9 
REMARK    8  A    between atoms: C10_16  and  C9_15 
ROOT
HETATM    1  O4  UNK     1      17.479  -0.511  35.795  1.00  0.00    -0.267 OA
HETATM    2  N1  UNK     1      19.127  -2.136  35.518  1.00  0.00    -0.356 N 
HETATM    3  C10 UNK     1      18.352  -1.060  35.126  1.00  0.00     0.257 C 
HETATM    4  H7  UNK     1      19.825  -2.522  34.889  1.00  0.00     0.162 HD
ENDROOT
BRANCH   2   5
HETATM    5  C3  UNK     1      18.998  -2.770  36.811  1.00  0.00     0.127 C 
BRANCH   5   6
HETATM    6  C1  UNK     1      20.343  -3.216  37.382  1.00  0.00     0.058 C 
BRANCH   6   7
HETATM    7  C2  UNK     1      20.483  -4.716  37.454  1.00  0.00    -0.054 A 
HETATM    8  C4  UNK     1      19.477  -5.518  36.937  1.00  0.00     0.046 A 
HETATM    9  C6  UNK     1      19.607  -6.906  37.004  1.00  0.00     0.102 A 
HETATM   10  C7  UNK     1      20.741  -7.474  37.586  1.00  0.00     0.102 A 
HETATM   11  C8  UNK     1      21.745  -6.653  38.100  1.00  0.00     0.040 A 
HETATM   12  C5  UNK     1      21.615  -5.266  38.034  1.00  0.00     0.010 A 
BRANCH   9  13
HETATM   13  O1  UNK     1      18.620  -7.696  36.497  1.00  0.00    -0.349 OA
BRANCH  13  14
HETATM   14  C16 UNK     1      18.190  -7.422  35.165  1.00  0.00     0.171 C 
HETATM   15  C21 UNK     1      16.678  -7.495  35.110  1.00  0.00     0.034 C 
ENDBRANCH  13  14
ENDBRANCH   9  13
BRANCH  10  16
HETATM   16  O2  UNK     1      20.880  -8.826  37.656  1.00  0.00    -0.349 OA
BRANCH  16  17
HETATM   17  C18 UNK     1      20.375  -9.470  38.824  1.00  0.00     0.171 C 
HETATM   18  C22 UNK     1      19.505 -10.638  38.407  1.00  0.00     0.034 C 
ENDBRANCH  16  17
ENDBRANCH  10  16
ENDBRANCH   6   7
ENDBRANCH   5   6
ENDBRANCH   2   5
BRANCH   3  19
HETATM   19  C9  UNK     1      18.671  -0.592  33.772  1.00  0.00     0.108 A 
HETATM   20  C12 UNK     1      19.243  -1.486  32.957  1.00  0.00     0.037 A 
HETATM   21  C11 UNK     1      19.597  -1.117  31.594  1.00  0.00    -0.001 A 
HETATM   22  C13 UNK     1      19.332   0.178  31.158  1.00  0.00     0.089 A 
HETATM   23  C15 UNK     1      20.195  -2.018  30.710  1.00  0.00     0.014 A 
HETATM   24  O3  UNK     1      18.729   1.114  32.020  1.00  0.00    -0.274 OA
HETATM   25  C17 UNK     1      19.646   0.595  29.867  1.00  0.00     0.038 A 
HETATM   26  C14 UNK     1      18.379   0.790  33.328  1.00  0.00     0.304 A 
HETATM   27  O5  UNK     1      17.856   1.612  34.072  1.00  0.00    -0.259 OA
HETATM   28  C20 UNK     1      20.243  -0.310  28.990  1.00  0.00     0.003 A 
HETATM   29  C19 UNK     1      20.516  -1.612  29.411  1.00  0.00     0.001 A 
ENDBRANCH   3  19
TORSDOF 8
ENDMDL
MODEL 5
REMARK VINA RESULT:      -8.4      8.313     14.360
REMARK  8 active torsions:
REMARK  status: ('A' for Active; 'I' for Inactive)
REMARK    1  A    between atoms: C16_22  and  O1_1 
REMARK    2  A    between atoms: C6_12  and  O1_1 
REMARK    3  A    between atoms: C18_24  and  O2_2 
REMARK    4  A    between atoms: C7_13  and  O2_2 
REMARK       I    between atoms: C10_16  and  N1_6 
REMARK    5  A    between atoms: C3_9  and  N1_6 
REMARK    6  A    between atoms: C1_7  and  C2_8 
REMARK    7  A    between atoms: C1_7  and  C3_9 
REMARK    8  A    between atoms: C10_16  and  C9_15 
ROOT
HETATM    1  O4  UNK     1      20.925  -4.769  36.446  1.00  0.00    -0.267 OA
HETATM    2  N1  UNK     1      18.629  -5.098  36.675  1.00  0.00    -0.356 N 
HETATM    3  C10 UNK     1      19.770  -4.350  36.448  1.00  0.00     0.257 C 
HETATM    4  H7  UNK     1      17.714  -4.656  36.658  1.00  0.00     0.162 HD
ENDROOT
BRANCH   2   5
HETATM    5  C3  UNK     1      18.658  -6.517  36.948  1.00  0.00     0.127 C 
BRANCH   5   6
HETATM    6  C1  UNK     1      19.206  -6.836  38.337  1.00  0.00     0.058 C 
BRANCH   6   7
HETATM    7  C2  UNK     1      20.635  -7.320  38.309  1.00  0.00    -0.054 A 
HETATM    8  C4  UNK     1      21.073  -8.084  37.238  1.00  0.00     0.046 A 
HETATM    9  C6  UNK     1      22.394  -8.532  37.212  1.00  0.00     0.102 A 
HETATM   10  C7  UNK     1      23.260  -8.210  38.258  1.00  0.00     0.102 A 
HETATM   11  C8  UNK     1      22.805  -7.440  39.328  1.00  0.00     0.040 A 
HETATM   12  C5  UNK     1      21.484  -6.993  39.354  1.00  0.00     0.010 A 
BRANCH   9  13
HETATM   13  O1  UNK     1      22.826  -9.282  36.161  1.00  0.00    -0.349 OA
BRANCH  13  14
HETATM   14  C16 UNK     1      22.337 -10.619  36.073  1.00  0.00     0.171 C 
HETATM   15  C21 UNK     1      23.505 -11.559  35.863  1.00  0.00     0.034 C 
ENDBRANCH  13  14
ENDBRANCH   9  13
BRANCH  10  16
HETATM   16  O2  UNK     1      24.552  -8.641  38.243  1.00  0.00    -0.349 OA
BRANCH  16  17
HETATM   17  C18 UNK     1      25.545  -7.726  38.702  1.00  0.00     0.171 C 
HETATM   18  C22 UNK     1      26.783  -8.502  39.102  1.00  0.00     0.034 C 
ENDBRANCH  16  17
ENDBRANCH  10  16
ENDBRANCH   6   7
ENDBRANCH   5   6
ENDBRANCH   2   5
BRANCH   3  19
HETATM   19  C9  UNK     1      19.481  -2.933  36.192  1.00  0.00     0.108 A 
HETATM   20  C12 UNK     1      18.783  -2.292  37.137  1.00  0.00     0.037 A 
HETATM   21  C11 UNK     1      18.447  -0.886  36.974  1.00  0.00    -0.001 A 
HETATM   22  C13 UNK     1      18.862  -0.224  35.821  1.00  0.00     0.089 A 
HETATM   23  C15 UNK     1      17.721  -0.177  37.934  1.00  0.00     0.014 A 
HETATM   24  O3  UNK     1      19.597  -0.905  34.831  1.00  0.00    -0.274 OA
HETATM   25  C17 UNK     1      18.573   1.120  35.604  1.00  0.00     0.038 A 
HETATM   26  C14 UNK     1      19.933  -2.250  34.959  1.00  0.00     0.304 A 
HETATM   27  O5  UNK     1      20.571  -2.834  34.091  1.00  0.00    -0.259 OA
HETATM   28  C20 UNK     1      17.848   1.821  36.567  1.00  0.00     0.003 A 
HETATM   29  C19 UNK     1      17.424   1.174  37.728  1.00  0.00     0.001 A 
ENDBRANCH   3  19
TORSDOF 8
ENDMDL
MODEL 6
REMARK VINA RESULT:      -8.4      1.873      2.569
REMARK  8 active torsions:
REMARK  status: ('A' for Active; 'I' for Inactive)
REMARK    1  A    between atoms: C16_22  and  O1_1 
REMARK    2  A    between atoms: C6_12  and  O1_1 
REMARK    3  A    between atoms: C18_24  and  O2_2 
REMARK    4  A    between atoms: C7_13  and  O2_2 
REMARK       I    between atoms: C10_16  and  N1_6 
REMARK    5  A    between atoms: C3_9  and  N1_6 
REMARK    6  A    between atoms: C1_7  and  C2_8 
REMARK    7  A    between atoms: C1_7  and  C3_9 
REMARK    8  A    between atoms: C10_16  and  C9_15 
ROOT
HETATM    1  O4  UNK     1      17.339   4.283  31.543  1.00  0.00    -0.267 OA
HETATM    2  N1  UNK     1      18.430   4.177  33.600  1.00  0.00    -0.356 N 
HETATM    3  C10 UNK     1      18.015   3.684  32.377  1.00  0.00     0.257 C 
HETATM    4  H7  UNK     1      18.987   3.600  34.223  1.00  0.00     0.162 HD
ENDROOT
BRANCH   2   5
HETATM    5  C3  UNK     1      18.107   5.507  34.064  1.00  0.00     0.127 C 
BRANCH   5   6
HETATM    6  C1  UNK     1      19.339   6.401  34.187  1.00  0.00     0.058 C 
BRANCH   6   7
HETATM    7  C2  UNK     1      19.013   7.870  34.078  1.00  0.00    -0.054 A 
HETATM    8  C4  UNK     1      17.741   8.257  33.686  1.00  0.00     0.046 A 
HETATM    9  C6  UNK     1      17.441   9.616  33.585  1.00  0.00     0.102 A 
HETATM   10  C7  UNK     1      18.416  10.570  33.878  1.00  0.00     0.102 A 
HETATM   11  C8  UNK     1      19.691  10.165  34.272  1.00  0.00     0.040 A 
HETATM   12  C5  UNK     1      19.992   8.807  34.372  1.00  0.00     0.010 A 
BRANCH   9  13
HETATM   13  O1  UNK     1      16.192   9.999  33.200  1.00  0.00    -0.349 OA
BRANCH  13  14
HETATM   14  C16 UNK     1      15.094   9.466  33.939  1.00  0.00     0.171 C 
HETATM   15  C21 UNK     1      14.827  10.355  35.136  1.00  0.00     0.034 C 
ENDBRANCH  13  14
ENDBRANCH   9  13
BRANCH  10  16
HETATM   16  O2  UNK     1      18.134  11.899  33.784  1.00  0.00    -0.349 OA
BRANCH  16  17
HETATM   17  C18 UNK     1      17.887  12.597  35.003  1.00  0.00     0.171 C 
HETATM   18  C22 UNK     1      17.363  13.981  34.682  1.00  0.00     0.034 C 
ENDBRANCH  16  17
ENDBRANCH  10  16
ENDBRANCH   6   7
ENDBRANCH   5   6
ENDBRANCH   2   5
BRANCH   3  19
HETATM   19  C9  UNK     1      18.471   2.310  32.132  1.00  0.00     0.108 A 
HETATM   20  C12 UNK     1      18.952   2.056  30.909  1.00  0.00     0.037 A 
HETATM   21  C11 UNK     1      19.428   0.724  30.570  1.00  0.00    -0.001 A 
HETATM   22  C13 UNK     1      19.373  -0.276  31.536  1.00  0.00     0.089 A 
HETATM   23  C15 UNK     1      19.938   0.415  29.306  1.00  0.00     0.014 A 
HETATM   24  O3  UNK     1      18.866  -0.003  32.821  1.00  0.00    -0.274 OA
HETATM   25  C17 UNK     1      19.812  -1.572  31.275  1.00  0.00     0.038 A 
HETATM   26  C14 UNK     1      18.403   1.261  33.175  1.00  0.00     0.304 A 
HETATM   27  O5  UNK     1      17.962   1.490  34.295  1.00  0.00    -0.259 OA
HETATM   28  C20 UNK     1      20.320  -1.873  30.012  1.00  0.00     0.003 A 
HETATM   29  C19 UNK     1      20.383  -0.882  29.031  1.00  0.00     0.001 A 
ENDBRANCH   3  19
TORSDOF 8
ENDMDL
MODEL 7
REMARK VINA RESULT:      -8.3     10.681     15.421
REMARK  8 active torsions:
REMARK  status: ('A' for Active; 'I' for Inactive)
REMARK    1  A    between atoms: C16_22  and  O1_1 
REMARK    2  A    between atoms: C6_12  and  O1_1 
REMARK    3  A    between atoms: C18_24  and  O2_2 
REMARK    4  A    between atoms: C7_13  and  O2_2 
REMARK       I    between atoms: C10_16  and  N1_6 
REMARK    5  A    between atoms: C3_9  and  N1_6 
REMARK    6  A    between atoms: C1_7  and  C2_8 
REMARK    7  A    between atoms: C1_7  and  C3_9 
REMARK    8  A    between atoms: C10_16  and  C9_15 
ROOT
HETATM    1  O4  UNK     1      25.922  -8.584  37.302  1.00  0.00    -0.267 OA
HETATM    2  N1  UNK     1      24.962  -7.385  39.055  1.00  0.00    -0.356 N 
HETATM    3  C10 UNK     1      25.968  -7.707  38.163  1.00  0.00     0.257 C 
HETATM    4  H7  UNK     1      25.098  -6.641  39.733  1.00  0.00     0.162 HD
ENDROOT
BRANCH   2   5
HETATM    5  C3  UNK     1      23.687  -8.065  39.086  1.00  0.00     0.127 C 
BRANCH   5   6
HETATM    6  C1  UNK     1      22.614  -7.268  39.825  1.00  0.00     0.058 C 
BRANCH   6   7
HETATM    7  C2  UNK     1      21.334  -7.135  39.038  1.00  0.00    -0.054 A 
HETATM    8  C4  UNK     1      21.160  -6.042  38.202  1.00  0.00     0.046 A 
HETATM    9  C6  UNK     1      19.976  -5.919  37.475  1.00  0.00     0.102 A 
HETATM   10  C7  UNK     1      18.980  -6.890  37.593  1.00  0.00     0.102 A 
HETATM   11  C8  UNK     1      19.170  -7.984  38.437  1.00  0.00     0.040 A 
HETATM   12  C5  UNK     1      20.354  -8.107  39.165  1.00  0.00     0.010 A 
BRANCH   9  13
HETATM   13  O1  UNK     1      19.803  -4.847  36.654  1.00  0.00    -0.349 OA
BRANCH  13  14
HETATM   14  C16 UNK     1      20.060  -3.557  37.207  1.00  0.00     0.171 C 
HETATM   15  C21 UNK     1      20.288  -2.573  36.079  1.00  0.00     0.034 C 
ENDBRANCH  13  14
ENDBRANCH   9  13
BRANCH  10  16
HETATM   16  O2  UNK     1      17.821  -6.781  36.888  1.00  0.00    -0.349 OA
BRANCH  16  17
HETATM   17  C18 UNK     1      17.739  -7.500  35.659  1.00  0.00     0.171 C 
HETATM   18  C22 UNK     1      16.370  -7.282  35.050  1.00  0.00     0.034 C 
ENDBRANCH  16  17
ENDBRANCH  10  16
ENDBRANCH   6   7
ENDBRANCH   5   6
ENDBRANCH   2   5
BRANCH   3  19
HETATM   19  C9  UNK     1      27.164  -6.873  38.327  1.00  0.00     0.108 A 
HETATM   20  C12 UNK     1      28.342  -7.495  38.187  1.00  0.00     0.037 A 
HETATM   21  C11 UNK     1      29.585  -6.753  38.332  1.00  0.00    -0.001 A 
HETATM   22  C13 UNK     1      29.527  -5.392  38.618  1.00  0.00     0.089 A 
HETATM   23  C15 UNK     1      30.835  -7.361  38.194  1.00  0.00     0.014 A 
HETATM   24  O3  UNK     1      28.285  -4.744  38.764  1.00  0.00    -0.274 OA
HETATM   25  C17 UNK     1      30.679  -4.625  38.770  1.00  0.00     0.038 A 
HETATM   26  C14 UNK     1      27.079  -5.427  38.631  1.00  0.00     0.304 A 
HETATM   27  O5  UNK     1      26.003  -4.855  38.761  1.00  0.00    -0.259 OA
HETATM   28  C20 UNK     1      31.923  -5.239  38.631  1.00  0.00     0.003 A 
HETATM   29  C19 UNK     1      32.000  -6.603  38.343  1.00  0.00     0.001 A 
ENDBRANCH   3  19
TORSDOF 8
ENDMDL
MODEL 8
REMARK VINA RESULT:      -8.3      6.399      9.436
REMARK  8 active torsions:
REMARK  status: ('A' for Active; 'I' for Inactive)
REMARK    1  A    between atoms: C16_22  and  O1_1 
REMARK    2  A    between atoms: C6_12  and  O1_1 
REMARK    3  A    between atoms: C18_24  and  O2_2 
REMARK    4  A    between atoms: C7_13  and  O2_2 
REMARK       I    between atoms: C10_16  and  N1_6 
REMARK    5  A    between atoms: C3_9  and  N1_6 
REMARK    6  A    between atoms: C1_7  and  C2_8 
REMARK    7  A    between atoms: C1_7  and  C3_9 
REMARK    8  A    between atoms: C10_16  and  C9_15 
ROOT
HETATM    1  O4  UNK     1      20.933  -3.066  35.718  1.00  0.00    -0.267 OA
HETATM    2  N1  UNK     1      19.031  -2.651  37.000  1.00  0.00    -0.356 N 
HETATM    3  C10 UNK     1      20.089  -3.414  36.541  1.00  0.00     0.257 C 
HETATM    4  H7  UNK     1      18.383  -3.031  37.683  1.00  0.00     0.162 HD
ENDROOT
BRANCH   2   5
HETATM    5  C3  UNK     1      18.779  -1.301  36.550  1.00  0.00     0.127 C 
BRANCH   5   6
HETATM    6  C1  UNK     1      17.680  -1.230  35.492  1.00  0.00     0.058 C 
BRANCH   6   7
HETATM    7  C2  UNK     1      18.107  -0.493  34.247  1.00  0.00    -0.054 A 
HETATM    8  C4  UNK     1      17.804   0.854  34.117  1.00  0.00     0.046 A 
HETATM    9  C6  UNK     1      18.199   1.536  32.965  1.00  0.00     0.102 A 
HETATM   10  C7  UNK     1      18.893   0.862  31.959  1.00  0.00     0.102 A 
HETATM   11  C8  UNK     1      19.191  -0.493  32.105  1.00  0.00     0.040 A 
HETATM   12  C5  UNK     1      18.795  -1.175  33.256  1.00  0.00     0.010 A 
BRANCH   9  13
HETATM   13  O1  UNK     1      17.902   2.858  32.836  1.00  0.00    -0.349 OA
BRANCH  13  14
HETATM   14  C16 UNK     1      18.456   3.745  33.806  1.00  0.00     0.171 C 
HETATM   15  C21 UNK     1      18.200   5.173  33.372  1.00  0.00     0.034 C 
ENDBRANCH  13  14
ENDBRANCH   9  13
BRANCH  10  16
HETATM   16  O2  UNK     1      19.284   1.517  30.832  1.00  0.00    -0.349 OA
BRANCH  16  17
HETATM   17  C18 UNK     1      18.781   1.027  29.590  1.00  0.00     0.171 C 
HETATM   18  C22 UNK     1      17.915   2.095  28.953  1.00  0.00     0.034 C 
ENDBRANCH  16  17
ENDBRANCH  10  16
ENDBRANCH   6   7
ENDBRANCH   5   6
ENDBRANCH   2   5
BRANCH   3  19
HETATM   19  C9  UNK     1      20.134  -4.749  37.149  1.00  0.00     0.108 A 
HETATM   20  C12 UNK     1      21.248  -5.054  37.825  1.00  0.00     0.037 A 
HETATM   21  C11 UNK     1      21.387  -6.354  38.463  1.00  0.00    -0.001 A 
HETATM   22  C13 UNK     1      20.346  -7.271  38.355  1.00  0.00     0.089 A 
HETATM   23  C15 UNK     1      22.532  -6.714  39.178  1.00  0.00     0.014 A 
HETATM   24  O3  UNK     1      19.176  -6.945  37.643  1.00  0.00    -0.274 OA
HETATM   25  C17 UNK     1      20.417  -8.532  38.941  1.00  0.00     0.038 A 
HETATM   26  C14 UNK     1      19.014  -5.709  37.022  1.00  0.00     0.304 A 
HETATM   27  O5  UNK     1      17.992  -5.434  36.403  1.00  0.00    -0.259 OA
HETATM   28  C20 UNK     1      21.561  -8.884  39.654  1.00  0.00     0.003 A 
HETATM   29  C19 UNK     1      22.616  -7.977  39.772  1.00  0.00     0.001 A 
ENDBRANCH   3  19
TORSDOF 8
ENDMDL
MODEL 9
REMARK VINA RESULT:      -8.3      1.758      2.712
REMARK  8 active torsions:
REMARK  status: ('A' for Active; 'I' for Inactive)
REMARK    1  A    between atoms: C16_22  and  O1_1 
REMARK    2  A    between atoms: C6_12  and  O1_1 
REMARK    3  A    between atoms: C18_24  and  O2_2 
REMARK    4  A    between atoms: C7_13  and  O2_2 
REMARK       I    between atoms: C10_16  and  N1_6 
REMARK    5  A    between atoms: C3_9  and  N1_6 
REMARK    6  A    between atoms: C1_7  and  C2_8 
REMARK    7  A    between atoms: C1_7  and  C3_9 
REMARK    8  A    between atoms: C10_16  and  C9_15 
ROOT
HETATM    1  O4  UNK     1      18.403   1.332  28.379  1.00  0.00    -0.267 OA
HETATM    2  N1  UNK     1      19.079   2.777  30.079  1.00  0.00    -0.356 N 
HETATM    3  C10 UNK     1      18.924   1.544  29.472  1.00  0.00     0.257 C 
HETATM    4  H7  UNK     1      19.523   2.848  30.990  1.00  0.00     0.162 HD
ENDROOT
BRANCH   2   5
HETATM    5  C3  UNK     1      18.631   4.013  29.478  1.00  0.00     0.127 C 
BRANCH   5   6
HETATM    6  C1  UNK     1      19.636   5.148  29.653  1.00  0.00     0.058 C 
BRANCH   6   7
HETATM    7  C2  UNK     1      19.465   5.891  30.955  1.00  0.00    -0.054 A 
HETATM    8  C4  UNK     1      18.203   6.331  31.325  1.00  0.00     0.046 A 
HETATM    9  C6  UNK     1      18.044   7.019  32.529  1.00  0.00     0.102 A 
HETATM   10  C7  UNK     1      19.149   7.256  33.348  1.00  0.00     0.102 A 
HETATM   11  C8  UNK     1      20.411   6.806  32.962  1.00  0.00     0.040 A 
HETATM   12  C5  UNK     1      20.571   6.120  31.758  1.00  0.00     0.010 A 
BRANCH   9  13
HETATM   13  O1  UNK     1      16.806   7.451  32.894  1.00  0.00    -0.349 OA
BRANCH  13  14
HETATM   14  C16 UNK     1      15.955   7.935  31.856  1.00  0.00     0.171 C 
HETATM   15  C21 UNK     1      14.615   7.235  31.950  1.00  0.00     0.034 C 
ENDBRANCH  13  14
ENDBRANCH   9  13
BRANCH  10  16
HETATM   16  O2  UNK     1      19.006   7.925  34.525  1.00  0.00    -0.349 OA
BRANCH  16  17
HETATM   17  C18 UNK     1      19.154   9.343  34.488  1.00  0.00     0.171 C 
HETATM   18  C22 UNK     1      20.616   9.692  34.664  1.00  0.00     0.034 C 
ENDBRANCH  16  17
ENDBRANCH  10  16
ENDBRANCH   6   7
ENDBRANCH   5   6
ENDBRANCH   2   5
BRANCH   3  19
HETATM   19  C9  UNK     1      19.461   0.440  30.278  1.00  0.00     0.108 A 
HETATM   20  C12 UNK     1      18.955   0.307  31.510  1.00  0.00     0.037 A 
HETATM   21  C11 UNK     1      19.425  -0.757  32.385  1.00  0.00    -0.001 A 
HETATM   22  C13 UNK     1      20.406  -1.627  31.919  1.00  0.00     0.089 A 
HETATM   23  C15 UNK     1      18.925  -0.932  33.678  1.00  0.00     0.014 A 
HETATM   24  O3  UNK     1      20.934  -1.482  30.622  1.00  0.00    -0.274 OA
HETATM   25  C17 UNK     1      20.898  -2.665  32.707  1.00  0.00     0.038 A 
HETATM   26  C14 UNK     1      20.504  -0.474  29.762  1.00  0.00     0.304 A 
HETATM   27  O5  UNK     1      20.971  -0.355  28.635  1.00  0.00    -0.259 OA
HETATM   28  C20 UNK     1      20.395  -2.835  33.995  1.00  0.00     0.003 A 
HETATM   29  C19 UNK     1      19.410  -1.970  34.479  1.00  0.00     0.001 A 
ENDBRANCH   3  19
TORSDOF 8
ENDMDL
MODEL 10
REMARK VINA RESULT:      -8.3      6.619     12.642
REMARK  8 active torsions:
REMARK  status: ('A' for Active; 'I' for Inactive)
REMARK    1  A    between atoms: C16_22  and  O1_1 
REMARK    2  A    between atoms: C6_12  and  O1_1 
REMARK    3  A    between atoms: C18_24  and  O2_2 
REMARK    4  A    between atoms: C7_13  and  O2_2 
REMARK       I    between atoms: C10_16  and  N1_6 
REMARK    5  A    between atoms: C3_9  and  N1_6 
REMARK    6  A    between atoms: C1_7  and  C2_8 
REMARK    7  A    between atoms: C1_7  and  C3_9 
REMARK    8  A    between atoms: C10_16  and  C9_15 
ROOT
HETATM    1  O4  UNK     1      17.523  -1.372  35.741  1.00  0.00    -0.267 OA
HETATM    2  N1  UNK     1      19.631  -2.336  35.497  1.00  0.00    -0.356 N 
HETATM    3  C10 UNK     1      18.565  -1.544  35.112  1.00  0.00     0.257 C 
HETATM    4  H7  UNK     1      20.451  -2.415  34.903  1.00  0.00     0.162 HD
ENDROOT
BRANCH   2   5
HETATM    5  C3  UNK     1      19.650  -3.087  36.732  1.00  0.00     0.127 C 
BRANCH   5   6
HETATM    6  C1  UNK     1      19.216  -4.539  36.542  1.00  0.00     0.058 C 
BRANCH   6   7
HETATM    7  C2  UNK     1      20.233  -5.529  37.053  1.00  0.00    -0.054 A 
HETATM    8  C4  UNK     1      20.142  -6.857  36.667  1.00  0.00     0.046 A 
HETATM    9  C6  UNK     1      21.083  -7.773  37.140  1.00  0.00     0.102 A 
HETATM   10  C7  UNK     1      22.103  -7.348  37.992  1.00  0.00     0.102 A 
HETATM   11  C8  UNK     1      22.181  -6.008  38.371  1.00  0.00     0.040 A 
HETATM   12  C5  UNK     1      21.240  -5.093  37.900  1.00  0.00     0.010 A 
BRANCH   9  13
HETATM   13  O1  UNK     1      20.996  -9.078  36.761  1.00  0.00    -0.349 OA
BRANCH  13  14
HETATM   14  C16 UNK     1      21.360  -9.389  35.417  1.00  0.00     0.171 C 
HETATM   15  C21 UNK     1      22.389 -10.500  35.430  1.00  0.00     0.034 C 
ENDBRANCH  13  14
ENDBRANCH   9  13
BRANCH  10  16
HETATM   16  O2  UNK     1      23.027  -8.232  38.459  1.00  0.00    -0.349 OA
BRANCH  16  17
HETATM   17  C18 UNK     1      24.221  -7.687  39.018  1.00  0.00     0.171 C 
HETATM   18  C22 UNK     1      25.417  -8.357  38.374  1.00  0.00     0.034 C 
ENDBRANCH  16  17
ENDBRANCH  10  16
ENDBRANCH   6   7
ENDBRANCH   5   6
ENDBRANCH   2   5
BRANCH   3  19
HETATM   19  C9  UNK     1      18.784  -0.881  33.821  1.00  0.00     0.108 A 
HETATM   20  C12 UNK     1      19.365  -1.621  32.868  1.00  0.00     0.037 A 
HETATM   21  C11 UNK     1      19.624  -1.052  31.554  1.00  0.00    -0.001 A 
HETATM   22  C13 UNK     1      19.261   0.268  31.309  1.00  0.00     0.089 A 
HETATM   23  C15 UNK     1      20.227  -1.787  30.530  1.00  0.00     0.014 A 
HETATM   24  O3  UNK     1      18.650   1.041  32.316  1.00  0.00    -0.274 OA
HETATM   25  C17 UNK     1      19.482   0.872  30.074  1.00  0.00     0.038 A 
HETATM   26  C14 UNK     1      18.389   0.525  33.582  1.00  0.00     0.304 A 
HETATM   27  O5  UNK     1      17.858   1.205  34.452  1.00  0.00    -0.259 OA
HETATM   28  C20 UNK     1      20.084   0.133  29.057  1.00  0.00     0.003 A 
HETATM   29  C19 UNK     1      20.455  -1.194  29.285  1.00  0.00     0.001 A 
ENDBRANCH   3  19
TORSDOF 8
ENDMDL
