MODEL 1
REMARK VINA RESULT:     -10.0      0.000      0.000
REMARK  4 active torsions:
REMARK  status: ('A' for Active; 'I' for Inactive)
REMARK    1  A    between atoms: C11_14  and  O1_1 
REMARK    2  A    between atoms: C15_18  and  O1_1 
REMARK    3  A    between atoms: C6_9  and  C7_10 
REMARK    4  A    between atoms: C15_18  and  C16_19 
ROOT
HETATM    1  C7  UNK     1      18.432   5.854  32.353  1.00  0.00    -0.033 A 
HETATM    2  C10 UNK     1      17.888   4.609  32.087  1.00  0.00     0.048 A 
HETATM    3  C11 UNK     1      18.282   3.925  30.938  1.00  0.00     0.070 A 
HETATM    4  C14 UNK     1      19.357   6.436  31.504  1.00  0.00     0.011 A 
HETATM    5  C17 UNK     1      19.214   4.496  30.071  1.00  0.00     0.037 A 
HETATM    6  C18 UNK     1      19.752   5.752  30.354  1.00  0.00     0.004 A 
ENDROOT
BRANCH   1   7
HETATM    7  C6  UNK     1      18.015   6.578  33.569  1.00  0.00     0.031 C 
HETATM    8  C3  UNK     1      17.070   7.516  33.636  1.00  0.00     0.067 A 
HETATM    9  C4  UNK     1      16.666   8.231  34.872  1.00  0.00     0.197 A 
HETATM   10  C5  UNK     1      16.266   7.997  32.485  1.00  0.00     0.197 A 
HETATM   11  C1  UNK     1      15.605   9.150  34.434  1.00  0.00     0.029 A 
HETATM   12  O2  UNK     1      17.104   8.099  35.996  1.00  0.00    -0.286 OA
HETATM   13  C2  UNK     1      15.374   9.015  33.062  1.00  0.00     0.029 A 
HETATM   14  C8  UNK     1      14.890  10.045  35.205  1.00  0.00     0.016 A 
HETATM   15  C9  UNK     1      14.420   9.771  32.410  1.00  0.00     0.016 A 
HETATM   16  C13 UNK     1      13.688  10.682  33.176  1.00  0.00     0.001 A 
HETATM   17  C12 UNK     1      13.921  10.819  34.559  1.00  0.00     0.001 A 
HETATM   18  O3  UNK     1      16.319   7.641  31.327  1.00  0.00    -0.286 OA
ENDBRANCH   1   7
BRANCH   3  19
HETATM   19  O1  UNK     1      17.757   2.700  30.660  1.00  0.00    -0.347 OA
BRANCH  19  20
HETATM   20  C15 UNK     1      18.126   2.101  29.419  1.00  0.00     0.214 C 
BRANCH  20  21
HETATM   21  C16 UNK     1      18.983   0.895  29.617  1.00  0.00    -0.034 A 
HETATM   22  C19 UNK     1      19.411   0.547  30.899  1.00  0.00     0.009 A 
HETATM   23  C21 UNK     1      20.212  -0.579  31.083  1.00  0.00     0.001 A 
HETATM   24  C23 UNK     1      20.585  -1.357  29.988  1.00  0.00     0.000 A 
HETATM   25  C22 UNK     1      20.157  -1.009  28.706  1.00  0.00     0.001 A 
HETATM   26  C20 UNK     1      19.356   0.118  28.521  1.00  0.00     0.009 A 
ENDBRANCH  20  21
ENDBRANCH  19  20
ENDBRANCH   3  19
TORSDOF 4
ENDMDL
MODEL 2
REMARK VINA RESULT:      -9.8      2.938      3.700
REMARK  4 active torsions:
REMARK  status: ('A' for Active; 'I' for Inactive)
REMARK    1  A    between atoms: C11_14  and  O1_1 
REMARK    2  A    between atoms: C15_18  and  O1_1 
REMARK    3  A    between atoms: C6_9  and  C7_10 
REMARK    4  A    between atoms: C15_18  and  C16_19 
ROOT
HETATM    1  C7  UNK     1      18.903   5.671  32.073  1.00  0.00    -0.033 A 
HETATM    2  C10 UNK     1      18.329   4.573  32.692  1.00  0.00     0.048 A 
HETATM    3  C11 UNK     1      18.130   3.405  31.957  1.00  0.00     0.070 A 
HETATM    4  C14 UNK     1      19.285   5.636  30.744  1.00  0.00     0.011 A 
HETATM    5  C17 UNK     1      18.509   3.351  30.615  1.00  0.00     0.037 A 
HETATM    6  C18 UNK     1      19.086   4.467  30.008  1.00  0.00     0.004 A 
ENDROOT
BRANCH   1   7
HETATM    7  C6  UNK     1      19.114   6.908  32.850  1.00  0.00     0.031 C 
HETATM    8  C3  UNK     1      18.209   7.864  33.059  1.00  0.00     0.067 A 
HETATM    9  C4  UNK     1      18.443   9.101  33.846  1.00  0.00     0.197 A 
HETATM   10  C5  UNK     1      16.819   7.847  32.540  1.00  0.00     0.197 A 
HETATM   11  C1  UNK     1      17.163   9.822  33.784  1.00  0.00     0.029 A 
HETATM   12  O2  UNK     1      19.455   9.451  34.416  1.00  0.00    -0.286 OA
HETATM   13  C2  UNK     1      16.229   9.102  33.034  1.00  0.00     0.029 A 
HETATM   14  C8  UNK     1      16.849  11.038  34.359  1.00  0.00     0.016 A 
HETATM   15  C9  UNK     1      14.946   9.571  32.831  1.00  0.00     0.016 A 
HETATM   16  C13 UNK     1      14.613  10.800  33.405  1.00  0.00     0.001 A 
HETATM   17  C12 UNK     1      15.554  11.527  34.162  1.00  0.00     0.001 A 
HETATM   18  O3  UNK     1      16.278   7.001  31.862  1.00  0.00    -0.286 OA
ENDBRANCH   1   7
BRANCH   3  19
HETATM   19  O1  UNK     1      17.566   2.316  32.548  1.00  0.00    -0.347 OA
BRANCH  19  20
HETATM   20  C15 UNK     1      18.413   1.507  33.362  1.00  0.00     0.214 C 
BRANCH  20  21
HETATM   21  C16 UNK     1      17.838   1.292  34.722  1.00  0.00    -0.034 A 
HETATM   22  C19 UNK     1      18.472   1.834  35.840  1.00  0.00     0.009 A 
HETATM   23  C21 UNK     1      17.934   1.633  37.111  1.00  0.00     0.001 A 
HETATM   24  C23 UNK     1      16.764   0.891  37.264  1.00  0.00     0.000 A 
HETATM   25  C22 UNK     1      16.131   0.348  36.146  1.00  0.00     0.001 A 
HETATM   26  C20 UNK     1      16.668   0.549  34.874  1.00  0.00     0.009 A 
ENDBRANCH  20  21
ENDBRANCH  19  20
ENDBRANCH   3  19
TORSDOF 4
ENDMDL
MODEL 3
REMARK VINA RESULT:      -9.7      7.688     12.909
REMARK  4 active torsions:
REMARK  status: ('A' for Active; 'I' for Inactive)
REMARK    1  A    between atoms: C11_14  and  O1_1 
REMARK    2  A    between atoms: C15_18  and  O1_1 
REMARK    3  A    between atoms: C6_9  and  C7_10 
REMARK    4  A    between atoms: C15_18  and  C16_19 
ROOT
HETATM    1  C7  UNK     1      20.146  -3.276  37.048  1.00  0.00    -0.033 A 
HETATM    2  C10 UNK     1      20.491  -2.993  35.737  1.00  0.00     0.048 A 
HETATM    3  C11 UNK     1      19.778  -2.016  35.042  1.00  0.00     0.070 A 
HETATM    4  C14 UNK     1      19.113  -2.612  37.685  1.00  0.00     0.011 A 
HETATM    5  C17 UNK     1      18.732  -1.337  35.668  1.00  0.00     0.037 A 
HETATM    6  C18 UNK     1      18.399  -1.635  36.989  1.00  0.00     0.004 A 
ENDROOT
BRANCH   1   7
HETATM    7  C6  UNK     1      20.900  -4.309  37.784  1.00  0.00     0.031 C 
HETATM    8  C3  UNK     1      20.605  -5.608  37.832  1.00  0.00     0.067 A 
HETATM    9  C4  UNK     1      21.379  -6.630  38.579  1.00  0.00     0.197 A 
HETATM   10  C5  UNK     1      19.453  -6.244  37.144  1.00  0.00     0.197 A 
HETATM   11  C1  UNK     1      20.665  -7.890  38.323  1.00  0.00     0.029 A 
HETATM   12  O2  UNK     1      22.376  -6.477  39.252  1.00  0.00    -0.286 OA
HETATM   13  C2  UNK     1      19.557  -7.668  37.498  1.00  0.00     0.029 A 
HETATM   14  C8  UNK     1      20.978  -9.151  38.791  1.00  0.00     0.016 A 
HETATM   15  C9  UNK     1      18.724  -8.699  37.112  1.00  0.00     0.016 A 
HETATM   16  C13 UNK     1      19.029  -9.981  37.578  1.00  0.00     0.001 A 
HETATM   17  C12 UNK     1      20.144 -10.205  38.409  1.00  0.00     0.001 A 
HETATM   18  O3  UNK     1      18.611  -5.722  36.446  1.00  0.00    -0.286 OA
ENDBRANCH   1   7
BRANCH   3  19
HETATM   19  O1  UNK     1      20.102  -1.725  33.752  1.00  0.00    -0.347 OA
BRANCH  19  20
HETATM   20  C15 UNK     1      19.037  -1.327  32.889  1.00  0.00     0.214 C 
BRANCH  20  21
HETATM   21  C16 UNK     1      19.518  -1.054  31.503  1.00  0.00    -0.034 A 
HETATM   22  C19 UNK     1      20.085  -2.081  30.747  1.00  0.00     0.009 A 
HETATM   23  C21 UNK     1      20.535  -1.825  29.452  1.00  0.00     0.001 A 
HETATM   24  C23 UNK     1      20.419  -0.544  28.914  1.00  0.00     0.000 A 
HETATM   25  C22 UNK     1      19.854   0.483  29.670  1.00  0.00     0.001 A 
HETATM   26  C20 UNK     1      19.403   0.228  30.966  1.00  0.00     0.009 A 
ENDBRANCH  20  21
ENDBRANCH  19  20
ENDBRANCH   3  19
TORSDOF 4
ENDMDL
MODEL 4
REMARK VINA RESULT:      -9.4     22.322     24.644
REMARK  4 active torsions:
REMARK  status: ('A' for Active; 'I' for Inactive)
REMARK    1  A    between atoms: C11_14  and  O1_1 
REMARK    2  A    between atoms: C15_18  and  O1_1 
REMARK    3  A    between atoms: C6_9  and  C7_10 
REMARK    4  A    between atoms: C15_18  and  C16_19 
ROOT
HETATM    1  C7  UNK     1      11.258   5.689   7.460  1.00  0.00    -0.033 A 
HETATM    2  C10 UNK     1      10.105   5.701   8.227  1.00  0.00     0.048 A 
HETATM    3  C11 UNK     1       8.904   6.105   7.644  1.00  0.00     0.070 A 
HETATM    4  C14 UNK     1      11.246   6.068   6.129  1.00  0.00     0.011 A 
HETATM    5  C17 UNK     1       8.874   6.491   6.304  1.00  0.00     0.037 A 
HETATM    6  C18 UNK     1      10.045   6.473   5.546  1.00  0.00     0.004 A 
ENDROOT
BRANCH   1   7
HETATM    7  C6  UNK     1      12.529   5.262   8.076  1.00  0.00     0.031 C 
HETATM    8  C3  UNK     1      13.463   6.068   8.581  1.00  0.00     0.067 A 
HETATM    9  C4  UNK     1      14.735   5.615   9.198  1.00  0.00     0.197 A 
HETATM   10  C5  UNK     1      13.383   7.550   8.611  1.00  0.00     0.197 A 
HETATM   11  C1  UNK     1      15.412   6.858   9.595  1.00  0.00     0.029 A 
HETATM   12  O2  UNK     1      15.138   4.481   9.347  1.00  0.00    -0.286 OA
HETATM   13  C2  UNK     1      14.635   7.971   9.258  1.00  0.00     0.029 A 
HETATM   14  C8  UNK     1      16.638   6.993  10.217  1.00  0.00     0.016 A 
HETATM   15  C9  UNK     1      15.056   9.258   9.530  1.00  0.00     0.016 A 
HETATM   16  C13 UNK     1      16.295   9.410  10.158  1.00  0.00     0.001 A 
HETATM   17  C12 UNK     1      17.078   8.289  10.498  1.00  0.00     0.001 A 
HETATM   18  O3  UNK     1      12.495   8.264   8.199  1.00  0.00    -0.286 OA
ENDBRANCH   1   7
BRANCH   3  19
HETATM   19  O1  UNK     1       7.761   6.124   8.383  1.00  0.00    -0.347 OA
BRANCH  19  20
HETATM   20  C15 UNK     1       7.905   6.185   9.801  1.00  0.00     0.214 C 
BRANCH  20  21
HETATM   21  C16 UNK     1       7.075   5.153  10.488  1.00  0.00    -0.034 A 
HETATM   22  C19 UNK     1       6.579   5.398  11.770  1.00  0.00     0.009 A 
HETATM   23  C21 UNK     1       5.804   4.434  12.413  1.00  0.00     0.001 A 
HETATM   24  C23 UNK     1       5.525   3.225  11.775  1.00  0.00     0.000 A 
HETATM   25  C22 UNK     1       6.021   2.980  10.495  1.00  0.00     0.001 A 
HETATM   26  C20 UNK     1       6.796   3.944   9.851  1.00  0.00     0.009 A 
ENDBRANCH  20  21
ENDBRANCH  19  20
ENDBRANCH   3  19
TORSDOF 4
ENDMDL
MODEL 5
REMARK VINA RESULT:      -9.4      3.856      8.559
REMARK  4 active torsions:
REMARK  status: ('A' for Active; 'I' for Inactive)
REMARK    1  A    between atoms: C11_14  and  O1_1 
REMARK    2  A    between atoms: C15_18  and  O1_1 
REMARK    3  A    between atoms: C6_9  and  C7_10 
REMARK    4  A    between atoms: C15_18  and  C16_19 
ROOT
HETATM    1  C7  UNK     1      20.189  -1.323  31.190  1.00  0.00    -0.033 A 
HETATM    2  C10 UNK     1      19.938   0.036  31.096  1.00  0.00     0.048 A 
HETATM    3  C11 UNK     1      19.711   0.601  29.842  1.00  0.00     0.070 A 
HETATM    4  C14 UNK     1      20.218  -2.133  30.069  1.00  0.00     0.011 A 
HETATM    5  C17 UNK     1      19.737  -0.200  28.700  1.00  0.00     0.037 A 
HETATM    6  C18 UNK     1      19.991  -1.567  28.813  1.00  0.00     0.004 A 
ENDROOT
BRANCH   1   7
HETATM    7  C6  UNK     1      20.429  -1.921  32.517  1.00  0.00     0.031 C 
HETATM    8  C3  UNK     1      19.740  -1.662  33.629  1.00  0.00     0.067 A 
HETATM    9  C4  UNK     1      19.999  -2.277  34.954  1.00  0.00     0.197 A 
HETATM   10  C5  UNK     1      18.599  -0.717  33.721  1.00  0.00     0.197 A 
HETATM   11  C1  UNK     1      18.990  -1.678  35.840  1.00  0.00     0.029 A 
HETATM   12  O2  UNK     1      20.847  -3.091  35.255  1.00  0.00    -0.286 OA
HETATM   13  C2  UNK     1      18.184  -0.781  35.131  1.00  0.00     0.029 A 
HETATM   14  C8  UNK     1      18.798  -1.916  37.187  1.00  0.00     0.016 A 
HETATM   15  C9  UNK     1      17.158  -0.089  35.744  1.00  0.00     0.016 A 
HETATM   16  C13 UNK     1      16.952  -0.318  37.107  1.00  0.00     0.001 A 
HETATM   17  C12 UNK     1      17.763  -1.222  37.821  1.00  0.00     0.001 A 
HETATM   18  O3  UNK     1      18.109  -0.039  32.844  1.00  0.00    -0.286 OA
ENDBRANCH   1   7
BRANCH   3  19
HETATM   19  O1  UNK     1      19.464   1.935  29.730  1.00  0.00    -0.347 OA
BRANCH  19  20
HETATM   20  C15 UNK     1      18.335   2.448  30.436  1.00  0.00     0.214 C 
BRANCH  20  21
HETATM   21  C16 UNK     1      18.584   3.822  30.960  1.00  0.00    -0.034 A 
HETATM   22  C19 UNK     1      19.238   4.763  30.164  1.00  0.00     0.009 A 
HETATM   23  C21 UNK     1      19.472   6.048  30.654  1.00  0.00     0.001 A 
HETATM   24  C23 UNK     1      19.051   6.392  31.939  1.00  0.00     0.000 A 
HETATM   25  C22 UNK     1      18.398   5.451  32.734  1.00  0.00     0.001 A 
HETATM   26  C20 UNK     1      18.164   4.165  32.244  1.00  0.00     0.009 A 
ENDBRANCH  20  21
ENDBRANCH  19  20
ENDBRANCH   3  19
TORSDOF 4
ENDMDL
MODEL 6
REMARK VINA RESULT:      -9.4     22.272     24.671
REMARK  4 active torsions:
REMARK  status: ('A' for Active; 'I' for Inactive)
REMARK    1  A    between atoms: C11_14  and  O1_1 
REMARK    2  A    between atoms: C15_18  and  O1_1 
REMARK    3  A    between atoms: C6_9  and  C7_10 
REMARK    4  A    between atoms: C15_18  and  C16_19 
ROOT
HETATM    1  C7  UNK     1      11.247   5.686   7.495  1.00  0.00    -0.033 A 
HETATM    2  C10 UNK     1      10.099   5.759   8.266  1.00  0.00     0.048 A 
HETATM    3  C11 UNK     1       8.905   6.165   7.672  1.00  0.00     0.070 A 
HETATM    4  C14 UNK     1      11.236   6.006   6.149  1.00  0.00     0.011 A 
HETATM    5  C17 UNK     1       8.875   6.491   6.316  1.00  0.00     0.037 A 
HETATM    6  C18 UNK     1      10.041   6.413   5.554  1.00  0.00     0.004 A 
ENDROOT
BRANCH   1   7
HETATM    7  C6  UNK     1      12.511   5.257   8.123  1.00  0.00     0.031 C 
HETATM    8  C3  UNK     1      13.458   6.062   8.606  1.00  0.00     0.067 A 
HETATM    9  C4  UNK     1      14.723   5.607   9.235  1.00  0.00     0.197 A 
HETATM   10  C5  UNK     1      13.400   7.545   8.594  1.00  0.00     0.197 A 
HETATM   11  C1  UNK     1      15.419   6.850   9.598  1.00  0.00     0.029 A 
HETATM   12  O2  UNK     1      15.109   4.472   9.416  1.00  0.00    -0.286 OA
HETATM   13  C2  UNK     1      14.659   7.965   9.230  1.00  0.00     0.029 A 
HETATM   14  C8  UNK     1      16.647   6.983  10.216  1.00  0.00     0.016 A 
HETATM   15  C9  UNK     1      15.100   9.252   9.466  1.00  0.00     0.016 A 
HETATM   16  C13 UNK     1      16.340   9.403  10.091  1.00  0.00     0.001 A 
HETATM   17  C12 UNK     1      17.107   8.280  10.462  1.00  0.00     0.001 A 
HETATM   18  O3  UNK     1      12.523   8.262   8.163  1.00  0.00    -0.286 OA
ENDBRANCH   1   7
BRANCH   3  19
HETATM   19  O1  UNK     1       7.767   6.243   8.415  1.00  0.00    -0.347 OA
BRANCH  19  20
HETATM   20  C15 UNK     1       7.682   5.402   9.564  1.00  0.00     0.214 C 
BRANCH  20  21
HETATM   21  C16 UNK     1       7.042   6.099  10.717  1.00  0.00    -0.034 A 
HETATM   22  C19 UNK     1       6.996   7.494  10.750  1.00  0.00     0.009 A 
HETATM   23  C21 UNK     1       6.398   8.145  11.828  1.00  0.00     0.001 A 
HETATM   24  C23 UNK     1       5.846   7.404  12.873  1.00  0.00     0.000 A 
HETATM   25  C22 UNK     1       5.893   6.011  12.840  1.00  0.00     0.001 A 
HETATM   26  C20 UNK     1       6.491   5.358  11.762  1.00  0.00     0.009 A 
ENDBRANCH  20  21
ENDBRANCH  19  20
ENDBRANCH   3  19
TORSDOF 4
ENDMDL
MODEL 7
REMARK VINA RESULT:      -9.2     22.385     24.341
REMARK  4 active torsions:
REMARK  status: ('A' for Active; 'I' for Inactive)
REMARK    1  A    between atoms: C11_14  and  O1_1 
REMARK    2  A    between atoms: C15_18  and  O1_1 
REMARK    3  A    between atoms: C6_9  and  C7_10 
REMARK    4  A    between atoms: C15_18  and  C16_19 
ROOT
HETATM    1  C7  UNK     1       8.881   6.542   8.328  1.00  0.00    -0.033 A 
HETATM    2  C10 UNK     1      10.194   6.112   8.432  1.00  0.00     0.048 A 
HETATM    3  C11 UNK     1      10.924   5.869   7.270  1.00  0.00     0.070 A 
HETATM    4  C14 UNK     1       8.279   6.736   7.098  1.00  0.00     0.011 A 
HETATM    5  C17 UNK     1      10.333   6.059   6.021  1.00  0.00     0.037 A 
HETATM    6  C18 UNK     1       9.009   6.492   5.935  1.00  0.00     0.004 A 
ENDROOT
BRANCH   1   7
HETATM    7  C6  UNK     1       8.108   6.800   9.558  1.00  0.00     0.031 C 
HETATM    8  C3  UNK     1       7.378   5.906  10.225  1.00  0.00     0.067 A 
HETATM    9  C4  UNK     1       6.608   6.187  11.462  1.00  0.00     0.197 A 
HETATM   10  C5  UNK     1       7.219   4.481   9.840  1.00  0.00     0.197 A 
HETATM   11  C1  UNK     1       5.984   4.901  11.806  1.00  0.00     0.029 A 
HETATM   12  O2  UNK     1       6.506   7.235  12.064  1.00  0.00    -0.286 OA
HETATM   13  C2  UNK     1       6.335   3.919  10.874  1.00  0.00     0.029 A 
HETATM   14  C8  UNK     1       5.160   4.620  12.878  1.00  0.00     0.016 A 
HETATM   15  C9  UNK     1       5.875   2.622  10.980  1.00  0.00     0.016 A 
HETATM   16  C13 UNK     1       5.040   2.322  12.060  1.00  0.00     0.001 A 
HETATM   17  C12 UNK     1       4.686   3.311  12.999  1.00  0.00     0.001 A 
HETATM   18  O3  UNK     1       7.700   3.898   8.892  1.00  0.00    -0.286 OA
ENDBRANCH   1   7
BRANCH   3  19
HETATM   19  O1  UNK     1      12.215   5.446   7.353  1.00  0.00    -0.347 OA
BRANCH  19  20
HETATM   20  C15 UNK     1      12.654   4.943   8.614  1.00  0.00     0.214 C 
BRANCH  20  21
HETATM   21  C16 UNK     1      13.797   5.733   9.160  1.00  0.00    -0.034 A 
HETATM   22  C19 UNK     1      15.019   5.109   9.411  1.00  0.00     0.009 A 
HETATM   23  C21 UNK     1      16.086   5.847   9.921  1.00  0.00     0.001 A 
HETATM   24  C23 UNK     1      15.932   7.208  10.181  1.00  0.00     0.000 A 
HETATM   25  C22 UNK     1      14.710   7.832   9.932  1.00  0.00     0.001 A 
HETATM   26  C20 UNK     1      13.642   7.094   9.421  1.00  0.00     0.009 A 
ENDBRANCH  20  21
ENDBRANCH  19  20
ENDBRANCH   3  19
TORSDOF 4
ENDMDL
MODEL 8
REMARK VINA RESULT:      -8.9     15.045     17.984
REMARK  4 active torsions:
REMARK  status: ('A' for Active; 'I' for Inactive)
REMARK    1  A    between atoms: C11_14  and  O1_1 
REMARK    2  A    between atoms: C15_18  and  O1_1 
REMARK    3  A    between atoms: C6_9  and  C7_10 
REMARK    4  A    between atoms: C15_18  and  C16_19 
ROOT
HETATM    1  C7  UNK     1      27.691  -7.182  39.125  1.00  0.00    -0.033 A 
HETATM    2  C10 UNK     1      26.429  -6.754  38.744  1.00  0.00     0.048 A 
HETATM    3  C11 UNK     1      25.371  -7.662  38.753  1.00  0.00     0.070 A 
HETATM    4  C14 UNK     1      27.924  -8.489  39.514  1.00  0.00     0.011 A 
HETATM    5  C17 UNK     1      25.588  -8.983  39.143  1.00  0.00     0.037 A 
HETATM    6  C18 UNK     1      26.865  -9.398  39.523  1.00  0.00     0.004 A 
ENDROOT
BRANCH   1   7
HETATM    7  C6  UNK     1      28.811  -6.222  39.116  1.00  0.00     0.031 C 
HETATM    8  C3  UNK     1      29.566  -5.911  38.062  1.00  0.00     0.067 A 
HETATM    9  C4  UNK     1      30.688  -4.940  38.076  1.00  0.00     0.197 A 
HETATM   10  C5  UNK     1      29.405  -6.483  36.702  1.00  0.00     0.197 A 
HETATM   11  C1  UNK     1      31.195  -4.946  36.696  1.00  0.00     0.029 A 
HETATM   12  O2  UNK     1      31.105  -4.283  39.006  1.00  0.00    -0.286 OA
HETATM   13  C2  UNK     1      30.457  -5.833  35.905  1.00  0.00     0.029 A 
HETATM   14  C8  UNK     1      32.242  -4.211  36.175  1.00  0.00     0.016 A 
HETATM   15  C9  UNK     1      30.740  -6.017  34.566  1.00  0.00     0.016 A 
HETATM   16  C13 UNK     1      31.797  -5.280  34.025  1.00  0.00     0.001 A 
HETATM   17  C12 UNK     1      32.541  -4.386  34.821  1.00  0.00     0.001 A 
HETATM   18  O3  UNK     1      28.596  -7.301  36.319  1.00  0.00    -0.286 OA
ENDBRANCH   1   7
BRANCH   3  19
HETATM   19  O1  UNK     1      24.125  -7.259  38.382  1.00  0.00    -0.347 OA
BRANCH  19  20
HETATM   20  C15 UNK     1      23.232  -6.866  39.422  1.00  0.00     0.214 C 
BRANCH  20  21
HETATM   21  C16 UNK     1      21.850  -7.379  39.191  1.00  0.00    -0.034 A 
HETATM   22  C19 UNK     1      20.856  -6.518  38.722  1.00  0.00     0.009 A 
HETATM   23  C21 UNK     1      19.565  -6.997  38.507  1.00  0.00     0.001 A 
HETATM   24  C23 UNK     1      19.266  -8.336  38.759  1.00  0.00     0.000 A 
HETATM   25  C22 UNK     1      20.258  -9.196  39.228  1.00  0.00     0.001 A 
HETATM   26  C20 UNK     1      21.551  -8.717  39.444  1.00  0.00     0.009 A 
ENDBRANCH  20  21
ENDBRANCH  19  20
ENDBRANCH   3  19
TORSDOF 4
ENDMDL
MODEL 9
REMARK VINA RESULT:      -8.7      8.204     11.469
REMARK  4 active torsions:
REMARK  status: ('A' for Active; 'I' for Inactive)
REMARK    1  A    between atoms: C11_14  and  O1_1 
REMARK    2  A    between atoms: C15_18  and  O1_1 
REMARK    3  A    between atoms: C6_9  and  C7_10 
REMARK    4  A    between atoms: C15_18  and  C16_19 
ROOT
HETATM    1  C7  UNK     1      20.163  -4.470  36.595  1.00  0.00    -0.033 A 
HETATM    2  C10 UNK     1      19.242  -5.500  36.691  1.00  0.00     0.048 A 
HETATM    3  C11 UNK     1      19.438  -6.501  37.642  1.00  0.00     0.070 A 
HETATM    4  C14 UNK     1      21.271  -4.410  37.421  1.00  0.00     0.011 A 
HETATM    5  C17 UNK     1      20.550  -6.457  38.483  1.00  0.00     0.037 A 
HETATM    6  C18 UNK     1      21.467  -5.412  38.373  1.00  0.00     0.004 A 
ENDROOT
BRANCH   1   7
HETATM    7  C6  UNK     1      19.956  -3.410  35.589  1.00  0.00     0.031 C 
HETATM    8  C3  UNK     1      19.378  -2.229  35.805  1.00  0.00     0.067 A 
HETATM    9  C4  UNK     1      19.181  -1.177  34.776  1.00  0.00     0.197 A 
HETATM   10  C5  UNK     1      18.838  -1.772  37.110  1.00  0.00     0.197 A 
HETATM   11  C1  UNK     1      18.511  -0.083  35.495  1.00  0.00     0.029 A 
HETATM   12  O2  UNK     1      19.496  -1.200  33.606  1.00  0.00    -0.286 OA
HETATM   13  C2  UNK     1      18.314  -0.424  36.837  1.00  0.00     0.029 A 
HETATM   14  C8  UNK     1      18.105   1.137  34.991  1.00  0.00     0.016 A 
HETATM   15  C9  UNK     1      17.703   0.442  37.722  1.00  0.00     0.016 A 
HETATM   16  C13 UNK     1      17.286   1.680  37.226  1.00  0.00     0.001 A 
HETATM   17  C12 UNK     1      17.484   2.024  35.874  1.00  0.00     0.001 A 
HETATM   18  O3  UNK     1      18.824  -2.362  38.168  1.00  0.00    -0.286 OA
ENDBRANCH   1   7
BRANCH   3  19
HETATM   19  O1  UNK     1      18.544  -7.522  37.750  1.00  0.00    -0.347 OA
BRANCH  19  20
HETATM   20  C15 UNK     1      18.457  -8.428  36.652  1.00  0.00     0.214 C 
BRANCH  20  21
HETATM   21  C16 UNK     1      19.717  -9.207  36.474  1.00  0.00    -0.034 A 
HETATM   22  C19 UNK     1      20.649  -8.814  35.513  1.00  0.00     0.009 A 
HETATM   23  C21 UNK     1      21.827  -9.543  35.346  1.00  0.00     0.001 A 
HETATM   24  C23 UNK     1      22.072 -10.663  36.139  1.00  0.00     0.000 A 
HETATM   25  C22 UNK     1      21.140 -11.057  37.099  1.00  0.00     0.001 A 
HETATM   26  C20 UNK     1      19.962 -10.328  37.267  1.00  0.00     0.009 A 
ENDBRANCH  20  21
ENDBRANCH  19  20
ENDBRANCH   3  19
TORSDOF 4
ENDMDL
MODEL 10
REMARK VINA RESULT:      -8.7     22.286     24.635
REMARK  4 active torsions:
REMARK  status: ('A' for Active; 'I' for Inactive)
REMARK    1  A    between atoms: C11_14  and  O1_1 
REMARK    2  A    between atoms: C15_18  and  O1_1 
REMARK    3  A    between atoms: C6_9  and  C7_10 
REMARK    4  A    between atoms: C15_18  and  C16_19 
ROOT
HETATM    1  C7  UNK     1      11.595   5.553   7.942  1.00  0.00    -0.033 A 
HETATM    2  C10 UNK     1      10.568   5.594   8.871  1.00  0.00     0.048 A 
HETATM    3  C11 UNK     1       9.277   5.899   8.443  1.00  0.00     0.070 A 
HETATM    4  C14 UNK     1      11.369   5.806   6.601  1.00  0.00     0.011 A 
HETATM    5  C17 UNK     1       9.030   6.157   7.095  1.00  0.00     0.037 A 
HETATM    6  C18 UNK     1      10.077   6.112   6.173  1.00  0.00     0.004 A 
ENDROOT
BRANCH   1   7
HETATM    7  C6  UNK     1      12.962   5.230   8.394  1.00  0.00     0.031 C 
HETATM    8  C3  UNK     1      13.873   6.106   8.820  1.00  0.00     0.067 A 
HETATM    9  C4  UNK     1      15.244   5.758   9.271  1.00  0.00     0.197 A 
HETATM   10  C5  UNK     1      13.663   7.573   8.914  1.00  0.00     0.197 A 
HETATM   11  C1  UNK     1      15.847   7.048   9.635  1.00  0.00     0.029 A 
HETATM   12  O2  UNK     1      15.762   4.664   9.330  1.00  0.00    -0.286 OA
HETATM   13  C2  UNK     1      14.939   8.092   9.431  1.00  0.00     0.029 A 
HETATM   14  C8  UNK     1      17.120   7.281  10.119  1.00  0.00     0.016 A 
HETATM   15  C9  UNK     1      15.271   9.405   9.702  1.00  0.00     0.016 A 
HETATM   16  C13 UNK     1      16.555   9.655  10.191  1.00  0.00     0.001 A 
HETATM   17  C12 UNK     1      17.471   8.605  10.397  1.00  0.00     0.001 A 
HETATM   18  O3  UNK     1      12.672   8.212   8.634  1.00  0.00    -0.286 OA
ENDBRANCH   1   7
BRANCH   3  19
HETATM   19  O1  UNK     1       8.255   5.944   9.342  1.00  0.00    -0.347 OA
BRANCH  19  20
HETATM   20  C15 UNK     1       7.277   6.967   9.161  1.00  0.00     0.214 C 
BRANCH  20  21
HETATM   21  C16 UNK     1       7.581   8.177   9.979  1.00  0.00    -0.034 A 
HETATM   22  C19 UNK     1       6.661   8.627  10.927  1.00  0.00     0.009 A 
HETATM   23  C21 UNK     1       6.946   9.759  11.690  1.00  0.00     0.001 A 
HETATM   24  C23 UNK     1       8.148  10.441  11.506  1.00  0.00     0.000 A 
HETATM   25  C22 UNK     1       9.067   9.992  10.557  1.00  0.00     0.001 A 
HETATM   26  C20 UNK     1       8.783   8.860   9.794  1.00  0.00     0.009 A 
ENDBRANCH  20  21
ENDBRANCH  19  20
ENDBRANCH   3  19
TORSDOF 4
ENDMDL
