MODEL 1
REMARK VINA RESULT:      -9.3      0.000      0.000
REMARK  4 active torsions:
REMARK  status: ('A' for Active; 'I' for Inactive)
REMARK       I    between atoms: C17_25  and  N1_6 
REMARK    1  A    between atoms: N1_6  and  N2_7 
REMARK    2  A    between atoms: C14_22  and  N3_8 
REMARK    3  A    between atoms: C11_19  and  C4_12 
REMARK    4  A    between atoms: C10_18  and  C17_25 
ROOT
HETATM    1  O3  UNK     1      21.283  -3.460  32.471  1.00  0.00    -0.266 OA
HETATM    2  N1  UNK     1      20.159  -2.417  34.204  1.00  0.00    -0.243 N 
HETATM    3  C17 UNK     1      20.578  -2.547  32.894  1.00  0.00     0.271 C 
HETATM    4  H11 UNK     1      19.624  -1.628  34.553  1.00  0.00     0.192 HD
ENDROOT
BRANCH   2   5
HETATM    5  N2  UNK     1      20.543  -3.355  35.102  1.00  0.00    -0.183 NA
HETATM    6  C11 UNK     1      19.580  -4.114  35.516  1.00  0.00     0.156 C 
BRANCH   6   7
HETATM    7  C4  UNK     1      19.788  -5.188  36.487  1.00  0.00     0.056 A 
HETATM    8  C3  UNK     1      19.195  -6.536  36.355  1.00  0.00     0.198 A 
HETATM    9  C1  UNK     1      19.515  -7.491  37.433  1.00  0.00     0.049 A 
HETATM   10  O2  UNK     1      18.479  -6.844  35.412  1.00  0.00    -0.286 OA
HETATM   11  C2  UNK     1      20.337  -7.077  38.484  1.00  0.00     0.089 A 
HETATM   12  C5  UNK     1      19.007  -8.792  37.407  1.00  0.00     0.018 A 
HETATM   13  O1  UNK     1      20.864  -5.812  38.562  1.00  0.00    -0.321 OA
HETATM   14  C6  UNK     1      20.652  -7.964  39.514  1.00  0.00     0.038 A 
HETATM   15  C7  UNK     1      20.558  -4.931  37.550  1.00  0.00     0.159 A 
HETATM   16  C9  UNK     1      20.145  -9.263  39.491  1.00  0.00     0.003 A 
HETATM   17  C8  UNK     1      19.325  -9.675  38.439  1.00  0.00     0.001 A 
ENDBRANCH   6   7
ENDBRANCH   2   5
BRANCH   3  18
HETATM   18  C10 UNK     1      20.140  -1.473  31.964  1.00  0.00     0.033 A 
HETATM   19  C12 UNK     1      20.596  -1.491  30.664  1.00  0.00     0.019 A 
HETATM   20  C15 UNK     1      20.185  -0.481  29.791  1.00  0.00     0.037 A 
HETATM   21  C14 UNK     1      19.328   0.522  30.242  1.00  0.00     0.102 A 
HETATM   22  C16 UNK     1      18.881   0.517  31.563  1.00  0.00     0.037 A 
HETATM   23  C13 UNK     1      19.292  -0.493  32.434  1.00  0.00     0.019 A 
BRANCH  21  24
HETATM   24  N3  UNK     1      18.911   1.550  29.356  1.00  0.00    -0.116 N 
HETATM   25  O4  UNK     1      18.928   2.740  29.755  1.00  0.00    -0.532 OA
HETATM   26  O5  UNK     1      18.539   1.242  28.198  1.00  0.00    -0.532 OA
ENDBRANCH  21  24
ENDBRANCH   3  18
TORSDOF 4
ENDMDL
MODEL 2
REMARK VINA RESULT:      -9.2      6.587     10.406
REMARK  4 active torsions:
REMARK  status: ('A' for Active; 'I' for Inactive)
REMARK       I    between atoms: C17_25  and  N1_6 
REMARK    1  A    between atoms: N1_6  and  N2_7 
REMARK    2  A    between atoms: C14_22  and  N3_8 
REMARK    3  A    between atoms: C11_19  and  C4_12 
REMARK    4  A    between atoms: C10_18  and  C17_25 
ROOT
HETATM    1  O3  UNK     1      19.695   6.909  32.625  1.00  0.00    -0.266 OA
HETATM    2  N1  UNK     1      17.832   5.583  32.260  1.00  0.00    -0.243 N 
HETATM    3  C17 UNK     1      18.483   6.720  32.702  1.00  0.00     0.271 C 
HETATM    4  H11 UNK     1      16.838   5.416  32.380  1.00  0.00     0.192 HD
ENDROOT
BRANCH   2   5
HETATM    5  N2  UNK     1      18.567   4.594  31.700  1.00  0.00    -0.183 NA
HETATM    6  C11 UNK     1      17.929   3.477  31.563  1.00  0.00     0.156 C 
BRANCH   6   7
HETATM    7  C4  UNK     1      18.545   2.286  30.979  1.00  0.00     0.056 A 
HETATM    8  C3  UNK     1      18.876   1.071  31.756  1.00  0.00     0.198 A 
HETATM    9  C1  UNK     1      19.495  -0.032  30.997  1.00  0.00     0.049 A 
HETATM   10  O2  UNK     1      18.654   0.985  32.956  1.00  0.00    -0.286 OA
HETATM   11  C2  UNK     1      19.725   0.130  29.629  1.00  0.00     0.089 A 
HETATM   12  C5  UNK     1      19.848  -1.225  31.634  1.00  0.00     0.018 A 
HETATM   13  O1  UNK     1      19.399   1.280  28.952  1.00  0.00    -0.321 OA
HETATM   14  C6  UNK     1      20.310  -0.900  28.892  1.00  0.00     0.038 A 
HETATM   15  C7  UNK     1      18.823   2.301  29.670  1.00  0.00     0.159 A 
HETATM   16  C9  UNK     1      20.663  -2.092  29.526  1.00  0.00     0.003 A 
HETATM   17  C8  UNK     1      20.431  -2.253  30.892  1.00  0.00     0.001 A 
ENDBRANCH   6   7
ENDBRANCH   2   5
BRANCH   3  18
HETATM   18  C10 UNK     1      17.621   7.758  33.326  1.00  0.00     0.033 A 
HETATM   19  C12 UNK     1      18.141   9.017  33.535  1.00  0.00     0.019 A 
HETATM   20  C15 UNK     1      17.332   9.991  34.123  1.00  0.00     0.037 A 
HETATM   21  C14 UNK     1      16.022   9.682  34.488  1.00  0.00     0.102 A 
HETATM   22  C16 UNK     1      15.520   8.399  34.265  1.00  0.00     0.037 A 
HETATM   23  C13 UNK     1      16.330   7.426  33.677  1.00  0.00     0.019 A 
BRANCH  21  24
HETATM   24  N3  UNK     1      15.199  10.671  35.087  1.00  0.00    -0.116 N 
HETATM   25  O4  UNK     1      13.952  10.562  34.995  1.00  0.00    -0.532 OA
HETATM   26  O5  UNK     1      15.741  11.627  35.693  1.00  0.00    -0.532 OA
ENDBRANCH  21  24
ENDBRANCH   3  18
TORSDOF 4
ENDMDL
MODEL 3
REMARK VINA RESULT:      -8.9      0.955      2.107
REMARK  4 active torsions:
REMARK  status: ('A' for Active; 'I' for Inactive)
REMARK       I    between atoms: C17_25  and  N1_6 
REMARK    1  A    between atoms: N1_6  and  N2_7 
REMARK    2  A    between atoms: C14_22  and  N3_8 
REMARK    3  A    between atoms: C11_19  and  C4_12 
REMARK    4  A    between atoms: C10_18  and  C17_25 
ROOT
HETATM    1  O3  UNK     1      21.261  -3.530  32.321  1.00  0.00    -0.266 OA
HETATM    2  N1  UNK     1      20.089  -2.777  34.170  1.00  0.00    -0.243 N 
HETATM    3  C17 UNK     1      20.541  -2.697  32.866  1.00  0.00     0.271 C 
HETATM    4  H11 UNK     1      19.542  -2.055  34.626  1.00  0.00     0.192 HD
ENDROOT
BRANCH   2   5
HETATM    5  N2  UNK     1      20.458  -3.844  34.917  1.00  0.00    -0.183 NA
HETATM    6  C11 UNK     1      19.597  -4.175  35.825  1.00  0.00     0.156 C 
BRANCH   6   7
HETATM    7  C4  UNK     1      19.809  -5.299  36.735  1.00  0.00     0.056 A 
HETATM    8  C3  UNK     1      21.053  -5.503  37.510  1.00  0.00     0.198 A 
HETATM    9  C1  UNK     1      21.085  -6.695  38.378  1.00  0.00     0.049 A 
HETATM   10  O2  UNK     1      22.000  -4.733  37.435  1.00  0.00    -0.286 OA
HETATM   11  C2  UNK     1      19.971  -7.536  38.418  1.00  0.00     0.089 A 
HETATM   12  C5  UNK     1      22.212  -6.982  39.153  1.00  0.00     0.018 A 
HETATM   13  O1  UNK     1      18.837  -7.304  37.678  1.00  0.00    -0.321 OA
HETATM   14  C6  UNK     1      19.980  -8.670  39.231  1.00  0.00     0.038 A 
HETATM   15  C7  UNK     1      18.820  -6.190  36.872  1.00  0.00     0.159 A 
HETATM   16  C9  UNK     1      21.105  -8.958  40.005  1.00  0.00     0.003 A 
HETATM   17  C8  UNK     1      22.216  -8.116  39.966  1.00  0.00     0.001 A 
ENDBRANCH   6   7
ENDBRANCH   2   5
BRANCH   3  18
HETATM   18  C10 UNK     1      20.117  -1.490  32.108  1.00  0.00     0.033 A 
HETATM   19  C12 UNK     1      19.130  -0.685  32.634  1.00  0.00     0.019 A 
HETATM   20  C15 UNK     1      18.731   0.446  31.921  1.00  0.00     0.037 A 
HETATM   21  C14 UNK     1      19.331   0.746  30.697  1.00  0.00     0.102 A 
HETATM   22  C16 UNK     1      20.328  -0.086  30.187  1.00  0.00     0.037 A 
HETATM   23  C13 UNK     1      20.726  -1.217  30.901  1.00  0.00     0.019 A 
BRANCH  21  24
HETATM   24  N3  UNK     1      18.924   1.895  29.970  1.00  0.00    -0.116 N 
HETATM   25  O4  UNK     1      18.668   1.782  28.747  1.00  0.00    -0.532 OA
HETATM   26  O5  UNK     1      18.832   2.993  30.571  1.00  0.00    -0.532 OA
ENDBRANCH  21  24
ENDBRANCH   3  18
TORSDOF 4
ENDMDL
MODEL 4
REMARK VINA RESULT:      -8.9      7.502     12.837
REMARK  4 active torsions:
REMARK  status: ('A' for Active; 'I' for Inactive)
REMARK       I    between atoms: C17_25  and  N1_6 
REMARK    1  A    between atoms: N1_6  and  N2_7 
REMARK    2  A    between atoms: C14_22  and  N3_8 
REMARK    3  A    between atoms: C11_19  and  C4_12 
REMARK    4  A    between atoms: C10_18  and  C17_25 
ROOT
HETATM    1  O3  UNK     1      18.014   3.088  33.660  1.00  0.00    -0.266 OA
HETATM    2  N1  UNK     1      17.592   4.614  31.972  1.00  0.00    -0.243 N 
HETATM    3  C17 UNK     1      18.004   3.393  32.470  1.00  0.00     0.271 C 
HETATM    4  H11 UNK     1      17.642   4.873  30.992  1.00  0.00     0.192 HD
ENDROOT
BRANCH   2   5
HETATM    5  N2  UNK     1      17.165   5.557  32.844  1.00  0.00    -0.183 NA
HETATM    6  C11 UNK     1      16.588   6.571  32.284  1.00  0.00     0.156 C 
BRANCH   6   7
HETATM    7  C4  UNK     1      16.058   7.696  33.052  1.00  0.00     0.056 A 
HETATM    8  C3  UNK     1      16.822   8.933  33.327  1.00  0.00     0.198 A 
HETATM    9  C1  UNK     1      16.122   9.962  34.119  1.00  0.00     0.049 A 
HETATM   10  O2  UNK     1      17.966   9.095  32.924  1.00  0.00    -0.286 OA
HETATM   11  C2  UNK     1      14.817   9.715  34.550  1.00  0.00     0.089 A 
HETATM   12  C5  UNK     1      16.753  11.168  34.435  1.00  0.00     0.018 A 
HETATM   13  O1  UNK     1      14.149   8.549  34.270  1.00  0.00    -0.321 OA
HETATM   14  C6  UNK     1      14.138  10.675  35.302  1.00  0.00     0.038 A 
HETATM   15  C7  UNK     1      14.812   7.598  33.530  1.00  0.00     0.159 A 
HETATM   16  C9  UNK     1      14.765  11.879  35.619  1.00  0.00     0.003 A 
HETATM   17  C8  UNK     1      16.069  12.125  35.186  1.00  0.00     0.001 A 
ENDBRANCH   6   7
ENDBRANCH   2   5
BRANCH   3  18
HETATM   18  C10 UNK     1      18.481   2.410  31.462  1.00  0.00     0.033 A 
HETATM   19  C12 UNK     1      18.992   1.205  31.896  1.00  0.00     0.019 A 
HETATM   20  C15 UNK     1      19.442   0.283  30.948  1.00  0.00     0.037 A 
HETATM   21  C14 UNK     1      19.369   0.589  29.589  1.00  0.00     0.102 A 
HETATM   22  C16 UNK     1      18.847   1.815  29.177  1.00  0.00     0.037 A 
HETATM   23  C13 UNK     1      18.398   2.736  30.125  1.00  0.00     0.019 A 
BRANCH  21  24
HETATM   24  N3  UNK     1      19.827  -0.347  28.626  1.00  0.00    -0.116 N 
HETATM   25  O4  UNK     1      19.100  -0.607  27.636  1.00  0.00    -0.532 OA
HETATM   26  O5  UNK     1      20.947  -0.889  28.789  1.00  0.00    -0.532 OA
ENDBRANCH  21  24
ENDBRANCH   3  18
TORSDOF 4
ENDMDL
MODEL 5
REMARK VINA RESULT:      -8.9      2.879      3.516
REMARK  4 active torsions:
REMARK  status: ('A' for Active; 'I' for Inactive)
REMARK       I    between atoms: C17_25  and  N1_6 
REMARK    1  A    between atoms: N1_6  and  N2_7 
REMARK    2  A    between atoms: C14_22  and  N3_8 
REMARK    3  A    between atoms: C11_19  and  C4_12 
REMARK    4  A    between atoms: C10_18  and  C17_25 
ROOT
HETATM    1  O3  UNK     1      17.678  -1.840  37.268  1.00  0.00    -0.266 OA
HETATM    2  N1  UNK     1      19.379  -2.550  35.867  1.00  0.00    -0.243 N 
HETATM    3  C17 UNK     1      18.441  -1.644  36.325  1.00  0.00     0.271 C 
HETATM    4  H11 UNK     1      19.963  -2.398  35.052  1.00  0.00     0.192 HD
ENDROOT
BRANCH   2   5
HETATM    5  N2  UNK     1      19.478  -3.748  36.491  1.00  0.00    -0.183 NA
HETATM    6  C11 UNK     1      19.899  -4.705  35.728  1.00  0.00     0.156 C 
BRANCH   6   7
HETATM    7  C4  UNK     1      20.075  -6.074  36.211  1.00  0.00     0.056 A 
HETATM    8  C3  UNK     1      20.609  -7.174  35.378  1.00  0.00     0.198 A 
HETATM    9  C1  UNK     1      20.716  -8.490  36.036  1.00  0.00     0.049 A 
HETATM   10  O2  UNK     1      20.940  -7.006  34.212  1.00  0.00    -0.286 OA
HETATM   11  C2  UNK     1      20.319  -8.616  37.369  1.00  0.00     0.089 A 
HETATM   12  C5  UNK     1      21.207  -9.597  35.339  1.00  0.00     0.018 A 
HETATM   13  O1  UNK     1      19.828  -7.564  38.101  1.00  0.00    -0.321 OA
HETATM   14  C6  UNK     1      20.410  -9.852  38.010  1.00  0.00     0.038 A 
HETATM   15  C7  UNK     1      19.733  -6.342  37.476  1.00  0.00     0.159 A 
HETATM   16  C9  UNK     1      20.901 -10.958  37.316  1.00  0.00     0.003 A 
HETATM   17  C8  UNK     1      21.298 -10.830  35.985  1.00  0.00     0.001 A 
ENDBRANCH   6   7
ENDBRANCH   2   5
BRANCH   3  18
HETATM   18  C10 UNK     1      18.368  -0.358  35.583  1.00  0.00     0.033 A 
HETATM   19  C12 UNK     1      18.332  -0.384  34.205  1.00  0.00     0.019 A 
HETATM   20  C15 UNK     1      18.266   0.824  33.510  1.00  0.00     0.037 A 
HETATM   21  C14 UNK     1      18.236   2.030  34.209  1.00  0.00     0.102 A 
HETATM   22  C16 UNK     1      18.273   2.029  35.604  1.00  0.00     0.037 A 
HETATM   23  C13 UNK     1      18.340   0.821  36.299  1.00  0.00     0.019 A 
BRANCH  21  24
HETATM   24  N3  UNK     1      18.170   3.260  33.502  1.00  0.00    -0.116 N 
HETATM   25  O4  UNK     1      17.793   3.252  32.305  1.00  0.00    -0.532 OA
HETATM   26  O5  UNK     1      18.491   4.319  34.093  1.00  0.00    -0.532 OA
ENDBRANCH  21  24
ENDBRANCH   3  18
TORSDOF 4
ENDMDL
MODEL 6
REMARK VINA RESULT:      -8.7      2.604      3.333
REMARK  4 active torsions:
REMARK  status: ('A' for Active; 'I' for Inactive)
REMARK       I    between atoms: C17_25  and  N1_6 
REMARK    1  A    between atoms: N1_6  and  N2_7 
REMARK    2  A    between atoms: C14_22  and  N3_8 
REMARK    3  A    between atoms: C11_19  and  C4_12 
REMARK    4  A    between atoms: C10_18  and  C17_25 
ROOT
HETATM    1  O3  UNK     1      18.817  -2.350  37.215  1.00  0.00    -0.266 OA
HETATM    2  N1  UNK     1      19.877  -3.161  35.324  1.00  0.00    -0.243 N 
HETATM    3  C17 UNK     1      19.194  -2.208  36.054  1.00  0.00     0.271 C 
HETATM    4  H11 UNK     1      20.133  -3.053  34.348  1.00  0.00     0.192 HD
ENDROOT
BRANCH   2   5
HETATM    5  N2  UNK     1      20.160  -4.347  35.913  1.00  0.00    -0.183 NA
HETATM    6  C11 UNK     1      19.704  -5.375  35.274  1.00  0.00     0.156 C 
BRANCH   6   7
HETATM    7  C4  UNK     1      19.903  -6.745  35.745  1.00  0.00     0.056 A 
HETATM    8  C3  UNK     1      19.222  -7.310  36.931  1.00  0.00     0.198 A 
HETATM    9  C1  UNK     1      19.547  -8.712  37.255  1.00  0.00     0.049 A 
HETATM   10  O2  UNK     1      18.437  -6.656  37.605  1.00  0.00    -0.286 OA
HETATM   11  C2  UNK     1      20.452  -9.404  36.447  1.00  0.00     0.089 A 
HETATM   12  C5  UNK     1      18.959  -9.343  38.354  1.00  0.00     0.018 A 
HETATM   13  O1  UNK     1      21.059  -8.834  35.355  1.00  0.00    -0.321 OA
HETATM   14  C6  UNK     1      20.774 -10.730  36.737  1.00  0.00     0.038 A 
HETATM   15  C7  UNK     1      20.748  -7.526  35.063  1.00  0.00     0.159 A 
HETATM   16  C9  UNK     1      20.189 -11.362  37.834  1.00  0.00     0.003 A 
HETATM   17  C8  UNK     1      19.283 -10.670  38.639  1.00  0.00     0.001 A 
ENDBRANCH   6   7
ENDBRANCH   2   5
BRANCH   3  18
HETATM   18  C10 UNK     1      18.896  -0.937  35.342  1.00  0.00     0.033 A 
HETATM   19  C12 UNK     1      18.842  -0.943  33.964  1.00  0.00     0.019 A 
HETATM   20  C15 UNK     1      18.564   0.250  33.296  1.00  0.00     0.037 A 
HETATM   21  C14 UNK     1      18.347   1.421  34.022  1.00  0.00     0.102 A 
HETATM   22  C16 UNK     1      18.407   1.400  35.415  1.00  0.00     0.037 A 
HETATM   23  C13 UNK     1      18.685   0.206  36.083  1.00  0.00     0.019 A 
BRANCH  21  24
HETATM   24  N3  UNK     1      18.066   2.636  33.342  1.00  0.00    -0.116 N 
HETATM   25  O4  UNK     1      17.589   2.587  32.182  1.00  0.00    -0.532 OA
HETATM   26  O5  UNK     1      18.301   3.724  33.920  1.00  0.00    -0.532 OA
ENDBRANCH  21  24
ENDBRANCH   3  18
TORSDOF 4
ENDMDL
MODEL 7
REMARK VINA RESULT:      -8.7     14.822     20.709
REMARK  4 active torsions:
REMARK  status: ('A' for Active; 'I' for Inactive)
REMARK       I    between atoms: C17_25  and  N1_6 
REMARK    1  A    between atoms: N1_6  and  N2_7 
REMARK    2  A    between atoms: C14_22  and  N3_8 
REMARK    3  A    between atoms: C11_19  and  C4_12 
REMARK    4  A    between atoms: C10_18  and  C17_25 
ROOT
HETATM    1  O3  UNK     1      17.864  -1.141  17.332  1.00  0.00    -0.266 OA
HETATM    2  N1  UNK     1      19.297   0.264  16.177  1.00  0.00    -0.243 N 
HETATM    3  C17 UNK     1      18.669  -0.212  17.312  1.00  0.00     0.271 C 
HETATM    4  H11 UNK     1      19.916   1.068  16.166  1.00  0.00     0.192 HD
ENDROOT
BRANCH   2   5
HETATM    5  N2  UNK     1      19.018  -0.322  14.989  1.00  0.00    -0.183 NA
HETATM    6  C11 UNK     1      19.846  -1.258  14.656  1.00  0.00     0.156 C 
BRANCH   6   7
HETATM    7  C4  UNK     1      19.718  -2.014  13.410  1.00  0.00     0.056 A 
HETATM    8  C3  UNK     1      20.596  -1.811  12.236  1.00  0.00     0.198 A 
HETATM    9  C1  UNK     1      20.317  -2.666  11.067  1.00  0.00     0.049 A 
HETATM   10  O2  UNK     1      21.497  -0.984  12.231  1.00  0.00    -0.286 OA
HETATM   11  C2  UNK     1      19.272  -3.590  11.135  1.00  0.00     0.089 A 
HETATM   12  C5  UNK     1      21.086  -2.556   9.905  1.00  0.00     0.018 A 
HETATM   13  O1  UNK     1      18.484  -3.740  12.249  1.00  0.00    -0.321 OA
HETATM   14  C6  UNK     1      18.990  -4.407  10.040  1.00  0.00     0.038 A 
HETATM   15  C7  UNK     1      18.754  -2.937  13.333  1.00  0.00     0.159 A 
HETATM   16  C9  UNK     1      19.756  -4.299   8.879  1.00  0.00     0.003 A 
HETATM   17  C8  UNK     1      20.801  -3.377   8.813  1.00  0.00     0.001 A 
ENDBRANCH   6   7
ENDBRANCH   2   5
BRANCH   3  18
HETATM   18  C10 UNK     1      19.003   0.489  18.580  1.00  0.00     0.033 A 
HETATM   19  C12 UNK     1      19.169  -0.255  19.729  1.00  0.00     0.019 A 
HETATM   20  C15 UNK     1      19.482   0.405  20.919  1.00  0.00     0.037 A 
HETATM   21  C14 UNK     1      19.621   1.793  20.931  1.00  0.00     0.102 A 
HETATM   22  C16 UNK     1      19.447   2.521  19.754  1.00  0.00     0.037 A 
HETATM   23  C13 UNK     1      19.136   1.861  18.565  1.00  0.00     0.019 A 
BRANCH  21  24
HETATM   24  N3  UNK     1      19.936   2.464  22.142  1.00  0.00    -0.116 N 
HETATM   25  O4  UNK     1      19.026   3.074  22.753  1.00  0.00    -0.532 OA
HETATM   26  O5  UNK     1      21.116   2.428  22.567  1.00  0.00    -0.532 OA
ENDBRANCH  21  24
ENDBRANCH   3  18
TORSDOF 4
ENDMDL
MODEL 8
REMARK VINA RESULT:      -8.6      6.208     12.236
REMARK  4 active torsions:
REMARK  status: ('A' for Active; 'I' for Inactive)
REMARK       I    between atoms: C17_25  and  N1_6 
REMARK    1  A    between atoms: N1_6  and  N2_7 
REMARK    2  A    between atoms: C14_22  and  N3_8 
REMARK    3  A    between atoms: C11_19  and  C4_12 
REMARK    4  A    between atoms: C10_18  and  C17_25 
ROOT
HETATM    1  O3  UNK     1      18.653   3.545  29.803  1.00  0.00    -0.266 OA
HETATM    2  N1  UNK     1      18.024   3.287  32.016  1.00  0.00    -0.243 N 
HETATM    3  C17 UNK     1      18.585   2.866  30.825  1.00  0.00     0.271 C 
HETATM    4  H11 UNK     1      17.923   2.697  32.835  1.00  0.00     0.192 HD
ENDROOT
BRANCH   2   5
HETATM    5  N2  UNK     1      17.506   4.536  32.081  1.00  0.00    -0.183 NA
HETATM    6  C11 UNK     1      17.990   5.258  33.039  1.00  0.00     0.156 C 
BRANCH   6   7
HETATM    7  C4  UNK     1      17.562   6.636  33.279  1.00  0.00     0.056 A 
HETATM    8  C3  UNK     1      18.500   7.758  33.498  1.00  0.00     0.198 A 
HETATM    9  C1  UNK     1      17.885   9.079  33.724  1.00  0.00     0.049 A 
HETATM   10  O2  UNK     1      19.714   7.603  33.496  1.00  0.00    -0.286 OA
HETATM   11  C2  UNK     1      16.493   9.190  33.717  1.00  0.00     0.089 A 
HETATM   12  C5  UNK     1      18.680  10.208  33.942  1.00  0.00     0.018 A 
HETATM   13  O1  UNK     1      15.663   8.116  33.509  1.00  0.00    -0.321 OA
HETATM   14  C6  UNK     1      15.890  10.430  33.930  1.00  0.00     0.038 A 
HETATM   15  C7  UNK     1      16.249   6.890  33.299  1.00  0.00     0.159 A 
HETATM   16  C9  UNK     1      16.682  11.558  34.148  1.00  0.00     0.003 A 
HETATM   17  C8  UNK     1      18.073  11.446  34.153  1.00  0.00     0.001 A 
ENDBRANCH   6   7
ENDBRANCH   2   5
BRANCH   3  18
HETATM   18  C10 UNK     1      19.115   1.477  30.814  1.00  0.00     0.033 A 
HETATM   19  C12 UNK     1      19.745   1.013  29.679  1.00  0.00     0.019 A 
HETATM   20  C15 UNK     1      20.241  -0.291  29.669  1.00  0.00     0.037 A 
HETATM   21  C14 UNK     1      20.096  -1.101  30.796  1.00  0.00     0.102 A 
HETATM   22  C16 UNK     1      19.455  -0.607  31.932  1.00  0.00     0.037 A 
HETATM   23  C13 UNK     1      18.959   0.698  31.941  1.00  0.00     0.019 A 
BRANCH  21  24
HETATM   24  N3  UNK     1      20.599  -2.428  30.785  1.00  0.00    -0.116 N 
HETATM   25  O4  UNK     1      20.847  -2.975  29.683  1.00  0.00    -0.532 OA
HETATM   26  O5  UNK     1      20.782  -3.018  31.877  1.00  0.00    -0.532 OA
ENDBRANCH  21  24
ENDBRANCH   3  18
TORSDOF 4
ENDMDL
MODEL 9
REMARK VINA RESULT:      -8.6      2.677      3.184
REMARK  4 active torsions:
REMARK  status: ('A' for Active; 'I' for Inactive)
REMARK       I    between atoms: C17_25  and  N1_6 
REMARK    1  A    between atoms: N1_6  and  N2_7 
REMARK    2  A    between atoms: C14_22  and  N3_8 
REMARK    3  A    between atoms: C11_19  and  C4_12 
REMARK    4  A    between atoms: C10_18  and  C17_25 
ROOT
HETATM    1  O3  UNK     1      17.981  -0.649  37.613  1.00  0.00    -0.266 OA
HETATM    2  N1  UNK     1      18.938  -1.919  35.930  1.00  0.00    -0.243 N 
HETATM    3  C17 UNK     1      18.407  -0.761  36.466  1.00  0.00     0.271 C 
HETATM    4  H11 UNK     1      19.233  -2.014  34.964  1.00  0.00     0.192 HD
ENDROOT
BRANCH   2   5
HETATM    5  N2  UNK     1      19.001  -3.023  36.712  1.00  0.00    -0.183 NA
HETATM    6  C11 UNK     1      19.946  -3.845  36.387  1.00  0.00     0.156 C 
BRANCH   6   7
HETATM    7  C4  UNK     1      20.182  -5.095  37.108  1.00  0.00     0.056 A 
HETATM    8  C3  UNK     1      19.283  -6.268  37.028  1.00  0.00     0.198 A 
HETATM    9  C1  UNK     1      19.682  -7.443  37.825  1.00  0.00     0.049 A 
HETATM   10  O2  UNK     1      18.267  -6.265  36.346  1.00  0.00    -0.286 OA
HETATM   11  C2  UNK     1      20.852  -7.382  38.586  1.00  0.00     0.089 A 
HETATM   12  C5  UNK     1      18.904  -8.603  37.822  1.00  0.00     0.018 A 
HETATM   13  O1  UNK     1      21.655  -6.268  38.627  1.00  0.00    -0.321 OA
HETATM   14  C6  UNK     1      21.248  -8.481  39.347  1.00  0.00     0.038 A 
HETATM   15  C7  UNK     1      21.272  -5.179  37.879  1.00  0.00     0.159 A 
HETATM   16  C9  UNK     1      20.472  -9.641  39.346  1.00  0.00     0.003 A 
HETATM   17  C8  UNK     1      19.304  -9.701  38.585  1.00  0.00     0.001 A 
ENDBRANCH   6   7
ENDBRANCH   2   5
BRANCH   3  18
HETATM   18  C10 UNK     1      18.346   0.408  35.549  1.00  0.00     0.033 A 
HETATM   19  C12 UNK     1      18.203   0.186  34.196  1.00  0.00     0.019 A 
HETATM   20  C15 UNK     1      18.148   1.283  33.335  1.00  0.00     0.037 A 
HETATM   21  C14 UNK     1      18.237   2.577  33.849  1.00  0.00     0.102 A 
HETATM   22  C16 UNK     1      18.382   2.774  35.222  1.00  0.00     0.037 A 
HETATM   23  C13 UNK     1      18.436   1.676  36.082  1.00  0.00     0.019 A 
BRANCH  21  24
HETATM   24  N3  UNK     1      18.183   3.693  32.973  1.00  0.00    -0.116 N 
HETATM   25  O4  UNK     1      18.662   4.789  33.355  1.00  0.00    -0.532 OA
HETATM   26  O5  UNK     1      17.658   3.554  31.842  1.00  0.00    -0.532 OA
ENDBRANCH  21  24
ENDBRANCH   3  18
TORSDOF 4
ENDMDL
MODEL 10
REMARK VINA RESULT:      -8.6      2.724      3.584
REMARK  4 active torsions:
REMARK  status: ('A' for Active; 'I' for Inactive)
REMARK       I    between atoms: C17_25  and  N1_6 
REMARK    1  A    between atoms: N1_6  and  N2_7 
REMARK    2  A    between atoms: C14_22  and  N3_8 
REMARK    3  A    between atoms: C11_19  and  C4_12 
REMARK    4  A    between atoms: C10_18  and  C17_25 
ROOT
HETATM    1  O3  UNK     1      17.841  -0.774  37.433  1.00  0.00    -0.266 OA
HETATM    2  N1  UNK     1      19.541  -1.651  36.129  1.00  0.00    -0.243 N 
HETATM    3  C17 UNK     1      18.587  -0.706  36.460  1.00  0.00     0.271 C 
HETATM    4  H11 UNK     1      20.112  -1.611  35.291  1.00  0.00     0.192 HD
ENDROOT
BRANCH   2   5
HETATM    5  N2  UNK     1      19.676  -2.739  36.924  1.00  0.00    -0.183 NA
HETATM    6  C11 UNK     1      19.599  -3.865  36.292  1.00  0.00     0.156 C 
BRANCH   6   7
HETATM    7  C4  UNK     1      19.719  -5.156  36.970  1.00  0.00     0.056 A 
HETATM    8  C3  UNK     1      20.950  -5.609  37.654  1.00  0.00     0.198 A 
HETATM    9  C1  UNK     1      20.886  -6.942  38.283  1.00  0.00     0.049 A 
HETATM   10  O2  UNK     1      21.963  -4.923  37.695  1.00  0.00    -0.286 OA
HETATM   11  C2  UNK     1      19.701  -7.676  38.198  1.00  0.00     0.089 A 
HETATM   12  C5  UNK     1      21.993  -7.466  38.955  1.00  0.00     0.018 A 
HETATM   13  O1  UNK     1      18.583  -7.211  37.551  1.00  0.00    -0.321 OA
HETATM   14  C6  UNK     1      19.619  -8.939  38.785  1.00  0.00     0.038 A 
HETATM   15  C7  UNK     1      18.656  -5.967  36.968  1.00  0.00     0.159 A 
HETATM   16  C9  UNK     1      20.723  -9.465  39.456  1.00  0.00     0.003 A 
HETATM   17  C8  UNK     1      21.906  -8.729  39.541  1.00  0.00     0.001 A 
ENDBRANCH   6   7
ENDBRANCH   2   5
BRANCH   3  18
HETATM   18  C10 UNK     1      18.476   0.452  35.534  1.00  0.00     0.033 A 
HETATM   19  C12 UNK     1      18.201   0.217  34.204  1.00  0.00     0.019 A 
HETATM   20  C15 UNK     1      18.098   1.305  33.335  1.00  0.00     0.037 A 
HETATM   21  C14 UNK     1      18.272   2.602  33.819  1.00  0.00     0.102 A 
HETATM   22  C16 UNK     1      18.549   2.811  35.169  1.00  0.00     0.037 A 
HETATM   23  C13 UNK     1      18.652   1.723  36.037  1.00  0.00     0.019 A 
BRANCH  21  24
HETATM   24  N3  UNK     1      18.169   3.708  32.935  1.00  0.00    -0.116 N 
HETATM   25  O4  UNK     1      17.847   3.503  31.739  1.00  0.00    -0.532 OA
HETATM   26  O5  UNK     1      18.403   4.860  33.373  1.00  0.00    -0.532 OA
ENDBRANCH  21  24
ENDBRANCH   3  18
TORSDOF 4
ENDMDL
