MODEL 1
REMARK VINA RESULT:      -9.4      0.000      0.000
REMARK  4 active torsions:
REMARK  status: ('A' for Active; 'I' for Inactive)
REMARK    1  A    between atoms: C1_6  and  N1_4 
REMARK    2  A    between atoms: C11_16  and  N1_4 
REMARK    3  A    between atoms: C11_16  and  N2_5 
REMARK    4  A    between atoms: C12_17  and  N2_5 
ROOT
HETATM    1  N2  UNK     1      19.435  -3.308  35.723  1.00  0.00    -0.333 N 
HETATM    2  H13 UNK     1      19.209  -3.652  34.796  1.00  0.00     0.168 HD
ENDROOT
BRANCH   1   3
HETATM    3  C11 UNK     1      18.977  -2.026  36.007  1.00  0.00     0.172 C 
HETATM    4  S1  UNK     1      18.324  -1.443  37.440  1.00  0.00    -0.041 SA
BRANCH   3   5
HETATM    5  N1  UNK     1      19.130  -1.115  34.966  1.00  0.00    -0.358 N 
HETATM    6  H8  UNK     1      19.989  -0.571  34.977  1.00  0.00     0.162 HD
BRANCH   5   7
HETATM    7  C1  UNK     1      18.197  -0.847  33.894  1.00  0.00     0.117 C 
HETATM    8  C2  UNK     1      17.335   0.379  34.219  1.00  0.00     0.030 C 
HETATM    9  C3  UNK     1      18.098   1.677  33.967  1.00  0.00     0.007 C 
HETATM   10  C4  UNK     1      18.495   1.787  32.498  1.00  0.00     0.039 C 
HETATM   11  C6  UNK     1      19.101   0.523  31.941  1.00  0.00    -0.050 A 
HETATM   12  C5  UNK     1      18.929  -0.722  32.575  1.00  0.00    -0.029 A 
HETATM   13  C8  UNK     1      19.798   0.588  30.725  1.00  0.00     0.007 A 
HETATM   14  C7  UNK     1      19.478  -1.873  31.984  1.00  0.00     0.010 A 
HETATM   15  C9  UNK     1      20.178  -1.793  30.781  1.00  0.00     0.001 A 
HETATM   16  C10 UNK     1      20.337  -0.563  30.150  1.00  0.00     0.001 A 
ENDBRANCH   5   7
ENDBRANCH   3   5
ENDBRANCH   1   3
BRANCH   1  17
HETATM   17  C12 UNK     1      19.911  -4.350  36.560  1.00  0.00     0.036 A 
HETATM   18  C15 UNK     1      19.213  -5.536  36.624  1.00  0.00     0.067 A 
HETATM   19  C14 UNK     1      19.700  -6.548  37.454  1.00  0.00     0.092 A 
HETATM   20  C13 UNK     1      20.861  -6.395  38.214  1.00  0.00     0.004 A 
HETATM   21  O1  UNK     1      18.959  -7.746  37.492  1.00  0.00    -0.275 OA
HETATM   22  C17 UNK     1      21.542  -5.174  38.121  1.00  0.00     0.017 A 
HETATM   23  C18 UNK     1      21.302  -7.512  39.060  1.00  0.00    -0.043 A 
HETATM   24  C16 UNK     1      21.066  -4.151  37.293  1.00  0.00     0.030 A 
HETATM   25  C19 UNK     1      20.576  -8.640  39.076  1.00  0.00     0.090 A 
HETATM   26  C20 UNK     1      22.546  -7.379  39.888  1.00  0.00     0.049 C 
HETATM   27  C21 UNK     1      19.349  -8.816  38.281  1.00  0.00     0.288 A 
HETATM   28  O2  UNK     1      18.711  -9.863  38.320  1.00  0.00    -0.260 OA
ENDBRANCH   1  17
TORSDOF 4
ENDMDL
MODEL 2
REMARK VINA RESULT:      -9.3      6.064      9.252
REMARK  4 active torsions:
REMARK  status: ('A' for Active; 'I' for Inactive)
REMARK    1  A    between atoms: C1_6  and  N1_4 
REMARK    2  A    between atoms: C11_16  and  N1_4 
REMARK    3  A    between atoms: C11_16  and  N2_5 
REMARK    4  A    between atoms: C12_17  and  N2_5 
ROOT
HETATM    1  N2  UNK     1      18.101   4.018  30.410  1.00  0.00    -0.333 N 
HETATM    2  H13 UNK     1      17.104   4.052  30.224  1.00  0.00     0.168 HD
ENDROOT
BRANCH   1   3
HETATM    3  C11 UNK     1      18.686   5.236  30.736  1.00  0.00     0.172 C 
HETATM    4  S1  UNK     1      20.172   5.846  30.247  1.00  0.00    -0.041 SA
BRANCH   3   5
HETATM    5  N1  UNK     1      17.900   6.056  31.540  1.00  0.00    -0.358 N 
HETATM    6  H8  UNK     1      17.602   6.933  31.120  1.00  0.00     0.162 HD
BRANCH   5   7
HETATM    7  C1  UNK     1      17.486   5.808  32.904  1.00  0.00     0.117 C 
HETATM    8  C2  UNK     1      18.703   5.565  33.805  1.00  0.00     0.030 C 
HETATM    9  C3  UNK     1      19.385   6.877  34.181  1.00  0.00     0.007 C 
HETATM   10  C4  UNK     1      18.427   7.774  34.959  1.00  0.00     0.039 C 
HETATM   11  C6  UNK     1      17.057   7.875  34.336  1.00  0.00    -0.050 A 
HETATM   12  C5  UNK     1      16.598   6.929  33.398  1.00  0.00    -0.029 A 
HETATM   13  C8  UNK     1      16.199   8.903  34.755  1.00  0.00     0.007 A 
HETATM   14  C7  UNK     1      15.294   7.048  32.887  1.00  0.00     0.010 A 
HETATM   15  C9  UNK     1      14.456   8.081  33.304  1.00  0.00     0.001 A 
HETATM   16  C10 UNK     1      14.907   9.008  34.239  1.00  0.00     0.001 A 
ENDBRANCH   5   7
ENDBRANCH   3   5
ENDBRANCH   1   3
BRANCH   1  17
HETATM   17  C12 UNK     1      18.554   2.681  30.557  1.00  0.00     0.036 A 
HETATM   18  C15 UNK     1      18.534   2.095  31.805  1.00  0.00     0.067 A 
HETATM   19  C14 UNK     1      18.984   0.779  31.926  1.00  0.00     0.092 A 
HETATM   20  C13 UNK     1      19.451   0.046  30.833  1.00  0.00     0.004 A 
HETATM   21  O1  UNK     1      18.947   0.216  33.217  1.00  0.00    -0.275 OA
HETATM   22  C17 UNK     1      19.456   0.678  29.582  1.00  0.00     0.017 A 
HETATM   23  C18 UNK     1      19.906  -1.333  31.053  1.00  0.00    -0.043 A 
HETATM   24  C16 UNK     1      19.007   1.996  29.445  1.00  0.00     0.030 A 
HETATM   25  C19 UNK     1      19.859  -1.842  32.292  1.00  0.00     0.090 A 
HETATM   26  C20 UNK     1      20.413  -2.146  29.898  1.00  0.00     0.049 C 
HETATM   27  C21 UNK     1      19.370  -1.082  33.455  1.00  0.00     0.288 A 
HETATM   28  O2  UNK     1      19.341  -1.582  34.575  1.00  0.00    -0.260 OA
ENDBRANCH   1  17
TORSDOF 4
ENDMDL
MODEL 3
REMARK VINA RESULT:      -9.1      2.484      3.739
REMARK  4 active torsions:
REMARK  status: ('A' for Active; 'I' for Inactive)
REMARK    1  A    between atoms: C1_6  and  N1_4 
REMARK    2  A    between atoms: C11_16  and  N1_4 
REMARK    3  A    between atoms: C11_16  and  N2_5 
REMARK    4  A    between atoms: C12_17  and  N2_5 
ROOT
HETATM    1  N2  UNK     1      19.097  -4.777  36.012  1.00  0.00    -0.333 N 
HETATM    2  H13 UNK     1      18.179  -4.648  35.601  1.00  0.00     0.168 HD
ENDROOT
BRANCH   1   3
HETATM    3  C11 UNK     1      19.750  -3.607  36.385  1.00  0.00     0.172 C 
HETATM    4  S1  UNK     1      21.010  -3.417  37.478  1.00  0.00    -0.041 SA
BRANCH   3   5
HETATM    5  N1  UNK     1      19.310  -2.465  35.724  1.00  0.00    -0.358 N 
HETATM    6  H8  UNK     1      19.983  -2.028  35.101  1.00  0.00     0.162 HD
BRANCH   5   7
HETATM    7  C1  UNK     1      18.016  -1.828  35.844  1.00  0.00     0.117 C 
HETATM    8  C2  UNK     1      17.482  -1.950  37.277  1.00  0.00     0.030 C 
HETATM    9  C3  UNK     1      18.143  -0.933  38.203  1.00  0.00     0.007 C 
HETATM   10  C4  UNK     1      17.845   0.489  37.736  1.00  0.00     0.039 C 
HETATM   11  C6  UNK     1      18.045   0.690  36.254  1.00  0.00    -0.050 A 
HETATM   12  C5  UNK     1      18.086  -0.396  35.359  1.00  0.00    -0.029 A 
HETATM   13  C8  UNK     1      18.125   1.999  35.756  1.00  0.00     0.007 A 
HETATM   14  C7  UNK     1      18.227  -0.144  33.983  1.00  0.00     0.010 A 
HETATM   15  C9  UNK     1      18.317   1.162  33.503  1.00  0.00     0.001 A 
HETATM   16  C10 UNK     1      18.264   2.233  34.388  1.00  0.00     0.001 A 
ENDBRANCH   5   7
ENDBRANCH   3   5
ENDBRANCH   1   3
BRANCH   1  17
HETATM   17  C12 UNK     1      19.330  -6.137  36.342  1.00  0.00     0.036 A 
HETATM   18  C15 UNK     1      20.202  -6.878  35.573  1.00  0.00     0.067 A 
HETATM   19  C14 UNK     1      20.417  -8.215  35.916  1.00  0.00     0.092 A 
HETATM   20  C13 UNK     1      19.781  -8.818  37.003  1.00  0.00     0.004 A 
HETATM   21  O1  UNK     1      21.316  -8.938  35.107  1.00  0.00    -0.275 OA
HETATM   22  C17 UNK     1      18.902  -8.031  37.759  1.00  0.00     0.017 A 
HETATM   23  C18 UNK     1      20.067 -10.229  37.292  1.00  0.00    -0.043 A 
HETATM   24  C16 UNK     1      18.677  -6.690  37.428  1.00  0.00     0.030 A 
HETATM   25  C19 UNK     1      20.926 -10.892  36.504  1.00  0.00     0.090 A 
HETATM   26  C20 UNK     1      19.400 -10.905  38.453  1.00  0.00     0.049 C 
HETATM   27  C21 UNK     1      21.604 -10.271  35.354  1.00  0.00     0.288 A 
HETATM   28  O2  UNK     1      22.385 -10.908  34.656  1.00  0.00    -0.260 OA
ENDBRANCH   1  17
TORSDOF 4
ENDMDL
MODEL 4
REMARK VINA RESULT:      -9.1      6.576     10.073
REMARK  4 active torsions:
REMARK  status: ('A' for Active; 'I' for Inactive)
REMARK    1  A    between atoms: C1_6  and  N1_4 
REMARK    2  A    between atoms: C11_16  and  N1_4 
REMARK    3  A    between atoms: C11_16  and  N2_5 
REMARK    4  A    between atoms: C12_17  and  N2_5 
ROOT
HETATM    1  N2  UNK     1      17.611   4.368  32.043  1.00  0.00    -0.333 N 
HETATM    2  H13 UNK     1      16.847   4.416  32.709  1.00  0.00     0.168 HD
ENDROOT
BRANCH   1   3
HETATM    3  C11 UNK     1      18.119   5.596  31.635  1.00  0.00     0.172 C 
HETATM    4  S1  UNK     1      19.310   5.907  30.493  1.00  0.00    -0.041 SA
BRANCH   3   5
HETATM    5  N1  UNK     1      17.517   6.698  32.235  1.00  0.00    -0.358 N 
HETATM    6  H8  UNK     1      16.978   7.299  31.618  1.00  0.00     0.162 HD
BRANCH   5   7
HETATM    7  C1  UNK     1      17.594   7.087  33.627  1.00  0.00     0.117 C 
HETATM    8  C2  UNK     1      18.957   6.709  34.221  1.00  0.00     0.030 C 
HETATM    9  C3  UNK     1      20.037   7.707  33.813  1.00  0.00     0.007 C 
HETATM   10  C4  UNK     1      19.697   9.102  34.330  1.00  0.00     0.039 C 
HETATM   11  C6  UNK     1      18.266   9.507  34.075  1.00  0.00    -0.050 A 
HETATM   12  C5  UNK     1      17.269   8.556  33.783  1.00  0.00    -0.029 A 
HETATM   13  C8  UNK     1      17.915  10.859  34.199  1.00  0.00     0.007 A 
HETATM   14  C7  UNK     1      15.943   8.988  33.602  1.00  0.00     0.010 A 
HETATM   15  C9  UNK     1      15.611  10.337  33.717  1.00  0.00     0.001 A 
HETATM   16  C10 UNK     1      16.595  11.273  34.016  1.00  0.00     0.001 A 
ENDBRANCH   5   7
ENDBRANCH   3   5
ENDBRANCH   1   3
BRANCH   1  17
HETATM   17  C12 UNK     1      18.124   3.049  31.937  1.00  0.00     0.036 A 
HETATM   18  C15 UNK     1      18.587   2.602  30.718  1.00  0.00     0.067 A 
HETATM   19  C14 UNK     1      19.088   1.301  30.636  1.00  0.00     0.092 A 
HETATM   20  C13 UNK     1      19.134   0.448  31.741  1.00  0.00     0.004 A 
HETATM   21  O1  UNK     1      19.552   0.881  29.374  1.00  0.00    -0.275 OA
HETATM   22  C17 UNK     1      18.654   0.941  32.962  1.00  0.00     0.017 A 
HETATM   23  C18 UNK     1      19.678  -0.904  31.564  1.00  0.00    -0.043 A 
HETATM   24  C16 UNK     1      18.149   2.242  33.060  1.00  0.00     0.030 A 
HETATM   25  C19 UNK     1      20.111  -1.276  30.351  1.00  0.00     0.090 A 
HETATM   26  C20 UNK     1      19.741  -1.844  32.732  1.00  0.00     0.049 C 
HETATM   27  C21 UNK     1      20.069  -0.389  29.176  1.00  0.00     0.288 A 
HETATM   28  O2  UNK     1      20.476  -0.764  28.082  1.00  0.00    -0.260 OA
ENDBRANCH   1  17
TORSDOF 4
ENDMDL
MODEL 5
REMARK VINA RESULT:      -9.0      1.269      1.939
REMARK  4 active torsions:
REMARK  status: ('A' for Active; 'I' for Inactive)
REMARK    1  A    between atoms: C1_6  and  N1_4 
REMARK    2  A    between atoms: C11_16  and  N1_4 
REMARK    3  A    between atoms: C11_16  and  N2_5 
REMARK    4  A    between atoms: C12_17  and  N2_5 
ROOT
HETATM    1  N2  UNK     1      20.133  -3.041  36.116  1.00  0.00    -0.333 N 
HETATM    2  H13 UNK     1      20.822  -2.994  35.373  1.00  0.00     0.168 HD
ENDROOT
BRANCH   1   3
HETATM    3  C11 UNK     1      19.277  -1.948  36.200  1.00  0.00     0.172 C 
HETATM    4  S1  UNK     1      18.235  -1.530  37.449  1.00  0.00    -0.041 SA
BRANCH   3   5
HETATM    5  N1  UNK     1      19.342  -1.080  35.114  1.00  0.00    -0.358 N 
HETATM    6  H8  UNK     1      20.184  -0.516  35.048  1.00  0.00     0.162 HD
BRANCH   5   7
HETATM    7  C1  UNK     1      18.337  -0.882  34.092  1.00  0.00     0.117 C 
HETATM    8  C2  UNK     1      17.441   0.315  34.437  1.00  0.00     0.030 C 
HETATM    9  C3  UNK     1      18.130   1.637  34.110  1.00  0.00     0.007 C 
HETATM   10  C4  UNK     1      18.436   1.725  32.618  1.00  0.00     0.039 C 
HETATM   11  C6  UNK     1      19.066   0.474  32.057  1.00  0.00    -0.050 A 
HETATM   12  C5  UNK     1      18.986  -0.761  32.731  1.00  0.00    -0.029 A 
HETATM   13  C8  UNK     1      19.688   0.536  30.801  1.00  0.00     0.007 A 
HETATM   14  C7  UNK     1      19.551  -1.903  32.136  1.00  0.00     0.010 A 
HETATM   15  C9  UNK     1      20.176  -1.824  30.892  1.00  0.00     0.001 A 
HETATM   16  C10 UNK     1      20.243  -0.606  30.224  1.00  0.00     0.001 A 
ENDBRANCH   5   7
ENDBRANCH   3   5
ENDBRANCH   1   3
BRANCH   1  17
HETATM   17  C12 UNK     1      20.064  -4.342  36.679  1.00  0.00     0.036 A 
HETATM   18  C15 UNK     1      21.054  -4.756  37.544  1.00  0.00     0.067 A 
HETATM   19  C14 UNK     1      20.966  -6.040  38.086  1.00  0.00     0.092 A 
HETATM   20  C13 UNK     1      19.917  -6.908  37.780  1.00  0.00     0.004 A 
HETATM   21  O1  UNK     1      21.996  -6.425  38.967  1.00  0.00    -0.275 OA
HETATM   22  C17 UNK     1      18.931  -6.450  36.896  1.00  0.00     0.017 A 
HETATM   23  C18 UNK     1      19.903  -8.241  38.397  1.00  0.00    -0.043 A 
HETATM   24  C16 UNK     1      19.005  -5.166  36.345  1.00  0.00     0.030 A 
HETATM   25  C19 UNK     1      20.897  -8.581  39.230  1.00  0.00     0.090 A 
HETATM   26  C20 UNK     1      18.789  -9.198  38.088  1.00  0.00     0.049 C 
HETATM   27  C21 UNK     1      22.011  -7.676  39.563  1.00  0.00     0.288 A 
HETATM   28  O2  UNK     1      22.902  -8.021  40.331  1.00  0.00    -0.260 OA
ENDBRANCH   1  17
TORSDOF 4
ENDMDL
MODEL 6
REMARK VINA RESULT:      -9.0      3.573      8.488
REMARK  4 active torsions:
REMARK  status: ('A' for Active; 'I' for Inactive)
REMARK    1  A    between atoms: C1_6  and  N1_4 
REMARK    2  A    between atoms: C11_16  and  N1_4 
REMARK    3  A    between atoms: C11_16  and  N2_5 
REMARK    4  A    between atoms: C12_17  and  N2_5 
ROOT
HETATM    1  N2  UNK     1      20.515  -4.369  36.764  1.00  0.00    -0.333 N 
HETATM    2  H13 UNK     1      21.449  -4.286  36.376  1.00  0.00     0.168 HD
ENDROOT
BRANCH   1   3
HETATM    3  C11 UNK     1      20.286  -5.515  37.518  1.00  0.00     0.172 C 
HETATM    4  S1  UNK     1      21.308  -6.264  38.619  1.00  0.00    -0.041 SA
BRANCH   3   5
HETATM    5  N1  UNK     1      19.022  -6.072  37.350  1.00  0.00    -0.358 N 
HETATM    6  H8  UNK     1      18.281  -5.669  37.918  1.00  0.00     0.162 HD
BRANCH   5   7
HETATM    7  C1  UNK     1      18.657  -7.167  36.478  1.00  0.00     0.117 C 
HETATM    8  C2  UNK     1      19.010  -6.842  35.021  1.00  0.00     0.030 C 
HETATM    9  C3  UNK     1      20.500  -7.039  34.754  1.00  0.00     0.007 C 
HETATM   10  C4  UNK     1      20.899  -8.492  34.996  1.00  0.00     0.039 C 
HETATM   11  C6  UNK     1      20.359  -9.058  36.285  1.00  0.00    -0.050 A 
HETATM   12  C5  UNK     1      19.280  -8.458  36.963  1.00  0.00    -0.029 A 
HETATM   13  C8  UNK     1      20.909 -10.249  36.782  1.00  0.00     0.007 A 
HETATM   14  C7  UNK     1      18.789  -9.058  38.136  1.00  0.00     0.010 A 
HETATM   15  C9  UNK     1      19.353 -10.236  38.624  1.00  0.00     0.001 A 
HETATM   16  C10 UNK     1      20.412 -10.832  37.947  1.00  0.00     0.001 A 
ENDBRANCH   5   7
ENDBRANCH   3   5
ENDBRANCH   1   3
BRANCH   1  17
HETATM   17  C12 UNK     1      19.799  -3.149  36.656  1.00  0.00     0.036 A 
HETATM   18  C15 UNK     1      19.760  -2.494  35.443  1.00  0.00     0.067 A 
HETATM   19  C14 UNK     1      19.050  -1.295  35.359  1.00  0.00     0.092 A 
HETATM   20  C13 UNK     1      18.384  -0.744  36.456  1.00  0.00     0.004 A 
HETATM   21  O1  UNK     1      19.033  -0.658  34.103  1.00  0.00    -0.275 OA
HETATM   22  C17 UNK     1      18.448  -1.439  37.671  1.00  0.00     0.017 A 
HETATM   23  C18 UNK     1      17.660   0.521  36.277  1.00  0.00    -0.043 A 
HETATM   24  C16 UNK     1      19.156  -2.642  37.770  1.00  0.00     0.030 A 
HETATM   25  C19 UNK     1      17.663   1.105  35.070  1.00  0.00     0.090 A 
HETATM   26  C20 UNK     1      16.936   1.139  37.436  1.00  0.00     0.049 C 
HETATM   27  C21 UNK     1      18.360   0.537  33.904  1.00  0.00     0.288 A 
HETATM   28  O2  UNK     1      18.339   1.099  32.814  1.00  0.00    -0.260 OA
ENDBRANCH   1  17
TORSDOF 4
ENDMDL
MODEL 7
REMARK VINA RESULT:      -9.0      3.439      8.866
REMARK  4 active torsions:
REMARK  status: ('A' for Active; 'I' for Inactive)
REMARK    1  A    between atoms: C1_6  and  N1_4 
REMARK    2  A    between atoms: C11_16  and  N1_4 
REMARK    3  A    between atoms: C11_16  and  N2_5 
REMARK    4  A    between atoms: C12_17  and  N2_5 
ROOT
HETATM    1  N2  UNK     1      20.247  -4.183  36.651  1.00  0.00    -0.333 N 
HETATM    2  H13 UNK     1      21.156  -4.076  37.086  1.00  0.00     0.168 HD
ENDROOT
BRANCH   1   3
HETATM    3  C11 UNK     1      19.797  -5.493  36.531  1.00  0.00     0.172 C 
HETATM    4  S1  UNK     1      18.216  -6.059  36.527  1.00  0.00    -0.041 SA
BRANCH   3   5
HETATM    5  N1  UNK     1      20.806  -6.435  36.353  1.00  0.00    -0.358 N 
HETATM    6  H8  UNK     1      21.066  -6.627  35.389  1.00  0.00     0.162 HD
BRANCH   5   7
HETATM    7  C1  UNK     1      21.501  -7.179  37.381  1.00  0.00     0.117 C 
HETATM    8  C2  UNK     1      21.465  -6.422  38.715  1.00  0.00     0.030 C 
HETATM    9  C3  UNK     1      20.118  -6.590  39.412  1.00  0.00     0.007 C 
HETATM   10  C4  UNK     1      19.858  -8.060  39.726  1.00  0.00     0.039 C 
HETATM   11  C6  UNK     1      20.143  -8.983  38.568  1.00  0.00    -0.050 A 
HETATM   12  C5  UNK     1      20.947  -8.583  37.483  1.00  0.00    -0.029 A 
HETATM   13  C8  UNK     1      19.644 -10.293  38.610  1.00  0.00     0.007 A 
HETATM   14  C7  UNK     1      21.216  -9.503  36.454  1.00  0.00     0.010 A 
HETATM   15  C9  UNK     1      20.704 -10.799  36.505  1.00  0.00     0.001 A 
HETATM   16  C10 UNK     1      19.920 -11.195  37.582  1.00  0.00     0.001 A 
ENDBRANCH   5   7
ENDBRANCH   3   5
ENDBRANCH   1   3
BRANCH   1  17
HETATM   17  C12 UNK     1      19.574  -2.938  36.543  1.00  0.00     0.036 A 
HETATM   18  C15 UNK     1      19.584  -2.267  35.339  1.00  0.00     0.067 A 
HETATM   19  C14 UNK     1      18.915  -1.044  35.256  1.00  0.00     0.092 A 
HETATM   20  C13 UNK     1      18.244  -0.486  36.345  1.00  0.00     0.004 A 
HETATM   21  O1  UNK     1      18.948  -0.391  34.008  1.00  0.00    -0.275 OA
HETATM   22  C17 UNK     1      18.257  -1.198  37.551  1.00  0.00     0.017 A 
HETATM   23  C18 UNK     1      17.566   0.805  36.168  1.00  0.00    -0.043 A 
HETATM   24  C16 UNK     1      18.923  -2.426  37.650  1.00  0.00     0.030 A 
HETATM   25  C19 UNK     1      17.615   1.404  34.969  1.00  0.00     0.090 A 
HETATM   26  C20 UNK     1      16.836   1.432  37.319  1.00  0.00     0.049 C 
HETATM   27  C21 UNK     1      18.319   0.828  33.811  1.00  0.00     0.288 A 
HETATM   28  O2  UNK     1      18.342   1.405  32.729  1.00  0.00    -0.260 OA
ENDBRANCH   1  17
TORSDOF 4
ENDMDL
MODEL 8
REMARK VINA RESULT:      -8.9      6.577     10.123
REMARK  4 active torsions:
REMARK  status: ('A' for Active; 'I' for Inactive)
REMARK    1  A    between atoms: C1_6  and  N1_4 
REMARK    2  A    between atoms: C11_16  and  N1_4 
REMARK    3  A    between atoms: C11_16  and  N2_5 
REMARK    4  A    between atoms: C12_17  and  N2_5 
ROOT
HETATM    1  N2  UNK     1      17.595   4.420  32.177  1.00  0.00    -0.333 N 
HETATM    2  H13 UNK     1      16.639   4.484  31.844  1.00  0.00     0.168 HD
ENDROOT
BRANCH   1   3
HETATM    3  C11 UNK     1      18.046   5.519  32.900  1.00  0.00     0.172 C 
HETATM    4  S1  UNK     1      19.612   5.877  33.389  1.00  0.00    -0.041 SA
BRANCH   3   5
HETATM    5  N1  UNK     1      17.059   6.450  33.210  1.00  0.00    -0.358 N 
HETATM    6  H8  UNK     1      16.600   6.324  34.108  1.00  0.00     0.162 HD
BRANCH   5   7
HETATM    7  C1  UNK     1      16.606   7.552  32.389  1.00  0.00     0.117 C 
HETATM    8  C2  UNK     1      15.199   7.278  31.843  1.00  0.00     0.030 C 
HETATM    9  C3  UNK     1      14.132   7.541  32.902  1.00  0.00     0.007 C 
HETATM   10  C4  UNK     1      14.163   9.002  33.341  1.00  0.00     0.039 C 
HETATM   11  C6  UNK     1      15.552   9.513  33.634  1.00  0.00    -0.050 A 
HETATM   12  C5  UNK     1      16.700   8.853  33.155  1.00  0.00    -0.029 A 
HETATM   13  C8  UNK     1      15.693  10.712  34.349  1.00  0.00     0.007 A 
HETATM   14  C7  UNK     1      17.966   9.403  33.420  1.00  0.00     0.010 A 
HETATM   15  C9  UNK     1      18.092  10.590  34.141  1.00  0.00     0.001 A 
HETATM   16  C10 UNK     1      16.956  11.245  34.604  1.00  0.00     0.001 A 
ENDBRANCH   5   7
ENDBRANCH   3   5
ENDBRANCH   1   3
BRANCH   1  17
HETATM   17  C12 UNK     1      18.101   3.101  32.048  1.00  0.00     0.036 A 
HETATM   18  C15 UNK     1      18.579   2.679  30.826  1.00  0.00     0.067 A 
HETATM   19  C14 UNK     1      19.073   1.377  30.721  1.00  0.00     0.092 A 
HETATM   20  C13 UNK     1      19.096   0.498  31.805  1.00  0.00     0.004 A 
HETATM   21  O1  UNK     1      19.553   0.984  29.456  1.00  0.00    -0.275 OA
HETATM   22  C17 UNK     1      18.600   0.965  33.030  1.00  0.00     0.017 A 
HETATM   23  C18 UNK     1      19.634  -0.854  31.605  1.00  0.00    -0.043 A 
HETATM   24  C16 UNK     1      18.103   2.267  33.151  1.00  0.00     0.030 A 
HETATM   25  C19 UNK     1      20.083  -1.200  30.390  1.00  0.00     0.090 A 
HETATM   26  C20 UNK     1      19.672  -1.822  32.751  1.00  0.00     0.049 C 
HETATM   27  C21 UNK     1      20.065  -0.285  29.236  1.00  0.00     0.288 A 
HETATM   28  O2  UNK     1      20.486  -0.637  28.139  1.00  0.00    -0.260 OA
ENDBRANCH   1  17
TORSDOF 4
ENDMDL
MODEL 9
REMARK VINA RESULT:      -8.9      7.429     11.638
REMARK  4 active torsions:
REMARK  status: ('A' for Active; 'I' for Inactive)
REMARK    1  A    between atoms: C1_6  and  N1_4 
REMARK    2  A    between atoms: C11_16  and  N1_4 
REMARK    3  A    between atoms: C11_16  and  N2_5 
REMARK    4  A    between atoms: C12_17  and  N2_5 
ROOT
HETATM    1  N2  UNK     1      17.392   4.437  32.023  1.00  0.00    -0.333 N 
HETATM    2  H13 UNK     1      16.384   4.371  32.113  1.00  0.00     0.168 HD
ENDROOT
BRANCH   1   3
HETATM    3  C11 UNK     1      17.978   3.479  31.203  1.00  0.00     0.172 C 
HETATM    4  S1  UNK     1      18.759   3.699  29.733  1.00  0.00    -0.041 SA
BRANCH   3   5
HETATM    5  N1  UNK     1      17.934   2.183  31.707  1.00  0.00    -0.358 N 
HETATM    6  H8  UNK     1      17.080   1.665  31.520  1.00  0.00     0.162 HD
BRANCH   5   7
HETATM    7  C1  UNK     1      18.954   1.510  32.481  1.00  0.00     0.117 C 
HETATM    8  C2  UNK     1      18.465   1.246  33.910  1.00  0.00     0.030 C 
HETATM    9  C3  UNK     1      17.534   0.038  33.964  1.00  0.00     0.007 C 
HETATM   10  C4  UNK     1      18.263  -1.220  33.503  1.00  0.00     0.039 C 
HETATM   11  C6  UNK     1      19.053  -1.027  32.232  1.00  0.00    -0.050 A 
HETATM   12  C5  UNK     1      19.412   0.254  31.771  1.00  0.00    -0.029 A 
HETATM   13  C8  UNK     1      19.493  -2.161  31.533  1.00  0.00     0.007 A 
HETATM   14  C7  UNK     1      20.189   0.369  30.605  1.00  0.00     0.010 A 
HETATM   15  C9  UNK     1      20.610  -0.766  29.914  1.00  0.00     0.001 A 
HETATM   16  C10 UNK     1      20.264  -2.030  30.377  1.00  0.00     0.001 A 
ENDBRANCH   5   7
ENDBRANCH   3   5
ENDBRANCH   1   3
BRANCH   1  17
HETATM   17  C12 UNK     1      17.879   5.665  32.541  1.00  0.00     0.036 A 
HETATM   18  C15 UNK     1      17.009   6.722  32.701  1.00  0.00     0.067 A 
HETATM   19  C14 UNK     1      17.509   7.921  33.213  1.00  0.00     0.092 A 
HETATM   20  C13 UNK     1      18.851   8.080  33.563  1.00  0.00     0.004 A 
HETATM   21  O1  UNK     1      16.589   8.977  33.362  1.00  0.00    -0.275 OA
HETATM   22  C17 UNK     1      19.704   6.982  33.385  1.00  0.00     0.017 A 
HETATM   23  C18 UNK     1      19.291   9.377  34.095  1.00  0.00    -0.043 A 
HETATM   24  C16 UNK     1      19.217   5.774  32.874  1.00  0.00     0.030 A 
HETATM   25  C19 UNK     1      18.393  10.363  34.225  1.00  0.00     0.090 A 
HETATM   26  C20 UNK     1      20.727   9.579  34.480  1.00  0.00     0.049 C 
HETATM   27  C21 UNK     1      16.974  10.212  33.860  1.00  0.00     0.288 A 
HETATM   28  O2  UNK     1      16.181  11.137  33.994  1.00  0.00    -0.260 OA
ENDBRANCH   1  17
TORSDOF 4
ENDMDL
MODEL 10
REMARK VINA RESULT:      -8.8     10.724     13.822
REMARK  4 active torsions:
REMARK  status: ('A' for Active; 'I' for Inactive)
REMARK    1  A    between atoms: C1_6  and  N1_4 
REMARK    2  A    between atoms: C11_16  and  N1_4 
REMARK    3  A    between atoms: C11_16  and  N2_5 
REMARK    4  A    between atoms: C12_17  and  N2_5 
ROOT
HETATM    1  N2  UNK     1      31.300  -6.429  33.547  1.00  0.00    -0.333 N 
HETATM    2  H13 UNK     1      31.121  -5.616  32.968  1.00  0.00     0.168 HD
ENDROOT
BRANCH   1   3
HETATM    3  C11 UNK     1      32.454  -7.139  33.231  1.00  0.00     0.172 C 
HETATM    4  S1  UNK     1      32.644  -8.382  32.119  1.00  0.00    -0.041 SA
BRANCH   3   5
HETATM    5  N1  UNK     1      33.594  -6.717  33.908  1.00  0.00    -0.358 N 
HETATM    6  H8  UNK     1      33.940  -5.794  33.659  1.00  0.00     0.162 HD
BRANCH   5   7
HETATM    7  C1  UNK     1      34.344  -7.453  34.902  1.00  0.00     0.117 C 
HETATM    8  C2  UNK     1      35.508  -6.609  35.438  1.00  0.00     0.030 C 
HETATM    9  C3  UNK     1      35.025  -5.587  36.464  1.00  0.00     0.007 C 
HETATM   10  C4  UNK     1      34.394  -6.290  37.662  1.00  0.00     0.039 C 
HETATM   11  C6  UNK     1      33.423  -7.378  37.280  1.00  0.00    -0.050 A 
HETATM   12  C5  UNK     1      33.424  -7.953  35.994  1.00  0.00    -0.029 A 
HETATM   13  C8  UNK     1      32.543  -7.870  38.255  1.00  0.00     0.007 A 
HETATM   14  C7  UNK     1      32.527  -8.998  35.710  1.00  0.00     0.010 A 
HETATM   15  C9  UNK     1      31.650  -9.469  36.686  1.00  0.00     0.001 A 
HETATM   16  C10 UNK     1      31.658  -8.907  37.958  1.00  0.00     0.001 A 
ENDBRANCH   5   7
ENDBRANCH   3   5
ENDBRANCH   1   3
BRANCH   1  17
HETATM   17  C12 UNK     1      30.465  -6.444  34.694  1.00  0.00     0.036 A 
HETATM   18  C15 UNK     1      30.706  -5.550  35.715  1.00  0.00     0.067 A 
HETATM   19  C14 UNK     1      29.871  -5.581  36.834  1.00  0.00     0.092 A 
HETATM   20  C13 UNK     1      28.812  -6.483  36.949  1.00  0.00     0.004 A 
HETATM   21  O1  UNK     1      30.150  -4.652  37.855  1.00  0.00    -0.275 OA
HETATM   22  C17 UNK     1      28.601  -7.376  35.890  1.00  0.00     0.017 A 
HETATM   23  C18 UNK     1      27.984  -6.446  38.162  1.00  0.00    -0.043 A 
HETATM   24  C16 UNK     1      29.428  -7.356  34.761  1.00  0.00     0.030 A 
HETATM   25  C19 UNK     1      28.273  -5.551  39.117  1.00  0.00     0.090 A 
HETATM   26  C20 UNK     1      26.838  -7.402  38.316  1.00  0.00     0.049 C 
HETATM   27  C21 UNK     1      29.387  -4.593  39.011  1.00  0.00     0.288 A 
HETATM   28  O2  UNK     1      29.621  -3.788  39.905  1.00  0.00    -0.260 OA
ENDBRANCH   1  17
TORSDOF 4
ENDMDL
