MODEL 1
REMARK VINA RESULT:      -9.5      0.000      0.000
REMARK  7 active torsions:
REMARK  status: ('A' for Active; 'I' for Inactive)
REMARK    1  A    between atoms: C3_9  and  S1_1 
REMARK    2  A    between atoms: C9_15  and  S1_1 
REMARK    3  A    between atoms: C6_12  and  O1_2 
REMARK       I    between atoms: C13_19  and  N3_6 
REMARK    4  A    between atoms: C8_14  and  N3_6 
REMARK    5  A    between atoms: C13_19  and  C9_15 
REMARK    6  A    between atoms: C10_16  and  C16_22 
REMARK    7  A    between atoms: C17_23  and  C18_24 
ROOT
HETATM    1  O2  UNK     1      17.892   2.777  28.203  1.00  0.00    -0.272 OA
HETATM    2  N3  UNK     1      18.672   2.415  30.390  1.00  0.00    -0.327 N 
HETATM    3  C13 UNK     1      18.324   2.050  29.094  1.00  0.00     0.231 C 
HETATM    4  H9  UNK     1      19.000   1.681  31.013  1.00  0.00     0.169 HD
ENDROOT
BRANCH   2   5
HETATM    5  C8  UNK     1      18.623   3.708  30.963  1.00  0.00     0.034 A 
HETATM    6  C11 UNK     1      17.899   3.908  32.127  1.00  0.00     0.030 A 
HETATM    7  C14 UNK     1      17.850   5.183  32.690  1.00  0.00     0.013 A 
HETATM    8  C10 UNK     1      18.527   6.241  32.083  1.00  0.00    -0.036 A 
HETATM    9  C15 UNK     1      19.251   6.023  30.911  1.00  0.00     0.013 A 
HETATM   10  C12 UNK     1      19.300   4.748  30.346  1.00  0.00     0.030 A 
BRANCH   8  11
HETATM   11  C16 UNK     1      18.475   7.570  32.670  1.00  0.00     0.012 C 
HETATM   12  C18 UNK     1      17.342   8.259  32.941  1.00  0.00     0.012 C 
BRANCH  12  13
HETATM   13  C17 UNK     1      17.288   9.598  33.556  1.00  0.00    -0.036 A 
HETATM   14  C19 UNK     1      18.468  10.290  33.778  1.00  0.00     0.011 A 
HETATM   15  C22 UNK     1      18.418  11.557  34.360  1.00  0.00     0.001 A 
HETATM   16  C24 UNK     1      17.188  12.114  34.712  1.00  0.00     0.000 A 
HETATM   17  C23 UNK     1      16.010  11.405  34.482  1.00  0.00     0.001 A 
HETATM   18  C20 UNK     1      16.059  10.137  33.900  1.00  0.00     0.011 A 
ENDBRANCH  12  13
ENDBRANCH   8  11
ENDBRANCH   2   5
BRANCH   3  19
HETATM   19  C9  UNK     1      18.514   0.568  28.853  1.00  0.00     0.185 C 
BRANCH  19  20
HETATM   20  S1  UNK     1      20.201   0.106  29.347  1.00  0.00    -0.083 SA
BRANCH  20  21
HETATM   21  C3  UNK     1      19.941  -0.489  30.943  1.00  0.00     0.168 A 
HETATM   22  N1  UNK     1      20.716  -1.496  31.445  1.00  0.00    -0.333 N 
HETATM   23  C1  UNK     1      20.287  -1.758  32.721  1.00  0.00     0.066 A 
HETATM   24  H1  UNK     1      21.472  -1.963  30.962  1.00  0.00     0.168 HD
HETATM   25  C2  UNK     1      19.239  -0.865  32.923  1.00  0.00     0.086 A 
HETATM   26  C4  UNK     1      20.711  -2.673  33.684  1.00  0.00     0.068 A 
HETATM   27  N2  UNK     1      19.039  -0.084  31.808  1.00  0.00    -0.223 NA
HETATM   28  C5  UNK     1      18.564  -0.869  34.156  1.00  0.00     0.037 A 
HETATM   29  C7  UNK     1      18.973  -1.779  35.139  1.00  0.00     0.039 A 
HETATM   30  C6  UNK     1      20.027  -2.664  34.905  1.00  0.00     0.070 A 
BRANCH  30  31
HETATM   31  O1  UNK     1      20.398  -3.538  35.884  1.00  0.00    -0.356 OA
HETATM   32  C21 UNK     1      20.003  -3.222  37.217  1.00  0.00     0.210 C 
ENDBRANCH  30  31
ENDBRANCH  20  21
ENDBRANCH  19  20
ENDBRANCH   3  19
TORSDOF 7
ENDMDL
MODEL 2
REMARK VINA RESULT:      -9.5      2.056      2.659
REMARK  7 active torsions:
REMARK  status: ('A' for Active; 'I' for Inactive)
REMARK    1  A    between atoms: C3_9  and  S1_1 
REMARK    2  A    between atoms: C9_15  and  S1_1 
REMARK    3  A    between atoms: C6_12  and  O1_2 
REMARK       I    between atoms: C13_19  and  N3_6 
REMARK    4  A    between atoms: C8_14  and  N3_6 
REMARK    5  A    between atoms: C13_19  and  C9_15 
REMARK    6  A    between atoms: C10_16  and  C16_22 
REMARK    7  A    between atoms: C17_23  and  C18_24 
ROOT
HETATM    1  O2  UNK     1      21.070   0.490  30.845  1.00  0.00    -0.272 OA
HETATM    2  N3  UNK     1      18.803   0.929  30.409  1.00  0.00    -0.327 N 
HETATM    3  C13 UNK     1      19.951   0.147  30.471  1.00  0.00     0.231 C 
HETATM    4  H9  UNK     1      17.954   0.490  30.057  1.00  0.00     0.169 HD
ENDROOT
BRANCH   2   5
HETATM    5  C8  UNK     1      18.665   2.287  30.780  1.00  0.00     0.034 A 
HETATM    6  C11 UNK     1      18.278   2.602  32.072  1.00  0.00     0.030 A 
HETATM    7  C14 UNK     1      18.141   3.941  32.437  1.00  0.00     0.013 A 
HETATM    8  C10 UNK     1      18.395   4.948  31.505  1.00  0.00    -0.036 A 
HETATM    9  C15 UNK     1      18.785   4.614  30.208  1.00  0.00     0.013 A 
HETATM   10  C12 UNK     1      18.922   3.274  29.842  1.00  0.00     0.030 A 
BRANCH   8  11
HETATM   11  C16 UNK     1      18.252   6.343  31.886  1.00  0.00     0.012 C 
HETATM   12  C18 UNK     1      17.546   6.794  32.949  1.00  0.00     0.012 C 
BRANCH  12  13
HETATM   13  C17 UNK     1      17.417   8.207  33.348  1.00  0.00    -0.036 A 
HETATM   14  C19 UNK     1      16.160   8.791  33.380  1.00  0.00     0.011 A 
HETATM   15  C22 UNK     1      16.039  10.129  33.757  1.00  0.00     0.001 A 
HETATM   16  C24 UNK     1      17.175  10.864  34.095  1.00  0.00     0.000 A 
HETATM   17  C23 UNK     1      18.432  10.262  34.057  1.00  0.00     0.001 A 
HETATM   18  C20 UNK     1      18.555   8.924  33.680  1.00  0.00     0.011 A 
ENDBRANCH  12  13
ENDBRANCH   8  11
ENDBRANCH   2   5
BRANCH   3  19
HETATM   19  C9  UNK     1      19.702  -1.265  29.986  1.00  0.00     0.185 C 
BRANCH  19  20
HETATM   20  S1  UNK     1      20.159  -2.428  31.306  1.00  0.00    -0.083 SA
BRANCH  20  21
HETATM   21  C3  UNK     1      19.346  -1.745  32.662  1.00  0.00     0.168 A 
HETATM   22  N1  UNK     1      19.929  -1.751  33.899  1.00  0.00    -0.333 N 
HETATM   23  C1  UNK     1      19.062  -1.148  34.773  1.00  0.00     0.066 A 
HETATM   24  H1  UNK     1      20.837  -2.132  34.126  1.00  0.00     0.168 HD
HETATM   25  C2  UNK     1      17.966  -0.800  33.989  1.00  0.00     0.086 A 
HETATM   26  C4  UNK     1      19.140  -0.886  36.141  1.00  0.00     0.068 A 
HETATM   27  N2  UNK     1      18.161  -1.178  32.680  1.00  0.00    -0.223 NA
HETATM   28  C5  UNK     1      16.874  -0.149  34.588  1.00  0.00     0.037 A 
HETATM   29  C7  UNK     1      16.930   0.124  35.961  1.00  0.00     0.039 A 
HETATM   30  C6  UNK     1      18.044  -0.238  36.722  1.00  0.00     0.070 A 
BRANCH  30  31
HETATM   31  O1  UNK     1      18.064   0.043  38.056  1.00  0.00    -0.356 OA
HETATM   32  C21 UNK     1      17.622   1.339  38.451  1.00  0.00     0.210 C 
ENDBRANCH  30  31
ENDBRANCH  20  21
ENDBRANCH  19  20
ENDBRANCH   3  19
TORSDOF 7
ENDMDL
MODEL 3
REMARK VINA RESULT:      -9.3      2.540     10.503
REMARK  7 active torsions:
REMARK  status: ('A' for Active; 'I' for Inactive)
REMARK    1  A    between atoms: C3_9  and  S1_1 
REMARK    2  A    between atoms: C9_15  and  S1_1 
REMARK    3  A    between atoms: C6_12  and  O1_2 
REMARK       I    between atoms: C13_19  and  N3_6 
REMARK    4  A    between atoms: C8_14  and  N3_6 
REMARK    5  A    between atoms: C13_19  and  C9_15 
REMARK    6  A    between atoms: C10_16  and  C16_22 
REMARK    7  A    between atoms: C17_23  and  C18_24 
ROOT
HETATM    1  O2  UNK     1      19.928  -1.709  29.500  1.00  0.00    -0.272 OA
HETATM    2  N3  UNK     1      19.827  -0.166  31.269  1.00  0.00    -0.327 N 
HETATM    3  C13 UNK     1      19.862  -0.563  29.936  1.00  0.00     0.231 C 
HETATM    4  H9  UNK     1      19.789   0.833  31.460  1.00  0.00     0.169 HD
ENDROOT
BRANCH   2   5
HETATM    5  C8  UNK     1      19.841  -0.995  32.415  1.00  0.00     0.034 A 
HETATM    6  C11 UNK     1      18.962  -0.731  33.453  1.00  0.00     0.030 A 
HETATM    7  C14 UNK     1      18.977  -1.548  34.584  1.00  0.00     0.013 A 
HETATM    8  C10 UNK     1      19.868  -2.618  34.660  1.00  0.00    -0.036 A 
HETATM    9  C15 UNK     1      20.746  -2.871  33.606  1.00  0.00     0.013 A 
HETATM   10  C12 UNK     1      20.732  -2.053  32.475  1.00  0.00     0.030 A 
BRANCH   8  11
HETATM   11  C16 UNK     1      19.883  -3.469  35.839  1.00  0.00     0.012 C 
HETATM   12  C18 UNK     1      19.966  -4.820  35.825  1.00  0.00     0.012 C 
BRANCH  12  13
HETATM   13  C17 UNK     1      20.001  -5.682  37.020  1.00  0.00    -0.036 A 
HETATM   14  C19 UNK     1      18.972  -6.585  37.236  1.00  0.00     0.011 A 
HETATM   15  C22 UNK     1      19.005  -7.400  38.367  1.00  0.00     0.001 A 
HETATM   16  C24 UNK     1      20.066  -7.302  39.267  1.00  0.00     0.000 A 
HETATM   17  C23 UNK     1      21.094  -6.388  39.036  1.00  0.00     0.001 A 
HETATM   18  C20 UNK     1      21.062  -5.572  37.904  1.00  0.00     0.011 A 
ENDBRANCH  12  13
ENDBRANCH   8  11
ENDBRANCH   2   5
BRANCH   3  19
HETATM   19  C9  UNK     1      19.831   0.618  28.992  1.00  0.00     0.185 C 
BRANCH  19  20
HETATM   20  S1  UNK     1      18.169   1.352  29.025  1.00  0.00    -0.083 SA
BRANCH  20  21
HETATM   21  C3  UNK     1      18.352   2.562  30.237  1.00  0.00     0.168 A 
HETATM   22  N1  UNK     1      19.025   3.721  29.969  1.00  0.00    -0.333 N 
HETATM   23  C1  UNK     1      19.011   4.486  31.106  1.00  0.00     0.066 A 
HETATM   24  H1  UNK     1      19.454   3.969  29.087  1.00  0.00     0.168 HD
HETATM   25  C2  UNK     1      18.308   3.720  32.030  1.00  0.00     0.086 A 
HETATM   26  C4  UNK     1      19.539   5.744  31.397  1.00  0.00     0.068 A 
HETATM   27  N2  UNK     1      17.906   2.528  31.473  1.00  0.00    -0.223 NA
HETATM   28  C5  UNK     1      18.108   4.223  33.327  1.00  0.00     0.037 A 
HETATM   29  C7  UNK     1      18.629   5.485  33.642  1.00  0.00     0.039 A 
HETATM   30  C6  UNK     1      19.331   6.230  32.693  1.00  0.00     0.070 A 
BRANCH  30  31
HETATM   31  O1  UNK     1      19.826   7.454  33.034  1.00  0.00    -0.356 OA
HETATM   32  C21 UNK     1      19.444   7.975  34.305  1.00  0.00     0.210 C 
ENDBRANCH  30  31
ENDBRANCH  20  21
ENDBRANCH  19  20
ENDBRANCH   3  19
TORSDOF 7
ENDMDL
MODEL 4
REMARK VINA RESULT:      -9.1      4.834      7.425
REMARK  7 active torsions:
REMARK  status: ('A' for Active; 'I' for Inactive)
REMARK    1  A    between atoms: C3_9  and  S1_1 
REMARK    2  A    between atoms: C9_15  and  S1_1 
REMARK    3  A    between atoms: C6_12  and  O1_2 
REMARK       I    between atoms: C13_19  and  N3_6 
REMARK    4  A    between atoms: C8_14  and  N3_6 
REMARK    5  A    between atoms: C13_19  and  C9_15 
REMARK    6  A    between atoms: C10_16  and  C16_22 
REMARK    7  A    between atoms: C17_23  and  C18_24 
ROOT
HETATM    1  O2  UNK     1      21.426  -2.451  35.948  1.00  0.00    -0.272 OA
HETATM    2  N3  UNK     1      19.085  -2.282  36.073  1.00  0.00    -0.327 N 
HETATM    3  C13 UNK     1      20.327  -2.858  36.318  1.00  0.00     0.231 C 
HETATM    4  H9  UNK     1      18.265  -2.761  36.440  1.00  0.00     0.169 HD
ENDROOT
BRANCH   2   5
HETATM    5  C8  UNK     1      18.814  -1.091  35.359  1.00  0.00     0.034 A 
HETATM    6  C11 UNK     1      18.642   0.093  36.056  1.00  0.00     0.030 A 
HETATM    7  C14 UNK     1      18.373   1.267  35.352  1.00  0.00     0.013 A 
HETATM    8  C10 UNK     1      18.282   1.241  33.961  1.00  0.00    -0.036 A 
HETATM    9  C15 UNK     1      18.459   0.040  33.273  1.00  0.00     0.013 A 
HETATM   10  C12 UNK     1      18.727  -1.135  33.977  1.00  0.00     0.030 A 
BRANCH   8  11
HETATM   11  C16 UNK     1      18.002   2.465  33.228  1.00  0.00     0.012 C 
HETATM   12  C18 UNK     1      18.384   3.707  33.608  1.00  0.00     0.012 C 
BRANCH  12  13
HETATM   13  C17 UNK     1      18.118   4.946  32.854  1.00  0.00    -0.036 A 
HETATM   14  C19 UNK     1      17.323   5.928  33.424  1.00  0.00     0.011 A 
HETATM   15  C22 UNK     1      17.071   7.100  32.711  1.00  0.00     0.001 A 
HETATM   16  C24 UNK     1      17.616   7.274  31.439  1.00  0.00     0.000 A 
HETATM   17  C23 UNK     1      18.414   6.276  30.880  1.00  0.00     0.001 A 
HETATM   18  C20 UNK     1      18.667   5.103  31.592  1.00  0.00     0.011 A 
ENDBRANCH  12  13
ENDBRANCH   8  11
ENDBRANCH   2   5
BRANCH   3  19
HETATM   19  C9  UNK     1      20.211  -4.135  37.121  1.00  0.00     0.185 C 
BRANCH  19  20
HETATM   20  S1  UNK     1      18.861  -5.139  36.434  1.00  0.00    -0.083 SA
BRANCH  20  21
HETATM   21  C3  UNK     1      19.551  -6.717  36.476  1.00  0.00     0.168 A 
HETATM   22  N1  UNK     1      20.404  -7.130  35.491  1.00  0.00    -0.333 N 
HETATM   23  C1  UNK     1      20.791  -8.412  35.783  1.00  0.00     0.066 A 
HETATM   24  H1  UNK     1      20.698  -6.584  34.691  1.00  0.00     0.168 HD
HETATM   25  C2  UNK     1      20.125  -8.713  36.967  1.00  0.00     0.086 A 
HETATM   26  C4  UNK     1      21.639  -9.308  35.131  1.00  0.00     0.068 A 
HETATM   27  N2  UNK     1      19.360  -7.648  37.383  1.00  0.00    -0.223 NA
HETATM   28  C5  UNK     1      20.306  -9.978  37.552  1.00  0.00     0.037 A 
HETATM   29  C7  UNK     1      21.153 -10.894  36.915  1.00  0.00     0.039 A 
HETATM   30  C6  UNK     1      21.807 -10.563  35.727  1.00  0.00     0.070 A 
BRANCH  30  31
HETATM   31  O1  UNK     1      22.624 -11.479  35.133  1.00  0.00    -0.356 OA
HETATM   32  C21 UNK     1      23.870 -11.745  35.772  1.00  0.00     0.210 C 
ENDBRANCH  30  31
ENDBRANCH  20  21
ENDBRANCH  19  20
ENDBRANCH   3  19
TORSDOF 7
ENDMDL
MODEL 5
REMARK VINA RESULT:      -8.7      3.827     12.570
REMARK  7 active torsions:
REMARK  status: ('A' for Active; 'I' for Inactive)
REMARK    1  A    between atoms: C3_9  and  S1_1 
REMARK    2  A    between atoms: C9_15  and  S1_1 
REMARK    3  A    between atoms: C6_12  and  O1_2 
REMARK       I    between atoms: C13_19  and  N3_6 
REMARK    4  A    between atoms: C8_14  and  N3_6 
REMARK    5  A    between atoms: C13_19  and  C9_15 
REMARK    6  A    between atoms: C10_16  and  C16_22 
REMARK    7  A    between atoms: C17_23  and  C18_24 
ROOT
HETATM    1  O2  UNK     1      17.549   0.159  33.810  1.00  0.00    -0.272 OA
HETATM    2  N3  UNK     1      19.052   0.172  35.617  1.00  0.00    -0.327 N 
HETATM    3  C13 UNK     1      18.240   0.742  34.642  1.00  0.00     0.231 C 
HETATM    4  H9  UNK     1      19.575   0.804  36.220  1.00  0.00     0.169 HD
ENDROOT
BRANCH   2   5
HETATM    5  C8  UNK     1      19.248  -1.205  35.877  1.00  0.00     0.034 A 
HETATM    6  C11 UNK     1      19.975  -1.968  34.979  1.00  0.00     0.030 A 
HETATM    7  C14 UNK     1      20.167  -3.326  35.236  1.00  0.00     0.013 A 
HETATM    8  C10 UNK     1      19.631  -3.900  36.388  1.00  0.00    -0.036 A 
HETATM    9  C15 UNK     1      18.901  -3.118  37.283  1.00  0.00     0.013 A 
HETATM   10  C12 UNK     1      18.709  -1.759  37.026  1.00  0.00     0.030 A 
BRANCH   8  11
HETATM   11  C16 UNK     1      19.831  -5.316  36.655  1.00  0.00     0.012 C 
HETATM   12  C18 UNK     1      19.073  -6.067  37.488  1.00  0.00     0.012 C 
BRANCH  12  13
HETATM   13  C17 UNK     1      19.263  -7.507  37.743  1.00  0.00    -0.036 A 
HETATM   14  C19 UNK     1      18.814  -8.426  36.808  1.00  0.00     0.011 A 
HETATM   15  C22 UNK     1      18.993  -9.788  37.050  1.00  0.00     0.001 A 
HETATM   16  C24 UNK     1      19.617 -10.212  38.223  1.00  0.00     0.000 A 
HETATM   17  C23 UNK     1      20.063  -9.275  39.154  1.00  0.00     0.001 A 
HETATM   18  C20 UNK     1      19.885  -7.912  38.913  1.00  0.00     0.011 A 
ENDBRANCH  12  13
ENDBRANCH   8  11
ENDBRANCH   2   5
BRANCH   3  19
HETATM   19  C9  UNK     1      18.291   2.254  34.674  1.00  0.00     0.185 C 
BRANCH  19  20
HETATM   20  S1  UNK     1      18.190   2.880  32.971  1.00  0.00    -0.083 SA
BRANCH  20  21
HETATM   21  C3  UNK     1      18.250   4.582  33.228  1.00  0.00     0.168 A 
HETATM   22  N1  UNK     1      17.198   5.378  32.868  1.00  0.00    -0.333 N 
HETATM   23  C1  UNK     1      17.523   6.671  33.187  1.00  0.00     0.066 A 
HETATM   24  H1  UNK     1      16.334   5.066  32.444  1.00  0.00     0.168 HD
HETATM   25  C2  UNK     1      18.797   6.581  33.739  1.00  0.00     0.086 A 
HETATM   26  C4  UNK     1      16.832   7.875  33.043  1.00  0.00     0.068 A 
HETATM   27  N2  UNK     1      19.232   5.277  33.756  1.00  0.00    -0.223 NA
HETATM   28  C5  UNK     1      19.436   7.753  34.181  1.00  0.00     0.037 A 
HETATM   29  C7  UNK     1      18.762   8.973  34.047  1.00  0.00     0.039 A 
HETATM   30  C6  UNK     1      17.483   9.031  33.488  1.00  0.00     0.070 A 
BRANCH  30  31
HETATM   31  O1  UNK     1      16.856  10.236  33.371  1.00  0.00    -0.356 OA
HETATM   32  C21 UNK     1      17.386  11.317  34.134  1.00  0.00     0.210 C 
ENDBRANCH  30  31
ENDBRANCH  20  21
ENDBRANCH  19  20
ENDBRANCH   3  19
TORSDOF 7
ENDMDL
MODEL 6
REMARK VINA RESULT:      -8.6      2.345      3.877
REMARK  7 active torsions:
REMARK  status: ('A' for Active; 'I' for Inactive)
REMARK    1  A    between atoms: C3_9  and  S1_1 
REMARK    2  A    between atoms: C9_15  and  S1_1 
REMARK    3  A    between atoms: C6_12  and  O1_2 
REMARK       I    between atoms: C13_19  and  N3_6 
REMARK    4  A    between atoms: C8_14  and  N3_6 
REMARK    5  A    between atoms: C13_19  and  C9_15 
REMARK    6  A    between atoms: C10_16  and  C16_22 
REMARK    7  A    between atoms: C17_23  and  C18_24 
ROOT
HETATM    1  O2  UNK     1      17.534   4.147  31.954  1.00  0.00    -0.272 OA
HETATM    2  N3  UNK     1      18.430   6.194  31.227  1.00  0.00    -0.327 N 
HETATM    3  C13 UNK     1      18.278   4.811  31.237  1.00  0.00     0.231 C 
HETATM    4  H9  UNK     1      19.107   6.587  30.577  1.00  0.00     0.169 HD
ENDROOT
BRANCH   2   5
HETATM    5  C8  UNK     1      17.747   7.141  32.026  1.00  0.00     0.034 A 
HETATM    6  C11 UNK     1      16.459   7.516  31.681  1.00  0.00     0.030 A 
HETATM    7  C14 UNK     1      15.786   8.451  32.469  1.00  0.00     0.013 A 
HETATM    8  C10 UNK     1      16.410   8.997  33.590  1.00  0.00    -0.036 A 
HETATM    9  C15 UNK     1      17.708   8.608  33.924  1.00  0.00     0.013 A 
HETATM   10  C12 UNK     1      18.381   7.673  33.136  1.00  0.00     0.030 A 
BRANCH   8  11
HETATM   11  C16 UNK     1      15.709   9.971  34.410  1.00  0.00     0.012 C 
HETATM   12  C18 UNK     1      14.393  10.273  34.310  1.00  0.00     0.012 C 
BRANCH  12  13
HETATM   13  C17 UNK     1      13.677  11.245  35.155  1.00  0.00    -0.036 A 
HETATM   14  C19 UNK     1      14.013  11.356  36.495  1.00  0.00     0.011 A 
HETATM   15  C22 UNK     1      13.335  12.277  37.295  1.00  0.00     0.001 A 
HETATM   16  C24 UNK     1      12.331  13.073  36.744  1.00  0.00     0.000 A 
HETATM   17  C23 UNK     1      12.004  12.949  35.394  1.00  0.00     0.001 A 
HETATM   18  C20 UNK     1      12.682  12.028  34.593  1.00  0.00     0.011 A 
ENDBRANCH  12  13
ENDBRANCH   8  11
ENDBRANCH   2   5
BRANCH   3  19
HETATM   19  C9  UNK     1      19.186   4.134  30.234  1.00  0.00     0.185 C 
BRANCH  19  20
HETATM   20  S1  UNK     1      18.216   2.921  29.292  1.00  0.00    -0.083 SA
BRANCH  20  21
HETATM   21  C3  UNK     1      18.888   1.436  29.850  1.00  0.00     0.168 A 
HETATM   22  N1  UNK     1      18.822   1.095  31.172  1.00  0.00    -0.333 N 
HETATM   23  C1  UNK     1      19.431  -0.124  31.321  1.00  0.00     0.066 A 
HETATM   24  H1  UNK     1      18.399   1.645  31.907  1.00  0.00     0.168 HD
HETATM   25  C2  UNK     1      19.845  -0.463  30.036  1.00  0.00     0.086 A 
HETATM   26  C4  UNK     1      19.648  -0.935  32.435  1.00  0.00     0.068 A 
HETATM   27  N2  UNK     1      19.499   0.518  29.136  1.00  0.00    -0.223 NA
HETATM   28  C5  UNK     1      20.518  -1.680  29.832  1.00  0.00     0.037 A 
HETATM   29  C7  UNK     1      20.747  -2.510  30.937  1.00  0.00     0.039 A 
HETATM   30  C6  UNK     1      20.319  -2.143  32.214  1.00  0.00     0.070 A 
BRANCH  30  31
HETATM   31  O1  UNK     1      20.561  -2.974  33.267  1.00  0.00    -0.356 OA
HETATM   32  C21 UNK     1      20.243  -2.481  34.567  1.00  0.00     0.210 C 
ENDBRANCH  30  31
ENDBRANCH  20  21
ENDBRANCH  19  20
ENDBRANCH   3  19
TORSDOF 7
ENDMDL
MODEL 7
REMARK VINA RESULT:      -8.6      5.268     12.462
REMARK  7 active torsions:
REMARK  status: ('A' for Active; 'I' for Inactive)
REMARK    1  A    between atoms: C3_9  and  S1_1 
REMARK    2  A    between atoms: C9_15  and  S1_1 
REMARK    3  A    between atoms: C6_12  and  O1_2 
REMARK       I    between atoms: C13_19  and  N3_6 
REMARK    4  A    between atoms: C8_14  and  N3_6 
REMARK    5  A    between atoms: C13_19  and  C9_15 
REMARK    6  A    between atoms: C10_16  and  C16_22 
REMARK    7  A    between atoms: C17_23  and  C18_24 
ROOT
HETATM    1  O2  UNK     1      15.137   8.028  31.879  1.00  0.00    -0.272 OA
HETATM    2  N3  UNK     1      17.333   7.842  32.695  1.00  0.00    -0.327 N 
HETATM    3  C13 UNK     1      16.087   8.440  32.541  1.00  0.00     0.231 C 
HETATM    4  H9  UNK     1      18.018   8.328  33.270  1.00  0.00     0.169 HD
ENDROOT
BRANCH   2   5
HETATM    5  C8  UNK     1      17.776   6.619  32.140  1.00  0.00     0.034 A 
HETATM    6  C11 UNK     1      18.372   6.618  30.889  1.00  0.00     0.030 A 
HETATM    7  C14 UNK     1      18.808   5.412  30.341  1.00  0.00     0.013 A 
HETATM    8  C10 UNK     1      18.643   4.223  31.052  1.00  0.00    -0.036 A 
HETATM    9  C15 UNK     1      18.042   4.241  32.310  1.00  0.00     0.013 A 
HETATM   10  C12 UNK     1      17.605   5.448  32.859  1.00  0.00     0.030 A 
BRANCH   8  11
HETATM   11  C16 UNK     1      19.097   2.966  30.480  1.00  0.00     0.012 C 
HETATM   12  C18 UNK     1      19.031   1.761  31.093  1.00  0.00     0.012 C 
BRANCH  12  13
HETATM   13  C17 UNK     1      19.473   0.483  30.506  1.00  0.00    -0.036 A 
HETATM   14  C19 UNK     1      19.727  -0.595  31.340  1.00  0.00     0.011 A 
HETATM   15  C22 UNK     1      20.145  -1.804  30.785  1.00  0.00     0.001 A 
HETATM   16  C24 UNK     1      20.304  -1.920  29.404  1.00  0.00     0.000 A 
HETATM   17  C23 UNK     1      20.044  -0.826  28.578  1.00  0.00     0.001 A 
HETATM   18  C20 UNK     1      19.626   0.384  29.133  1.00  0.00     0.011 A 
ENDBRANCH  12  13
ENDBRANCH   8  11
ENDBRANCH   2   5
BRANCH   3  19
HETATM   19  C9  UNK     1      15.989   9.749  33.293  1.00  0.00     0.185 C 
BRANCH  19  20
HETATM   20  S1  UNK     1      17.591  10.096  34.077  1.00  0.00    -0.083 SA
BRANCH  20  21
HETATM   21  C3  UNK     1      17.558  11.815  34.179  1.00  0.00     0.168 A 
HETATM   22  N1  UNK     1      18.653  12.555  33.830  1.00  0.00    -0.333 N 
HETATM   23  C1  UNK     1      18.340  13.878  34.010  1.00  0.00     0.066 A 
HETATM   24  H1  UNK     1      19.536  12.190  33.497  1.00  0.00     0.168 HD
HETATM   25  C2  UNK     1      17.029  13.862  34.476  1.00  0.00     0.086 A 
HETATM   26  C4  UNK     1      19.070  15.050  33.814  1.00  0.00     0.068 A 
HETATM   27  N2  UNK     1      16.560  12.573  34.574  1.00  0.00    -0.223 NA
HETATM   28  C5  UNK     1      16.391  15.080  34.767  1.00  0.00     0.037 A 
HETATM   29  C7  UNK     1      17.104  16.270  34.576  1.00  0.00     0.039 A 
HETATM   30  C6  UNK     1      18.420  16.254  34.108  1.00  0.00     0.070 A 
BRANCH  30  31
HETATM   31  O1  UNK     1      19.085  17.431  33.935  1.00  0.00    -0.356 OA
HETATM   32  C21 UNK     1      20.496  17.355  33.748  1.00  0.00     0.210 C 
ENDBRANCH  30  31
ENDBRANCH  20  21
ENDBRANCH  19  20
ENDBRANCH   3  19
TORSDOF 7
ENDMDL
MODEL 8
REMARK VINA RESULT:      -8.5      5.408     11.697
REMARK  7 active torsions:
REMARK  status: ('A' for Active; 'I' for Inactive)
REMARK    1  A    between atoms: C3_9  and  S1_1 
REMARK    2  A    between atoms: C9_15  and  S1_1 
REMARK    3  A    between atoms: C6_12  and  O1_2 
REMARK       I    between atoms: C13_19  and  N3_6 
REMARK    4  A    between atoms: C8_14  and  N3_6 
REMARK    5  A    between atoms: C13_19  and  C9_15 
REMARK    6  A    between atoms: C10_16  and  C16_22 
REMARK    7  A    between atoms: C17_23  and  C18_24 
ROOT
HETATM    1  O2  UNK     1      18.819   8.212  34.276  1.00  0.00    -0.272 OA
HETATM    2  N3  UNK     1      17.331   7.814  32.501  1.00  0.00    -0.327 N 
HETATM    3  C13 UNK     1      17.867   8.528  33.568  1.00  0.00     0.231 C 
HETATM    4  H9  UNK     1      16.524   8.213  32.027  1.00  0.00     0.169 HD
ENDROOT
BRANCH   2   5
HETATM    5  C8  UNK     1      17.776   6.574  31.985  1.00  0.00     0.034 A 
HETATM    6  C11 UNK     1      17.476   5.407  32.668  1.00  0.00     0.030 A 
HETATM    7  C14 UNK     1      17.916   4.185  32.159  1.00  0.00     0.013 A 
HETATM    8  C10 UNK     1      18.649   4.147  30.973  1.00  0.00    -0.036 A 
HETATM    9  C15 UNK     1      18.944   5.331  30.297  1.00  0.00     0.013 A 
HETATM   10  C12 UNK     1      18.504   6.554  30.806  1.00  0.00     0.030 A 
BRANCH   8  11
HETATM   11  C16 UNK     1      19.108   2.874  30.443  1.00  0.00     0.012 C 
HETATM   12  C18 UNK     1      19.094   1.698  31.115  1.00  0.00     0.012 C 
BRANCH  12  13
HETATM   13  C17 UNK     1      19.540   0.403  30.572  1.00  0.00    -0.036 A 
HETATM   14  C19 UNK     1      19.853   0.304  29.225  1.00  0.00     0.011 A 
HETATM   15  C22 UNK     1      20.274  -0.922  28.710  1.00  0.00     0.001 A 
HETATM   16  C24 UNK     1      20.377  -2.032  29.548  1.00  0.00     0.000 A 
HETATM   17  C23 UNK     1      20.058  -1.917  30.901  1.00  0.00     0.001 A 
HETATM   18  C20 UNK     1      19.636  -0.690  31.417  1.00  0.00     0.011 A 
ENDBRANCH  12  13
ENDBRANCH   8  11
ENDBRANCH   2   5
BRANCH   3  19
HETATM   19  C9  UNK     1      17.115   9.816  33.822  1.00  0.00     0.185 C 
BRANCH  19  20
HETATM   20  S1  UNK     1      15.431   9.653  33.157  1.00  0.00    -0.083 SA
BRANCH  20  21
HETATM   21  C3  UNK     1      14.512  10.507  34.338  1.00  0.00     0.168 A 
HETATM   22  N1  UNK     1      14.732  10.305  35.671  1.00  0.00    -0.333 N 
HETATM   23  C1  UNK     1      13.865  11.109  36.365  1.00  0.00     0.066 A 
HETATM   24  H1  UNK     1      15.414   9.675  36.073  1.00  0.00     0.168 HD
HETATM   25  C2  UNK     1      13.144  11.773  35.378  1.00  0.00     0.086 A 
HETATM   26  C4  UNK     1      13.656  11.305  37.731  1.00  0.00     0.068 A 
HETATM   27  N2  UNK     1      13.560  11.387  34.125  1.00  0.00    -0.223 NA
HETATM   28  C5  UNK     1      12.151  12.693  35.757  1.00  0.00     0.037 A 
HETATM   29  C7  UNK     1      11.924  12.906  37.122  1.00  0.00     0.039 A 
HETATM   30  C6  UNK     1      12.664  12.224  38.090  1.00  0.00     0.070 A 
BRANCH  30  31
HETATM   31  O1  UNK     1      12.415  12.455  39.411  1.00  0.00    -0.356 OA
HETATM   32  C21 UNK     1      13.376  11.967  40.345  1.00  0.00     0.210 C 
ENDBRANCH  30  31
ENDBRANCH  20  21
ENDBRANCH  19  20
ENDBRANCH   3  19
TORSDOF 7
ENDMDL
MODEL 9
REMARK VINA RESULT:      -8.5      4.028     12.714
REMARK  7 active torsions:
REMARK  status: ('A' for Active; 'I' for Inactive)
REMARK    1  A    between atoms: C3_9  and  S1_1 
REMARK    2  A    between atoms: C9_15  and  S1_1 
REMARK    3  A    between atoms: C6_12  and  O1_2 
REMARK       I    between atoms: C13_19  and  N3_6 
REMARK    4  A    between atoms: C8_14  and  N3_6 
REMARK    5  A    between atoms: C13_19  and  C9_15 
REMARK    6  A    between atoms: C10_16  and  C16_22 
REMARK    7  A    between atoms: C17_23  and  C18_24 
ROOT
HETATM    1  O2  UNK     1      17.763   0.234  37.070  1.00  0.00    -0.272 OA
HETATM    2  N3  UNK     1      19.462  -0.353  35.556  1.00  0.00    -0.327 N 
HETATM    3  C13 UNK     1      18.566   0.508  36.181  1.00  0.00     0.231 C 
HETATM    4  H9  UNK     1      20.051   0.035  34.821  1.00  0.00     0.169 HD
ENDROOT
BRANCH   2   5
HETATM    5  C8  UNK     1      19.659  -1.729  35.817  1.00  0.00     0.034 A 
HETATM    6  C11 UNK     1      20.080  -2.561  34.793  1.00  0.00     0.030 A 
HETATM    7  C14 UNK     1      20.274  -3.918  35.051  1.00  0.00     0.013 A 
HETATM    8  C10 UNK     1      20.043  -4.425  36.330  1.00  0.00    -0.036 A 
HETATM    9  C15 UNK     1      19.619  -3.574  37.350  1.00  0.00     0.013 A 
HETATM   10  C12 UNK     1      19.426  -2.216  37.093  1.00  0.00     0.030 A 
BRANCH   8  11
HETATM   11  C16 UNK     1      20.244  -5.839  36.598  1.00  0.00     0.012 C 
HETATM   12  C18 UNK     1      20.511  -6.781  35.662  1.00  0.00     0.012 C 
BRANCH  12  13
HETATM   13  C17 UNK     1      20.735  -8.212  35.935  1.00  0.00    -0.036 A 
HETATM   14  C19 UNK     1      20.279  -8.754  37.127  1.00  0.00     0.011 A 
HETATM   15  C22 UNK     1      20.491 -10.108  37.386  1.00  0.00     0.001 A 
HETATM   16  C24 UNK     1      21.157 -10.901  36.451  1.00  0.00     0.000 A 
HETATM   17  C23 UNK     1      21.610 -10.341  35.257  1.00  0.00     0.001 A 
HETATM   18  C20 UNK     1      21.398  -8.986  34.997  1.00  0.00     0.011 A 
ENDBRANCH  12  13
ENDBRANCH   8  11
ENDBRANCH   2   5
BRANCH   3  19
HETATM   19  C9  UNK     1      18.649   1.913  35.626  1.00  0.00     0.185 C 
BRANCH  19  20
HETATM   20  S1  UNK     1      18.228   1.871  33.859  1.00  0.00    -0.083 SA
BRANCH  20  21
HETATM   21  C3  UNK     1      18.132   3.551  33.489  1.00  0.00     0.168 A 
HETATM   22  N1  UNK     1      18.587   4.487  34.375  1.00  0.00    -0.333 N 
HETATM   23  C1  UNK     1      18.384   5.723  33.820  1.00  0.00     0.066 A 
HETATM   24  H1  UNK     1      19.001   4.298  35.279  1.00  0.00     0.168 HD
HETATM   25  C2  UNK     1      17.796   5.456  32.588  1.00  0.00     0.086 A 
HETATM   26  C4  UNK     1      18.655   7.013  34.277  1.00  0.00     0.068 A 
HETATM   27  N2  UNK     1      17.647   4.102  32.399  1.00  0.00    -0.223 NA
HETATM   28  C5  UNK     1      17.452   6.528  31.746  1.00  0.00     0.037 A 
HETATM   29  C7  UNK     1      17.715   7.833  32.184  1.00  0.00     0.039 A 
HETATM   30  C6  UNK     1      18.306   8.069  33.427  1.00  0.00     0.070 A 
BRANCH  30  31
HETATM   31  O1  UNK     1      18.547   9.351  33.822  1.00  0.00    -0.356 OA
HETATM   32  C21 UNK     1      17.416  10.208  33.962  1.00  0.00     0.210 C 
ENDBRANCH  30  31
ENDBRANCH  20  21
ENDBRANCH  19  20
ENDBRANCH   3  19
TORSDOF 7
ENDMDL
MODEL 10
REMARK VINA RESULT:      -8.5      5.598      8.499
REMARK  7 active torsions:
REMARK  status: ('A' for Active; 'I' for Inactive)
REMARK    1  A    between atoms: C3_9  and  S1_1 
REMARK    2  A    between atoms: C9_15  and  S1_1 
REMARK    3  A    between atoms: C6_12  and  O1_2 
REMARK       I    between atoms: C13_19  and  N3_6 
REMARK    4  A    between atoms: C8_14  and  N3_6 
REMARK    5  A    between atoms: C13_19  and  C9_15 
REMARK    6  A    between atoms: C10_16  and  C16_22 
REMARK    7  A    between atoms: C17_23  and  C18_24 
ROOT
HETATM    1  O2  UNK     1      21.200  -3.605  36.911  1.00  0.00    -0.272 OA
HETATM    2  N3  UNK     1      18.869  -3.321  36.816  1.00  0.00    -0.327 N 
HETATM    3  C13 UNK     1      20.051  -4.009  37.070  1.00  0.00     0.231 C 
HETATM    4  H9  UNK     1      17.994  -3.812  36.988  1.00  0.00     0.169 HD
ENDROOT
BRANCH   2   5
HETATM    5  C8  UNK     1      18.729  -1.997  36.337  1.00  0.00     0.034 A 
HETATM    6  C11 UNK     1      18.296  -1.005  37.201  1.00  0.00     0.030 A 
HETATM    7  C14 UNK     1      18.158   0.300  36.728  1.00  0.00     0.013 A 
HETATM    8  C10 UNK     1      18.455   0.595  35.397  1.00  0.00    -0.036 A 
HETATM    9  C15 UNK     1      18.891  -0.415  34.540  1.00  0.00     0.013 A 
HETATM   10  C12 UNK     1      19.029  -1.721  35.013  1.00  0.00     0.030 A 
BRANCH   8  11
HETATM   11  C16 UNK     1      18.310   1.955  34.905  1.00  0.00     0.012 C 
HETATM   12  C18 UNK     1      18.381   2.326  33.604  1.00  0.00     0.012 C 
BRANCH  12  13
HETATM   13  C17 UNK     1      18.214   3.701  33.102  1.00  0.00    -0.036 A 
HETATM   14  C19 UNK     1      18.012   4.733  34.006  1.00  0.00     0.011 A 
HETATM   15  C22 UNK     1      17.853   6.035  33.530  1.00  0.00     0.001 A 
HETATM   16  C24 UNK     1      17.898   6.288  32.160  1.00  0.00     0.000 A 
HETATM   17  C23 UNK     1      18.102   5.239  31.263  1.00  0.00     0.001 A 
HETATM   18  C20 UNK     1      18.261   3.936  31.738  1.00  0.00     0.011 A 
ENDBRANCH  12  13
ENDBRANCH   8  11
ENDBRANCH   2   5
BRANCH   3  19
HETATM   19  C9  UNK     1      19.792  -5.411  37.577  1.00  0.00     0.185 C 
BRANCH  19  20
HETATM   20  S1  UNK     1      21.293  -6.023  38.398  1.00  0.00    -0.083 SA
BRANCH  20  21
HETATM   21  C3  UNK     1      21.576  -7.493  37.545  1.00  0.00     0.168 A 
HETATM   22  N1  UNK     1      22.826  -8.043  37.500  1.00  0.00    -0.333 N 
HETATM   23  C1  UNK     1      22.751  -9.195  36.761  1.00  0.00     0.066 A 
HETATM   24  H1  UNK     1      23.658  -7.666  37.936  1.00  0.00     0.168 HD
HETATM   25  C2  UNK     1      21.414  -9.278  36.387  1.00  0.00     0.086 A 
HETATM   26  C4  UNK     1      23.710 -10.141  36.398  1.00  0.00     0.068 A 
HETATM   27  N2  UNK     1      20.699  -8.213  36.883  1.00  0.00    -0.223 NA
HETATM   28  C5  UNK     1      20.988 -10.366  35.604  1.00  0.00     0.037 A 
HETATM   29  C7  UNK     1      21.934 -11.329  35.228  1.00  0.00     0.039 A 
HETATM   30  C6  UNK     1      23.270 -11.217  35.619  1.00  0.00     0.070 A 
BRANCH  30  31
HETATM   31  O1  UNK     1      24.163 -12.171  35.233  1.00  0.00    -0.356 OA
HETATM   32  C21 UNK     1      24.704 -13.003  36.258  1.00  0.00     0.210 C 
ENDBRANCH  30  31
ENDBRANCH  20  21
ENDBRANCH  19  20
ENDBRANCH   3  19
TORSDOF 7
ENDMDL
