MODEL 1
REMARK VINA RESULT:      -9.4      0.000      0.000
REMARK  3 active torsions:
REMARK  status: ('A' for Active; 'I' for Inactive)
REMARK       I    between atoms: C15_20  and  N1_4 
REMARK    1  A    between atoms: N1_4  and  N2_5 
REMARK    2  A    between atoms: C3_8  and  C6_11 
REMARK    3  A    between atoms: C15_20  and  C4_9 
ROOT
HETATM    1  O3  UNK     1      17.213   4.425  31.570  1.00  0.00    -0.266 OA
HETATM    2  N1  UNK     1      18.682   4.511  33.374  1.00  0.00    -0.242 N 
HETATM    3  C15 UNK     1      18.043   3.904  32.312  1.00  0.00     0.277 C 
HETATM    4  H16 UNK     1      19.362   4.032  33.951  1.00  0.00     0.192 HD
ENDROOT
BRANCH   3   5
HETATM    5  C4  UNK     1      18.455   2.508  32.125  1.00  0.00     0.110 A 
HETATM    6  C12 UNK     1      18.359   1.508  33.212  1.00  0.00     0.304 A 
HETATM    7  O1  UNK     1      18.779   0.215  32.913  1.00  0.00    -0.274 OA
HETATM    8  O2  UNK     1      17.929   1.799  34.323  1.00  0.00    -0.259 OA
HETATM    9  C2  UNK     1      19.273  -0.128  31.639  1.00  0.00     0.089 A 
HETATM   10  C1  UNK     1      19.356   0.827  30.631  1.00  0.00    -0.001 A 
HETATM   11  C11 UNK     1      19.671  -1.449  31.434  1.00  0.00     0.038 A 
HETATM   12  C5  UNK     1      18.924   2.187  30.913  1.00  0.00     0.037 A 
HETATM   13  C8  UNK     1      19.852   0.447  29.382  1.00  0.00     0.014 A 
HETATM   14  C16 UNK     1      20.254  -0.874  29.161  1.00  0.00     0.001 A 
HETATM   15  C17 UNK     1      20.164  -1.819  30.185  1.00  0.00     0.003 A 
ENDBRANCH   3   5
BRANCH   2  16
HETATM   16  N2  UNK     1      18.390   5.801  33.651  1.00  0.00    -0.176 NA
HETATM   17  C6  UNK     1      19.309   6.697  33.437  1.00  0.00     0.061 C 
HETATM   18  C18 UNK     1      20.703   6.393  32.926  1.00  0.00     0.073 C 
BRANCH  17  19
HETATM   19  C3  UNK     1      18.968   8.120  33.710  1.00  0.00    -0.010 A 
HETATM   20  C10 UNK     1      17.685   8.554  33.460  1.00  0.00     0.014 A 
HETATM   21  C14 UNK     1      17.366   9.888  33.713  1.00  0.00     0.007 A 
HETATM   22  C7  UNK     1      18.338  10.756  34.210  1.00  0.00    -0.062 A 
HETATM   23  C13 UNK     1      19.630  10.288  34.454  1.00  0.00     0.007 A 
HETATM   24  C19 UNK     1      17.998  12.181  34.483  1.00  0.00     0.048 C 
HETATM   25  C9  UNK     1      19.949   8.954  34.201  1.00  0.00     0.014 A 
ENDBRANCH  17  19
ENDBRANCH   2  16
TORSDOF 3
ENDMDL
MODEL 2
REMARK VINA RESULT:      -9.1      1.614      2.299
REMARK  3 active torsions:
REMARK  status: ('A' for Active; 'I' for Inactive)
REMARK       I    between atoms: C15_20  and  N1_4 
REMARK    1  A    between atoms: N1_4  and  N2_5 
REMARK    2  A    between atoms: C3_8  and  C6_11 
REMARK    3  A    between atoms: C15_20  and  C4_9 
ROOT
HETATM    1  O3  UNK     1      17.582   2.937  32.802  1.00  0.00    -0.266 OA
HETATM    2  N1  UNK     1      18.324   4.342  31.101  1.00  0.00    -0.242 N 
HETATM    3  C15 UNK     1      18.139   3.124  31.723  1.00  0.00     0.277 C 
HETATM    4  H16 UNK     1      18.790   4.436  30.207  1.00  0.00     0.192 HD
ENDROOT
BRANCH   3   5
HETATM    5  C4  UNK     1      18.692   2.004  30.953  1.00  0.00     0.110 A 
HETATM    6  C12 UNK     1      18.774   2.031  29.475  1.00  0.00     0.304 A 
HETATM    7  O1  UNK     1      19.318   0.908  28.857  1.00  0.00    -0.274 OA
HETATM    8  O2  UNK     1      18.385   2.993  28.822  1.00  0.00    -0.259 OA
HETATM    9  C2  UNK     1      19.769  -0.201  29.599  1.00  0.00     0.089 A 
HETATM   10  C1  UNK     1      19.682  -0.207  30.987  1.00  0.00    -0.001 A 
HETATM   11  C11 UNK     1      20.299  -1.279  28.892  1.00  0.00     0.038 A 
HETATM   12  C5  UNK     1      19.118   0.952  31.662  1.00  0.00     0.037 A 
HETATM   13  C8  UNK     1      20.140  -1.327  31.686  1.00  0.00     0.014 A 
HETATM   14  C16 UNK     1      20.674  -2.415  30.991  1.00  0.00     0.001 A 
HETATM   15  C17 UNK     1      20.753  -2.392  29.597  1.00  0.00     0.003 A 
ENDBRANCH   3   5
BRANCH   2  16
HETATM   16  N2  UNK     1      17.859   5.455  31.709  1.00  0.00    -0.176 NA
HETATM   17  C6  UNK     1      18.725   6.330  32.132  1.00  0.00     0.061 C 
HETATM   18  C18 UNK     1      20.228   6.173  32.019  1.00  0.00     0.073 C 
BRANCH  17  19
HETATM   19  C3  UNK     1      18.205   7.571  32.768  1.00  0.00    -0.010 A 
HETATM   20  C10 UNK     1      16.899   7.939  32.532  1.00  0.00     0.014 A 
HETATM   21  C14 UNK     1      16.412   9.104  33.126  1.00  0.00     0.007 A 
HETATM   22  C7  UNK     1      17.244   9.871  33.942  1.00  0.00    -0.062 A 
HETATM   23  C13 UNK     1      18.562   9.473  34.163  1.00  0.00     0.007 A 
HETATM   24  C19 UNK     1      16.724  11.115  34.579  1.00  0.00     0.048 C 
HETATM   25  C9  UNK     1      19.049   8.309  33.569  1.00  0.00     0.014 A 
ENDBRANCH  17  19
ENDBRANCH   2  16
TORSDOF 3
ENDMDL
MODEL 3
REMARK VINA RESULT:      -9.1      2.581      9.112
REMARK  3 active torsions:
REMARK  status: ('A' for Active; 'I' for Inactive)
REMARK       I    between atoms: C15_20  and  N1_4 
REMARK    1  A    between atoms: N1_4  and  N2_5 
REMARK    2  A    between atoms: C3_8  and  C6_11 
REMARK    3  A    between atoms: C15_20  and  C4_9 
ROOT
HETATM    1  O3  UNK     1      18.767   4.630  33.521  1.00  0.00    -0.266 OA
HETATM    2  N1  UNK     1      17.570   3.973  31.635  1.00  0.00    -0.242 N 
HETATM    3  C15 UNK     1      17.951   4.852  32.628  1.00  0.00     0.277 C 
HETATM    4  H16 UNK     1      16.893   4.212  30.921  1.00  0.00     0.192 HD
ENDROOT
BRANCH   3   5
HETATM    5  C4  UNK     1      17.268   6.147  32.533  1.00  0.00     0.110 A 
HETATM    6  C12 UNK     1      17.376   7.005  31.332  1.00  0.00     0.304 A 
HETATM    7  O1  UNK     1      16.681   8.212  31.360  1.00  0.00    -0.274 OA
HETATM    8  O2  UNK     1      18.041   6.674  30.356  1.00  0.00    -0.259 OA
HETATM    9  C2  UNK     1      15.914   8.600  32.475  1.00  0.00     0.089 A 
HETATM   10  C1  UNK     1      15.826   7.779  33.595  1.00  0.00    -0.001 A 
HETATM   11  C11 UNK     1      15.253   9.826  32.410  1.00  0.00     0.038 A 
HETATM   12  C5  UNK     1      16.540   6.512  33.595  1.00  0.00     0.037 A 
HETATM   13  C8  UNK     1      15.055   8.200  34.681  1.00  0.00     0.014 A 
HETATM   14  C16 UNK     1      14.386   9.427  34.630  1.00  0.00     0.001 A 
HETATM   15  C17 UNK     1      14.486  10.238  33.498  1.00  0.00     0.003 A 
ENDBRANCH   3   5
BRANCH   2  16
HETATM   16  N2  UNK     1      18.129   2.743  31.612  1.00  0.00    -0.176 NA
HETATM   17  C6  UNK     1      18.475   2.248  30.459  1.00  0.00     0.061 C 
HETATM   18  C18 UNK     1      18.266   2.944  29.129  1.00  0.00     0.073 C 
BRANCH  17  19
HETATM   19  C3  UNK     1      19.123   0.909  30.444  1.00  0.00    -0.010 A 
HETATM   20  C10 UNK     1      19.708   0.469  29.277  1.00  0.00     0.014 A 
HETATM   21  C14 UNK     1      20.315  -0.787  29.261  1.00  0.00     0.007 A 
HETATM   22  C7  UNK     1      20.321  -1.573  30.414  1.00  0.00    -0.062 A 
HETATM   23  C13 UNK     1      19.721  -1.101  31.582  1.00  0.00     0.007 A 
HETATM   24  C19 UNK     1      20.970  -2.915  30.400  1.00  0.00     0.048 C 
HETATM   25  C9  UNK     1      19.115   0.155  31.598  1.00  0.00     0.014 A 
ENDBRANCH  17  19
ENDBRANCH   2  16
TORSDOF 3
ENDMDL
MODEL 4
REMARK VINA RESULT:      -8.8      5.804     10.631
REMARK  3 active torsions:
REMARK  status: ('A' for Active; 'I' for Inactive)
REMARK       I    between atoms: C15_20  and  N1_4 
REMARK    1  A    between atoms: N1_4  and  N2_5 
REMARK    2  A    between atoms: C3_8  and  C6_11 
REMARK    3  A    between atoms: C15_20  and  C4_9 
ROOT
HETATM    1  O3  UNK     1      21.290  -3.336  32.963  1.00  0.00    -0.266 OA
HETATM    2  N1  UNK     1      19.809  -2.921  34.710  1.00  0.00    -0.242 N 
HETATM    3  C15 UNK     1      20.404  -2.668  33.491  1.00  0.00     0.277 C 
HETATM    4  H16 UNK     1      19.079  -2.336  35.097  1.00  0.00     0.192 HD
ENDROOT
BRANCH   3   5
HETATM    5  C4  UNK     1      19.867  -1.469  32.836  1.00  0.00     0.110 A 
HETATM    6  C12 UNK     1      19.160  -0.411  33.591  1.00  0.00     0.304 A 
HETATM    7  O1  UNK     1      18.697   0.678  32.858  1.00  0.00    -0.274 OA
HETATM    8  O2  UNK     1      18.990  -0.483  34.803  1.00  0.00    -0.259 OA
HETATM    9  C2  UNK     1      18.889   0.771  31.466  1.00  0.00     0.089 A 
HETATM   10  C1  UNK     1      19.556  -0.235  30.774  1.00  0.00    -0.001 A 
HETATM   11  C11 UNK     1      18.389   1.900  30.818  1.00  0.00     0.038 A 
HETATM   12  C5  UNK     1      20.052  -1.386  31.513  1.00  0.00     0.037 A 
HETATM   13  C8  UNK     1      19.725  -0.106  29.394  1.00  0.00     0.014 A 
HETATM   14  C16 UNK     1      19.230   1.021  28.730  1.00  0.00     0.001 A 
HETATM   15  C17 UNK     1      18.563   2.021  29.441  1.00  0.00     0.003 A 
ENDBRANCH   3   5
BRANCH   2  16
HETATM   16  N2  UNK     1      20.216  -3.999  35.416  1.00  0.00    -0.176 NA
HETATM   17  C6  UNK     1      20.107  -3.961  36.712  1.00  0.00     0.061 C 
HETATM   18  C18 UNK     1      19.584  -2.772  37.494  1.00  0.00     0.073 C 
BRANCH  17  19
HETATM   19  C3  UNK     1      20.522  -5.165  37.480  1.00  0.00    -0.010 A 
HETATM   20  C10 UNK     1      19.624  -6.199  37.627  1.00  0.00     0.014 A 
HETATM   21  C14 UNK     1      20.011  -7.328  38.349  1.00  0.00     0.007 A 
HETATM   22  C7  UNK     1      21.288  -7.395  38.907  1.00  0.00    -0.062 A 
HETATM   23  C13 UNK     1      22.178  -6.333  38.741  1.00  0.00     0.007 A 
HETATM   24  C19 UNK     1      21.705  -8.601  39.678  1.00  0.00     0.048 C 
HETATM   25  C9  UNK     1      21.790  -5.204  38.019  1.00  0.00     0.014 A 
ENDBRANCH  17  19
ENDBRANCH   2  16
TORSDOF 3
ENDMDL
MODEL 5
REMARK VINA RESULT:      -8.8      1.830      9.002
REMARK  3 active torsions:
REMARK  status: ('A' for Active; 'I' for Inactive)
REMARK       I    between atoms: C15_20  and  N1_4 
REMARK    1  A    between atoms: N1_4  and  N2_5 
REMARK    2  A    between atoms: C3_8  and  C6_11 
REMARK    3  A    between atoms: C15_20  and  C4_9 
ROOT
HETATM    1  O3  UNK     1      18.988   5.053  33.903  1.00  0.00    -0.266 OA
HETATM    2  N1  UNK     1      17.482   4.788  32.148  1.00  0.00    -0.242 N 
HETATM    3  C15 UNK     1      18.099   5.480  33.169  1.00  0.00     0.277 C 
HETATM    4  H16 UNK     1      16.754   5.192  31.572  1.00  0.00     0.192 HD
ENDROOT
BRANCH   3   5
HETATM    5  C4  UNK     1      17.584   6.846  33.321  1.00  0.00     0.110 A 
HETATM    6  C12 UNK     1      16.152   7.170  33.139  1.00  0.00     0.304 A 
HETATM    7  O1  UNK     1      15.784   8.502  33.310  1.00  0.00    -0.274 OA
HETATM    8  O2  UNK     1      15.324   6.311  32.853  1.00  0.00    -0.259 OA
HETATM    9  C2  UNK     1      16.727   9.495  33.640  1.00  0.00     0.089 A 
HETATM   10  C1  UNK     1      18.069   9.170  33.806  1.00  0.00    -0.001 A 
HETATM   11  C11 UNK     1      16.264  10.802  33.791  1.00  0.00     0.038 A 
HETATM   12  C5  UNK     1      18.484   7.787  33.633  1.00  0.00     0.037 A 
HETATM   13  C8  UNK     1      18.973  10.184  34.132  1.00  0.00     0.014 A 
HETATM   14  C16 UNK     1      18.524  11.498  34.287  1.00  0.00     0.001 A 
HETATM   15  C17 UNK     1      17.172  11.807  34.116  1.00  0.00     0.003 A 
ENDBRANCH   3   5
BRANCH   2  16
HETATM   16  N2  UNK     1      17.868   3.515  31.905  1.00  0.00    -0.176 NA
HETATM   17  C6  UNK     1      18.519   3.272  30.805  1.00  0.00     0.061 C 
HETATM   18  C18 UNK     1      18.849   4.313  29.755  1.00  0.00     0.073 C 
BRANCH  17  19
HETATM   19  C3  UNK     1      18.973   1.876  30.561  1.00  0.00    -0.010 A 
HETATM   20  C10 UNK     1      19.105   1.025  31.637  1.00  0.00     0.014 A 
HETATM   21  C14 UNK     1      19.533  -0.283  31.409  1.00  0.00     0.007 A 
HETATM   22  C7  UNK     1      19.819  -0.708  30.111  1.00  0.00    -0.062 A 
HETATM   23  C13 UNK     1      19.676   0.176  29.041  1.00  0.00     0.007 A 
HETATM   24  C19 UNK     1      20.275  -2.106  29.866  1.00  0.00     0.048 C 
HETATM   25  C9  UNK     1      19.248   1.484  29.269  1.00  0.00     0.014 A 
ENDBRANCH  17  19
ENDBRANCH   2  16
TORSDOF 3
ENDMDL
MODEL 6
REMARK VINA RESULT:      -8.7      7.004      9.484
REMARK  3 active torsions:
REMARK  status: ('A' for Active; 'I' for Inactive)
REMARK       I    between atoms: C15_20  and  N1_4 
REMARK    1  A    between atoms: N1_4  and  N2_5 
REMARK    2  A    between atoms: C3_8  and  C6_11 
REMARK    3  A    between atoms: C15_20  and  C4_9 
ROOT
HETATM    1  O3  UNK     1      20.388  -4.097  35.027  1.00  0.00    -0.266 OA
HETATM    2  N1  UNK     1      18.865  -3.171  36.524  1.00  0.00    -0.242 N 
HETATM    3  C15 UNK     1      19.698  -4.160  36.042  1.00  0.00     0.277 C 
HETATM    4  H16 UNK     1      18.320  -3.277  37.371  1.00  0.00     0.192 HD
ENDROOT
BRANCH   3   5
HETATM    5  C4  UNK     1      19.696  -5.363  36.883  1.00  0.00     0.110 A 
HETATM    6  C12 UNK     1      18.494  -6.211  37.038  1.00  0.00     0.304 A 
HETATM    7  O1  UNK     1      18.616  -7.326  37.862  1.00  0.00    -0.274 OA
HETATM    8  O2  UNK     1      17.438  -5.950  36.470  1.00  0.00    -0.259 OA
HETATM    9  C2  UNK     1      19.824  -7.635  38.518  1.00  0.00     0.089 A 
HETATM   10  C1  UNK     1      20.943  -6.824  38.359  1.00  0.00    -0.001 A 
HETATM   11  C11 UNK     1      19.850  -8.773  39.323  1.00  0.00     0.038 A 
HETATM   12  C5  UNK     1      20.846  -5.651  37.504  1.00  0.00     0.037 A 
HETATM   13  C8  UNK     1      22.122  -7.164  39.027  1.00  0.00     0.014 A 
HETATM   14  C16 UNK     1      22.164  -8.302  39.837  1.00  0.00     0.001 A 
HETATM   15  C17 UNK     1      21.030  -9.105  39.985  1.00  0.00     0.003 A 
ENDBRANCH   3   5
BRANCH   2  16
HETATM   16  N2  UNK     1      18.777  -2.009  35.838  1.00  0.00    -0.176 NA
HETATM   17  C6  UNK     1      18.425  -0.939  36.488  1.00  0.00     0.061 C 
HETATM   18  C18 UNK     1      18.071  -0.907  37.962  1.00  0.00     0.073 C 
BRANCH  17  19
HETATM   19  C3  UNK     1      18.366   0.344  35.736  1.00  0.00    -0.010 A 
HETATM   20  C10 UNK     1      18.076   0.309  34.389  1.00  0.00     0.014 A 
HETATM   21  C14 UNK     1      18.023   1.510  33.683  1.00  0.00     0.007 A 
HETATM   22  C7  UNK     1      18.261   2.717  34.340  1.00  0.00    -0.062 A 
HETATM   23  C13 UNK     1      18.552   2.722  35.705  1.00  0.00     0.007 A 
HETATM   24  C19 UNK     1      18.203   4.003  33.587  1.00  0.00     0.048 C 
HETATM   25  C9  UNK     1      18.605   1.521  36.411  1.00  0.00     0.014 A 
ENDBRANCH  17  19
ENDBRANCH   2  16
TORSDOF 3
ENDMDL
MODEL 7
REMARK VINA RESULT:      -8.5      6.645     12.533
REMARK  3 active torsions:
REMARK  status: ('A' for Active; 'I' for Inactive)
REMARK       I    between atoms: C15_20  and  N1_4 
REMARK    1  A    between atoms: N1_4  and  N2_5 
REMARK    2  A    between atoms: C3_8  and  C6_11 
REMARK    3  A    between atoms: C15_20  and  C4_9 
ROOT
HETATM    1  O3  UNK     1      20.894  -3.247  33.655  1.00  0.00    -0.266 OA
HETATM    2  N1  UNK     1      19.777  -4.133  35.495  1.00  0.00    -0.242 N 
HETATM    3  C15 UNK     1      20.111  -3.141  34.597  1.00  0.00     0.277 C 
HETATM    4  H16 UNK     1      19.121  -3.990  36.253  1.00  0.00     0.192 HD
ENDROOT
BRANCH   3   5
HETATM    5  C4  UNK     1      19.418  -1.875  34.866  1.00  0.00     0.110 A 
HETATM    6  C12 UNK     1      19.113  -0.903  33.793  1.00  0.00     0.304 A 
HETATM    7  O1  UNK     1      18.452   0.262  34.173  1.00  0.00    -0.274 OA
HETATM    8  O2  UNK     1      19.423  -1.109  32.624  1.00  0.00    -0.259 OA
HETATM    9  C2  UNK     1      18.090   0.507  35.511  1.00  0.00     0.089 A 
HETATM   10  C1  UNK     1      18.387  -0.420  36.506  1.00  0.00    -0.001 A 
HETATM   11  C11 UNK     1      17.430   1.702  35.795  1.00  0.00     0.038 A 
HETATM   12  C5  UNK     1      19.077  -1.647  36.140  1.00  0.00     0.037 A 
HETATM   13  C8  UNK     1      18.012  -0.140  37.822  1.00  0.00     0.014 A 
HETATM   14  C16 UNK     1      17.349   1.054  38.122  1.00  0.00     0.001 A 
HETATM   15  C17 UNK     1      17.059   1.973  37.111  1.00  0.00     0.003 A 
ENDBRANCH   3   5
BRANCH   2  16
HETATM   16  N2  UNK     1      20.348  -5.350  35.355  1.00  0.00    -0.176 NA
HETATM   17  C6  UNK     1      20.561  -6.055  36.428  1.00  0.00     0.061 C 
HETATM   18  C18 UNK     1      20.242  -5.592  37.836  1.00  0.00     0.073 C 
BRANCH  17  19
HETATM   19  C3  UNK     1      21.156  -7.409  36.264  1.00  0.00    -0.010 A 
HETATM   20  C10 UNK     1      21.960  -7.905  37.266  1.00  0.00     0.014 A 
HETATM   21  C14 UNK     1      22.520  -9.173  37.112  1.00  0.00     0.007 A 
HETATM   22  C7  UNK     1      22.262  -9.914  35.959  1.00  0.00    -0.062 A 
HETATM   23  C13 UNK     1      21.443  -9.386  34.960  1.00  0.00     0.007 A 
HETATM   24  C19 UNK     1      22.858 -11.271  35.793  1.00  0.00     0.048 C 
HETATM   25  C9  UNK     1      20.883  -8.118  35.114  1.00  0.00     0.014 A 
ENDBRANCH  17  19
ENDBRANCH   2  16
TORSDOF 3
ENDMDL
MODEL 8
REMARK VINA RESULT:      -8.5     23.734     25.212
REMARK  3 active torsions:
REMARK  status: ('A' for Active; 'I' for Inactive)
REMARK       I    between atoms: C15_20  and  N1_4 
REMARK    1  A    between atoms: N1_4  and  N2_5 
REMARK    2  A    between atoms: C3_8  and  C6_11 
REMARK    3  A    between atoms: C15_20  and  C4_9 
ROOT
HETATM    1  O3  UNK     1      15.553   7.067   9.419  1.00  0.00    -0.266 OA
HETATM    2  N1  UNK     1      15.047   9.302   9.013  1.00  0.00    -0.242 N 
HETATM    3  C15 UNK     1      14.757   7.959   9.138  1.00  0.00     0.277 C 
HETATM    4  H16 UNK     1      14.347   9.996   8.782  1.00  0.00     0.192 HD
ENDROOT
BRANCH   3   5
HETATM    5  C4  UNK     1      13.340   7.660   8.896  1.00  0.00     0.110 A 
HETATM    6  C12 UNK     1      12.309   7.843   9.941  1.00  0.00     0.304 A 
HETATM    7  O1  UNK     1      10.999   7.526   9.591  1.00  0.00    -0.274 OA
HETATM    8  O2  UNK     1      12.588   8.254  11.063  1.00  0.00    -0.259 OA
HETATM    9  C2  UNK     1      10.669   7.054   8.306  1.00  0.00     0.089 A 
HETATM   10  C1  UNK     1      11.653   6.889   7.337  1.00  0.00    -0.001 A 
HETATM   11  C11 UNK     1       9.330   6.763   8.048  1.00  0.00     0.038 A 
HETATM   12  C5  UNK     1      13.031   7.211   7.673  1.00  0.00     0.037 A 
HETATM   13  C8  UNK     1      11.285   6.417   6.075  1.00  0.00     0.014 A 
HETATM   14  C16 UNK     1       9.946   6.122   5.802  1.00  0.00     0.001 A 
HETATM   15  C17 UNK     1       8.971   6.294   6.786  1.00  0.00     0.003 A 
ENDBRANCH   3   5
BRANCH   2  16
HETATM   16  N2  UNK     1      16.321   9.709   9.213  1.00  0.00    -0.176 NA
HETATM   17  C6  UNK     1      16.733  10.766   8.577  1.00  0.00     0.061 C 
HETATM   18  C18 UNK     1      15.894  11.561   7.597  1.00  0.00     0.073 C 
BRANCH  17  19
HETATM   19  C3  UNK     1      18.125  11.230   8.830  1.00  0.00    -0.010 A 
HETATM   20  C10 UNK     1      18.948  11.474   7.752  1.00  0.00     0.014 A 
HETATM   21  C14 UNK     1      20.253  11.907   7.988  1.00  0.00     0.007 A 
HETATM   22  C7  UNK     1      20.702  12.085   9.297  1.00  0.00    -0.062 A 
HETATM   23  C13 UNK     1      19.847  11.831  10.369  1.00  0.00     0.007 A 
HETATM   24  C19 UNK     1      22.096  12.549   9.551  1.00  0.00     0.048 C 
HETATM   25  C9  UNK     1      18.542  11.398  10.133  1.00  0.00     0.014 A 
ENDBRANCH  17  19
ENDBRANCH   2  16
TORSDOF 3
ENDMDL
MODEL 9
REMARK VINA RESULT:      -8.5      7.102      9.729
REMARK  3 active torsions:
REMARK  status: ('A' for Active; 'I' for Inactive)
REMARK       I    between atoms: C15_20  and  N1_4 
REMARK    1  A    between atoms: N1_4  and  N2_5 
REMARK    2  A    between atoms: C3_8  and  C6_11 
REMARK    3  A    between atoms: C15_20  and  C4_9 
ROOT
HETATM    1  O3  UNK     1      20.255  -4.566  34.760  1.00  0.00    -0.266 OA
HETATM    2  N1  UNK     1      20.007  -3.232  36.651  1.00  0.00    -0.242 N 
HETATM    3  C15 UNK     1      20.226  -4.417  35.980  1.00  0.00     0.277 C 
HETATM    4  H16 UNK     1      19.996  -3.168  37.662  1.00  0.00     0.192 HD
ENDROOT
BRANCH   3   5
HETATM    5  C4  UNK     1      20.433  -5.553  36.886  1.00  0.00     0.110 A 
HETATM    6  C12 UNK     1      21.551  -5.593  37.853  1.00  0.00     0.304 A 
HETATM    7  O1  UNK     1      21.643  -6.724  38.660  1.00  0.00    -0.274 OA
HETATM    8  O2  UNK     1      22.361  -4.676  37.946  1.00  0.00    -0.259 OA
HETATM    9  C2  UNK     1      20.717  -7.781  38.562  1.00  0.00     0.089 A 
HETATM   10  C1  UNK     1      19.672  -7.725  37.645  1.00  0.00    -0.001 A 
HETATM   11  C11 UNK     1      20.890  -8.873  39.412  1.00  0.00     0.038 A 
HETATM   12  C5  UNK     1      19.551  -6.556  36.788  1.00  0.00     0.037 A 
HETATM   13  C8  UNK     1      18.776  -8.794  37.578  1.00  0.00     0.014 A 
HETATM   14  C16 UNK     1      18.936  -9.895  38.424  1.00  0.00     0.001 A 
HETATM   15  C17 UNK     1      19.991  -9.935  39.339  1.00  0.00     0.003 A 
ENDBRANCH   3   5
BRANCH   2  16
HETATM   16  N2  UNK     1      19.803  -2.108  35.929  1.00  0.00    -0.176 NA
HETATM   17  C6  UNK     1      18.862  -1.296  36.312  1.00  0.00     0.061 C 
HETATM   18  C18 UNK     1      17.950  -1.537  37.500  1.00  0.00     0.073 C 
BRANCH  17  19
HETATM   19  C3  UNK     1      18.666  -0.042  35.534  1.00  0.00    -0.010 A 
HETATM   20  C10 UNK     1      18.453  -0.132  34.176  1.00  0.00     0.014 A 
HETATM   21  C14 UNK     1      18.272   1.043  33.446  1.00  0.00     0.007 A 
HETATM   22  C7  UNK     1      18.308   2.278  34.093  1.00  0.00    -0.062 A 
HETATM   23  C13 UNK     1      18.525   2.339  35.469  1.00  0.00     0.007 A 
HETATM   24  C19 UNK     1      18.113   3.535  33.314  1.00  0.00     0.048 C 
HETATM   25  C9  UNK     1      18.706   1.164  36.200  1.00  0.00     0.014 A 
ENDBRANCH  17  19
ENDBRANCH   2  16
TORSDOF 3
ENDMDL
MODEL 10
REMARK VINA RESULT:      -8.4     14.743     16.579
REMARK  3 active torsions:
REMARK  status: ('A' for Active; 'I' for Inactive)
REMARK       I    between atoms: C15_20  and  N1_4 
REMARK    1  A    between atoms: N1_4  and  N2_5 
REMARK    2  A    between atoms: C3_8  and  C6_11 
REMARK    3  A    between atoms: C15_20  and  C4_9 
ROOT
HETATM    1  O3  UNK     1      26.896  -4.525  38.818  1.00  0.00    -0.266 OA
HETATM    2  N1  UNK     1      26.969  -6.844  38.628  1.00  0.00    -0.242 N 
HETATM    3  C15 UNK     1      27.515  -5.578  38.683  1.00  0.00     0.277 C 
HETATM    4  H16 UNK     1      27.530  -7.679  38.518  1.00  0.00     0.192 HD
ENDROOT
BRANCH   3   5
HETATM    5  C4  UNK     1      28.978  -5.585  38.558  1.00  0.00     0.110 A 
HETATM    6  C12 UNK     1      29.824  -4.547  39.187  1.00  0.00     0.304 A 
HETATM    7  O1  UNK     1      31.199  -4.661  38.999  1.00  0.00    -0.274 OA
HETATM    8  O2  UNK     1      29.344  -3.629  39.844  1.00  0.00    -0.259 OA
HETATM    9  C2  UNK     1      31.760  -5.711  38.247  1.00  0.00     0.089 A 
HETATM   10  C1  UNK     1      30.946  -6.677  37.664  1.00  0.00    -0.001 A 
HETATM   11  C11 UNK     1      33.147  -5.743  38.114  1.00  0.00     0.038 A 
HETATM   12  C5  UNK     1      29.506  -6.585  37.843  1.00  0.00     0.037 A 
HETATM   13  C8  UNK     1      31.541  -7.703  36.925  1.00  0.00     0.014 A 
HETATM   14  C16 UNK     1      32.931  -7.748  36.783  1.00  0.00     0.001 A 
HETATM   15  C17 UNK     1      33.732  -6.770  37.376  1.00  0.00     0.003 A 
ENDBRANCH   3   5
BRANCH   2  16
HETATM   16  N2  UNK     1      25.628  -6.973  38.732  1.00  0.00    -0.176 NA
HETATM   17  C6  UNK     1      25.070  -8.021  38.199  1.00  0.00     0.061 C 
HETATM   18  C18 UNK     1      25.818  -9.098  37.438  1.00  0.00     0.073 C 
BRANCH  17  19
HETATM   19  C3  UNK     1      23.598  -8.177  38.349  1.00  0.00    -0.010 A 
HETATM   20  C10 UNK     1      22.877  -8.703  37.299  1.00  0.00     0.014 A 
HETATM   21  C14 UNK     1      21.497  -8.847  37.438  1.00  0.00     0.007 A 
HETATM   22  C7  UNK     1      20.871  -8.462  38.623  1.00  0.00    -0.062 A 
HETATM   23  C13 UNK     1      21.626  -7.933  39.670  1.00  0.00     0.007 A 
HETATM   24  C19 UNK     1      19.396  -8.617  38.774  1.00  0.00     0.048 C 
HETATM   25  C9  UNK     1      23.007  -7.788  39.532  1.00  0.00     0.014 A 
ENDBRANCH  17  19
ENDBRANCH   2  16
TORSDOF 3
ENDMDL
