MODEL 1
REMARK VINA RESULT:      -7.7      0.000      0.000
REMARK  5 active torsions:
REMARK  status: ('A' for Active; 'I' for Inactive)
REMARK    1  A    between atoms: C5_11  and  O2_2 
REMARK    2  A    between atoms: C7_13  and  O3_3 
REMARK    3  A    between atoms: C11_17  and  O4_4 
REMARK    4  A    between atoms: C12_18  and  O5_5 
REMARK    5  A    between atoms: C1_7  and  C3_9 
ROOT
HETATM    1  O1  UNK     1      18.404   4.546  34.181  1.00  0.00    -0.306 OA
HETATM    2  O6  UNK     1      18.411   3.056  30.388  1.00  0.00    -0.284 OA
HETATM    3  C1  UNK     1      18.417   5.382  33.075  1.00  0.00     0.126 A 
HETATM    4  C2  UNK     1      18.378   2.619  32.706  1.00  0.00     0.053 A 
HETATM    5  C4  UNK     1      18.380   3.191  33.976  1.00  0.00     0.090 A 
HETATM    6  C5  UNK     1      18.428   4.958  31.798  1.00  0.00     0.154 A 
HETATM    7  C6  UNK     1      18.406   3.500  31.529  1.00  0.00     0.221 A 
HETATM    8  C8  UNK     1      18.354   1.230  32.558  1.00  0.00     0.055 A 
HETATM    9  C9  UNK     1      18.357   2.376  35.109  1.00  0.00     0.041 A 
HETATM   10  C12 UNK     1      18.331   0.417  33.692  1.00  0.00     0.069 A 
HETATM   11  C13 UNK     1      18.333   0.988  34.965  1.00  0.00     0.039 A 
ENDROOT
BRANCH   3  12
HETATM   12  C3  UNK     1      18.444   6.812  33.436  1.00  0.00     0.037 A 
HETATM   13  C10 UNK     1      19.672   7.418  33.706  1.00  0.00     0.017 A 
HETATM   14  C14 UNK     1      19.725   8.769  34.049  1.00  0.00     0.004 A 
HETATM   15  C15 UNK     1      18.549   9.516  34.125  1.00  0.00     0.040 A 
HETATM   16  C11 UNK     1      17.321   8.912  33.855  1.00  0.00     0.102 A 
HETATM   17  C7  UNK     1      17.268   7.561  33.512  1.00  0.00     0.114 A 
BRANCH  16  18
HETATM   18  O4  UNK     1      16.180   9.653  33.933  1.00  0.00    -0.353 OA
HETATM   19  C18 UNK     1      16.326  11.034  34.256  1.00  0.00     0.210 C 
ENDBRANCH  16  18
BRANCH  17  20
HETATM   20  O3  UNK     1      16.059   6.983  33.252  1.00  0.00    -0.352 OA
HETATM   21  C17 UNK     1      15.480   7.243  31.976  1.00  0.00     0.210 C 
ENDBRANCH  17  20
ENDBRANCH   3  12
BRANCH   6  22
HETATM   22  O2  UNK     1      18.474   5.816  30.721  1.00  0.00    -0.350 OA
HETATM   23  C16 UNK     1      19.796   5.939  30.232  1.00  0.00     0.210 C 
ENDBRANCH   6  22
BRANCH  10  24
HETATM   24  O5  UNK     1      18.308  -0.937  33.556  1.00  0.00    -0.356 OA
HETATM   25  C19 UNK     1      19.059  -1.494  32.478  1.00  0.00     0.210 C 
ENDBRANCH  10  24
TORSDOF 5
ENDMDL
MODEL 2
REMARK VINA RESULT:      -7.7      1.749      7.133
REMARK  5 active torsions:
REMARK  status: ('A' for Active; 'I' for Inactive)
REMARK    1  A    between atoms: C5_11  and  O2_2 
REMARK    2  A    between atoms: C7_13  and  O3_3 
REMARK    3  A    between atoms: C11_17  and  O4_4 
REMARK    4  A    between atoms: C12_18  and  O5_5 
REMARK    5  A    between atoms: C1_7  and  C3_9 
ROOT
HETATM    1  O1  UNK     1      16.500   5.929  32.414  1.00  0.00    -0.306 OA
HETATM    2  O6  UNK     1      18.874   7.850  35.112  1.00  0.00    -0.284 OA
HETATM    3  C1  UNK     1      17.804   5.523  32.648  1.00  0.00     0.126 A 
HETATM    4  C2  UNK     1      16.768   7.691  34.062  1.00  0.00     0.053 A 
HETATM    5  C4  UNK     1      16.009   6.994  33.125  1.00  0.00     0.090 A 
HETATM    6  C5  UNK     1      18.644   6.116  33.517  1.00  0.00     0.154 A 
HETATM    7  C6  UNK     1      18.157   7.274  34.305  1.00  0.00     0.221 A 
HETATM    8  C8  UNK     1      16.215   8.770  34.756  1.00  0.00     0.055 A 
HETATM    9  C9  UNK     1      14.690   7.373  32.874  1.00  0.00     0.041 A 
HETATM   10  C12 UNK     1      14.895   9.147  34.504  1.00  0.00     0.069 A 
HETATM   11  C13 UNK     1      14.134   8.451  33.565  1.00  0.00     0.039 A 
ENDROOT
BRANCH   3  12
HETATM   12  C3  UNK     1      18.204   4.371  31.819  1.00  0.00     0.037 A 
HETATM   13  C10 UNK     1      18.664   4.599  30.521  1.00  0.00     0.017 A 
HETATM   14  C14 UNK     1      19.049   3.527  29.717  1.00  0.00     0.004 A 
HETATM   15  C15 UNK     1      18.973   2.224  30.209  1.00  0.00     0.040 A 
HETATM   16  C11 UNK     1      18.514   1.994  31.506  1.00  0.00     0.102 A 
HETATM   17  C7  UNK     1      18.129   3.066  32.310  1.00  0.00     0.114 A 
BRANCH  16  18
HETATM   18  O4  UNK     1      18.445   0.715  31.974  1.00  0.00    -0.353 OA
HETATM   19  C18 UNK     1      19.437  -0.198  31.511  1.00  0.00     0.210 C 
ENDBRANCH  16  18
BRANCH  17  20
HETATM   20  O3  UNK     1      17.681   2.826  33.577  1.00  0.00    -0.352 OA
HETATM   21  C17 UNK     1      18.668   2.579  34.575  1.00  0.00     0.210 C 
ENDBRANCH  17  20
ENDBRANCH   3  12
BRANCH   6  22
HETATM   22  O2  UNK     1      19.946   5.707  33.702  1.00  0.00    -0.350 OA
HETATM   23  C16 UNK     1      20.830   6.464  32.896  1.00  0.00     0.210 C 
ENDBRANCH   6  22
BRANCH  10  24
HETATM   24  O5  UNK     1      14.349  10.198  35.176  1.00  0.00    -0.356 OA
HETATM   25  C19 UNK     1      13.660  11.177  34.399  1.00  0.00     0.210 C 
ENDBRANCH  10  24
TORSDOF 5
ENDMDL
MODEL 3
REMARK VINA RESULT:      -7.6     23.042     25.527
REMARK  5 active torsions:
REMARK  status: ('A' for Active; 'I' for Inactive)
REMARK    1  A    between atoms: C5_11  and  O2_2 
REMARK    2  A    between atoms: C7_13  and  O3_3 
REMARK    3  A    between atoms: C11_17  and  O4_4 
REMARK    4  A    between atoms: C12_18  and  O5_5 
REMARK    5  A    between atoms: C1_7  and  C3_9 
ROOT
HETATM    1  O1  UNK     1      13.773   8.939   8.164  1.00  0.00    -0.306 OA
HETATM    2  O6  UNK     1      15.532   7.206  11.405  1.00  0.00    -0.284 OA
HETATM    3  C1  UNK     1      13.285   7.762   8.709  1.00  0.00     0.126 A 
HETATM    4  C2  UNK     1      15.510   8.986   9.859  1.00  0.00     0.053 A 
HETATM    5  C4  UNK     1      14.865   9.527   8.748  1.00  0.00     0.090 A 
HETATM    6  C5  UNK     1      13.820   7.133   9.771  1.00  0.00     0.154 A 
HETATM    7  C6  UNK     1      15.005   7.731  10.433  1.00  0.00     0.221 A 
HETATM    8  C8  UNK     1      16.620   9.629  10.412  1.00  0.00     0.055 A 
HETATM    9  C9  UNK     1      15.327  10.715   8.182  1.00  0.00     0.041 A 
HETATM   10  C12 UNK     1      17.080  10.819   9.844  1.00  0.00     0.069 A 
HETATM   11  C13 UNK     1      16.436  11.361   8.732  1.00  0.00     0.039 A 
ENDROOT
BRANCH   3  12
HETATM   12  C3  UNK     1      12.111   7.237   7.985  1.00  0.00     0.037 A 
HETATM   13  C10 UNK     1      12.303   6.606   6.755  1.00  0.00     0.017 A 
HETATM   14  C14 UNK     1      11.210   6.101   6.051  1.00  0.00     0.004 A 
HETATM   15  C15 UNK     1       9.923   6.227   6.575  1.00  0.00     0.040 A 
HETATM   16  C11 UNK     1       9.730   6.857   7.805  1.00  0.00     0.102 A 
HETATM   17  C7  UNK     1      10.823   7.362   8.509  1.00  0.00     0.114 A 
BRANCH  16  18
HETATM   18  O4  UNK     1       8.468   6.973   8.305  1.00  0.00    -0.353 OA
HETATM   19  C18 UNK     1       7.868   5.791   8.830  1.00  0.00     0.210 C 
ENDBRANCH  16  18
BRANCH  17  20
HETATM   20  O3  UNK     1      10.620   7.977   9.710  1.00  0.00    -0.352 OA
HETATM   21  C17 UNK     1      10.363   9.379   9.682  1.00  0.00     0.210 C 
ENDBRANCH  17  20
ENDBRANCH   3  12
BRANCH   6  22
HETATM   22  O2  UNK     1      13.329   5.946  10.269  1.00  0.00    -0.350 OA
HETATM   23  C16 UNK     1      14.019   4.843   9.710  1.00  0.00     0.210 C 
ENDBRANCH   6  22
BRANCH  10  24
HETATM   24  O5  UNK     1      18.162  11.451  10.377  1.00  0.00    -0.356 OA
HETATM   25  C19 UNK     1      19.060  12.079   9.464  1.00  0.00     0.210 C 
ENDBRANCH  10  24
TORSDOF 5
ENDMDL
MODEL 4
REMARK VINA RESULT:      -7.5      1.490      2.284
REMARK  5 active torsions:
REMARK  status: ('A' for Active; 'I' for Inactive)
REMARK    1  A    between atoms: C5_11  and  O2_2 
REMARK    2  A    between atoms: C7_13  and  O3_3 
REMARK    3  A    between atoms: C11_17  and  O4_4 
REMARK    4  A    between atoms: C12_18  and  O5_5 
REMARK    5  A    between atoms: C1_7  and  C3_9 
ROOT
HETATM    1  O1  UNK     1      17.972   3.621  33.273  1.00  0.00    -0.306 OA
HETATM    2  O6  UNK     1      19.067   2.561  29.494  1.00  0.00    -0.284 OA
HETATM    3  C1  UNK     1      18.035   4.553  32.250  1.00  0.00     0.126 A 
HETATM    4  C2  UNK     1      18.654   1.888  31.716  1.00  0.00     0.053 A 
HETATM    5  C4  UNK     1      18.276   2.314  32.987  1.00  0.00     0.090 A 
HETATM    6  C5  UNK     1      18.396   4.274  30.984  1.00  0.00     0.154 A 
HETATM    7  C6  UNK     1      18.736   2.875  30.630  1.00  0.00     0.221 A 
HETATM    8  C8  UNK     1      18.953   0.543  31.483  1.00  0.00     0.055 A 
HETATM    9  C9  UNK     1      18.194   1.398  34.036  1.00  0.00     0.041 A 
HETATM   10  C12 UNK     1      18.870  -0.372  32.534  1.00  0.00     0.069 A 
HETATM   11  C13 UNK     1      18.491   0.053  33.807  1.00  0.00     0.039 A 
ENDROOT
BRANCH   3  12
HETATM   12  C3  UNK     1      17.686   5.916  32.693  1.00  0.00     0.037 A 
HETATM   13  C10 UNK     1      16.451   6.451  32.324  1.00  0.00     0.017 A 
HETATM   14  C14 UNK     1      16.096   7.737  32.730  1.00  0.00     0.004 A 
HETATM   15  C15 UNK     1      16.977   8.492  33.504  1.00  0.00     0.040 A 
HETATM   16  C11 UNK     1      18.212   7.959  33.874  1.00  0.00     0.102 A 
HETATM   17  C7  UNK     1      18.567   6.673  33.468  1.00  0.00     0.114 A 
BRANCH  16  18
HETATM   18  O4  UNK     1      19.064   8.708  34.631  1.00  0.00    -0.353 OA
HETATM   19  C18 UNK     1      19.310  10.044  34.198  1.00  0.00     0.210 C 
ENDBRANCH  16  18
BRANCH  17  20
HETATM   20  O3  UNK     1      19.779   6.165  33.836  1.00  0.00    -0.352 OA
HETATM   21  C17 UNK     1      20.904   6.545  33.048  1.00  0.00     0.210 C 
ENDBRANCH  17  20
ENDBRANCH   3  12
BRANCH   6  22
HETATM   22  O2  UNK     1      18.480   5.232  29.997  1.00  0.00    -0.350 OA
HETATM   23  C16 UNK     1      19.778   5.793  29.950  1.00  0.00     0.210 C 
ENDBRANCH   6  22
BRANCH  10  24
HETATM   24  O5  UNK     1      19.160  -1.684  32.315  1.00  0.00    -0.356 OA
HETATM   25  C19 UNK     1      20.323  -1.971  31.539  1.00  0.00     0.210 C 
ENDBRANCH  10  24
TORSDOF 5
ENDMDL
MODEL 5
REMARK VINA RESULT:      -7.4      1.879      7.289
REMARK  5 active torsions:
REMARK  status: ('A' for Active; 'I' for Inactive)
REMARK    1  A    between atoms: C5_11  and  O2_2 
REMARK    2  A    between atoms: C7_13  and  O3_3 
REMARK    3  A    between atoms: C11_17  and  O4_4 
REMARK    4  A    between atoms: C12_18  and  O5_5 
REMARK    5  A    between atoms: C1_7  and  C3_9 
ROOT
HETATM    1  O1  UNK     1      16.937   6.737  32.680  1.00  0.00    -0.306 OA
HETATM    2  O6  UNK     1      19.902   8.791  34.575  1.00  0.00    -0.284 OA
HETATM    3  C1  UNK     1      18.165   6.153  32.947  1.00  0.00     0.126 A 
HETATM    4  C2  UNK     1      17.699   8.786  33.735  1.00  0.00     0.053 A 
HETATM    5  C4  UNK     1      16.727   8.031  33.081  1.00  0.00     0.090 A 
HETATM    6  C5  UNK     1      19.189   6.774  33.561  1.00  0.00     0.154 A 
HETATM    7  C6  UNK     1      19.008   8.176  34.009  1.00  0.00     0.221 A 
HETATM    8  C8  UNK     1      17.429  10.102  34.119  1.00  0.00     0.055 A 
HETATM    9  C9  UNK     1      15.478   8.588  32.806  1.00  0.00     0.041 A 
HETATM   10  C12 UNK     1      16.178  10.657  33.844  1.00  0.00     0.069 A 
HETATM   11  C13 UNK     1      15.205   9.902  33.189  1.00  0.00     0.039 A 
ENDROOT
BRANCH   3  12
HETATM   12  C3  UNK     1      18.257   4.763  32.464  1.00  0.00     0.037 A 
HETATM   13  C10 UNK     1      18.138   3.718  33.383  1.00  0.00     0.017 A 
HETATM   14  C14 UNK     1      18.221   2.395  32.951  1.00  0.00     0.004 A 
HETATM   15  C15 UNK     1      18.425   2.112  31.601  1.00  0.00     0.040 A 
HETATM   16  C11 UNK     1      18.543   3.155  30.681  1.00  0.00     0.102 A 
HETATM   17  C7  UNK     1      18.460   4.478  31.112  1.00  0.00     0.114 A 
BRANCH  16  18
HETATM   18  O4  UNK     1      18.742   2.865  29.364  1.00  0.00    -0.353 OA
HETATM   19  C18 UNK     1      17.940   1.829  28.801  1.00  0.00     0.210 C 
ENDBRANCH  16  18
BRANCH  17  20
HETATM   20  O3  UNK     1      18.579   5.488  30.202  1.00  0.00    -0.352 OA
HETATM   21  C17 UNK     1      19.901   5.909  29.873  1.00  0.00     0.210 C 
ENDBRANCH  17  20
ENDBRANCH   3  12
BRANCH   6  22
HETATM   22  O2  UNK     1      20.409   6.175  33.782  1.00  0.00    -0.350 OA
HETATM   23  C16 UNK     1      21.318   6.486  32.743  1.00  0.00     0.210 C 
ENDBRANCH   6  22
BRANCH  10  24
HETATM   24  O5  UNK     1      15.908  11.939  34.214  1.00  0.00    -0.356 OA
HETATM   25  C19 UNK     1      17.002  12.719  34.694  1.00  0.00     0.210 C 
ENDBRANCH  10  24
TORSDOF 5
ENDMDL
MODEL 6
REMARK VINA RESULT:      -7.3     24.394     26.196
REMARK  5 active torsions:
REMARK  status: ('A' for Active; 'I' for Inactive)
REMARK    1  A    between atoms: C5_11  and  O2_2 
REMARK    2  A    between atoms: C7_13  and  O3_3 
REMARK    3  A    between atoms: C11_17  and  O4_4 
REMARK    4  A    between atoms: C12_18  and  O5_5 
REMARK    5  A    between atoms: C1_7  and  C3_9 
ROOT
HETATM    1  O1  UNK     1       7.701   4.543   9.051  1.00  0.00    -0.306 OA
HETATM    2  O6  UNK     1       5.752   7.604  10.905  1.00  0.00    -0.284 OA
HETATM    3  C1  UNK     1       8.043   5.865   8.817  1.00  0.00     0.126 A 
HETATM    4  C2  UNK     1       5.987   5.276  10.606  1.00  0.00     0.053 A 
HETATM    5  C4  UNK     1       6.690   4.275   9.939  1.00  0.00     0.090 A 
HETATM    6  C5  UNK     1       7.437   6.923   9.388  1.00  0.00     0.154 A 
HETATM    7  C6  UNK     1       6.337   6.681  10.352  1.00  0.00     0.221 A 
HETATM    8  C8  UNK     1       4.966   4.944  11.500  1.00  0.00     0.055 A 
HETATM    9  C9  UNK     1       6.376   2.934  10.160  1.00  0.00     0.041 A 
HETATM   10  C12 UNK     1       4.653   3.602  11.720  1.00  0.00     0.069 A 
HETATM   11  C13 UNK     1       5.356   2.599  11.052  1.00  0.00     0.039 A 
ENDROOT
BRANCH   3  12
HETATM   12  C3  UNK     1       9.141   6.011   7.843  1.00  0.00     0.037 A 
HETATM   13  C10 UNK     1       8.829   6.212   6.498  1.00  0.00     0.017 A 
HETATM   14  C14 UNK     1       9.849   6.354   5.557  1.00  0.00     0.004 A 
HETATM   15  C15 UNK     1      11.183   6.292   5.960  1.00  0.00     0.040 A 
HETATM   16  C11 UNK     1      11.496   6.091   7.304  1.00  0.00     0.102 A 
HETATM   17  C7  UNK     1      10.477   5.950   8.245  1.00  0.00     0.114 A 
BRANCH  16  18
HETATM   18  O4  UNK     1      12.804   6.033   7.684  1.00  0.00    -0.353 OA
HETATM   19  C18 UNK     1      13.481   7.275   7.867  1.00  0.00     0.210 C 
ENDBRANCH  16  18
BRANCH  17  20
HETATM   20  O3  UNK     1      10.798   5.753   9.557  1.00  0.00    -0.352 OA
HETATM   21  C17 UNK     1      10.987   4.404   9.979  1.00  0.00     0.210 C 
ENDBRANCH  17  20
ENDBRANCH   3  12
BRANCH   6  22
HETATM   22  O2  UNK     1       7.780   8.228   9.108  1.00  0.00    -0.350 OA
HETATM   23  C16 UNK     1       8.703   8.720  10.061  1.00  0.00     0.210 C 
ENDBRANCH   6  22
BRANCH  10  24
HETATM   24  O5  UNK     1       3.659   3.270  12.588  1.00  0.00    -0.356 OA
HETATM   25  C19 UNK     1       4.043   2.609  13.793  1.00  0.00     0.210 C 
ENDBRANCH  10  24
TORSDOF 5
ENDMDL
MODEL 7
REMARK VINA RESULT:      -6.8      6.695     11.124
REMARK  5 active torsions:
REMARK  status: ('A' for Active; 'I' for Inactive)
REMARK    1  A    between atoms: C5_11  and  O2_2 
REMARK    2  A    between atoms: C7_13  and  O3_3 
REMARK    3  A    between atoms: C11_17  and  O4_4 
REMARK    4  A    between atoms: C12_18  and  O5_5 
REMARK    5  A    between atoms: C1_7  and  C3_9 
ROOT
HETATM    1  O1  UNK     1      20.514  -3.441  34.548  1.00  0.00    -0.306 OA
HETATM    2  O6  UNK     1      17.541  -0.759  35.302  1.00  0.00    -0.284 OA
HETATM    3  C1  UNK     1      19.809  -3.460  35.740  1.00  0.00     0.126 A 
HETATM    4  C2  UNK     1      19.176  -1.558  33.803  1.00  0.00     0.053 A 
HETATM    5  C4  UNK     1      20.184  -2.500  33.607  1.00  0.00     0.090 A 
HETATM    6  C5  UNK     1      18.822  -2.601  36.057  1.00  0.00     0.154 A 
HETATM    7  C6  UNK     1      18.433  -1.565  35.071  1.00  0.00     0.221 A 
HETATM    8  C8  UNK     1      18.883  -0.622  32.807  1.00  0.00     0.055 A 
HETATM    9  C9  UNK     1      20.906  -2.513  32.413  1.00  0.00     0.041 A 
HETATM   10  C12 UNK     1      19.606  -0.637  31.614  1.00  0.00     0.069 A 
HETATM   11  C13 UNK     1      20.616  -1.579  31.417  1.00  0.00     0.039 A 
ENDROOT
BRANCH   3  12
HETATM   12  C3  UNK     1      20.265  -4.517  36.662  1.00  0.00     0.037 A 
HETATM   13  C10 UNK     1      21.335  -4.251  37.518  1.00  0.00     0.017 A 
HETATM   14  C14 UNK     1      21.786  -5.234  38.399  1.00  0.00     0.004 A 
HETATM   15  C15 UNK     1      21.169  -6.485  38.424  1.00  0.00     0.040 A 
HETATM   16  C11 UNK     1      20.100  -6.752  37.569  1.00  0.00     0.102 A 
HETATM   17  C7  UNK     1      19.649  -5.769  36.688  1.00  0.00     0.114 A 
BRANCH  16  18
HETATM   18  O4  UNK     1      19.507  -7.979  37.604  1.00  0.00    -0.353 OA
HETATM   19  C18 UNK     1      19.578  -8.698  38.833  1.00  0.00     0.210 C 
ENDBRANCH  16  18
BRANCH  17  20
HETATM   20  O3  UNK     1      18.603  -6.045  35.856  1.00  0.00    -0.352 OA
HETATM   21  C17 UNK     1      17.320  -6.195  36.460  1.00  0.00     0.210 C 
ENDBRANCH  17  20
ENDBRANCH   3  12
BRANCH   6  22
HETATM   22  O2  UNK     1      18.162  -2.626  37.266  1.00  0.00    -0.350 OA
HETATM   23  C16 UNK     1      18.550  -1.532  38.075  1.00  0.00     0.210 C 
ENDBRANCH   6  22
BRANCH  10  24
HETATM   24  O5  UNK     1      19.327   0.272  30.640  1.00  0.00    -0.356 OA
HETATM   25  C19 UNK     1      20.046   0.150  29.414  1.00  0.00     0.210 C 
ENDBRANCH  10  24
TORSDOF 5
ENDMDL
MODEL 8
REMARK VINA RESULT:      -6.7     22.814     25.114
REMARK  5 active torsions:
REMARK  status: ('A' for Active; 'I' for Inactive)
REMARK    1  A    between atoms: C5_11  and  O2_2 
REMARK    2  A    between atoms: C7_13  and  O3_3 
REMARK    3  A    between atoms: C11_17  and  O4_4 
REMARK    4  A    between atoms: C12_18  and  O5_5 
REMARK    5  A    between atoms: C1_7  and  C3_9 
ROOT
HETATM    1  O1  UNK     1      14.183   8.521   7.973  1.00  0.00    -0.306 OA
HETATM    2  O6  UNK     1      11.333   9.333  10.769  1.00  0.00    -0.284 OA
HETATM    3  C1  UNK     1      14.311   9.588   8.846  1.00  0.00     0.126 A 
HETATM    4  C2  UNK     1      12.065   7.945   9.009  1.00  0.00     0.053 A 
HETATM    5  C4  UNK     1      13.074   7.722   8.074  1.00  0.00     0.090 A 
HETATM    6  C5  UNK     1      13.406   9.918   9.787  1.00  0.00     0.154 A 
HETATM    7  C6  UNK     1      12.189   9.084   9.930  1.00  0.00     0.221 A 
HETATM    8  C8  UNK     1      10.956   7.098   9.065  1.00  0.00     0.055 A 
HETATM    9  C9  UNK     1      12.978   6.649   7.186  1.00  0.00     0.041 A 
HETATM   10  C12 UNK     1      10.863   6.025   8.177  1.00  0.00     0.069 A 
HETATM   11  C13 UNK     1      11.871   5.801   7.239  1.00  0.00     0.039 A 
ENDROOT
BRANCH   3  12
HETATM   12  C3  UNK     1      15.547  10.363   8.630  1.00  0.00     0.037 A 
HETATM   13  C10 UNK     1      15.562  11.349   7.641  1.00  0.00     0.017 A 
HETATM   14  C14 UNK     1      16.718  12.097   7.416  1.00  0.00     0.004 A 
HETATM   15  C15 UNK     1      17.862  11.858   8.178  1.00  0.00     0.040 A 
HETATM   16  C11 UNK     1      17.849  10.874   9.167  1.00  0.00     0.102 A 
HETATM   17  C7  UNK     1      16.693  10.127   9.392  1.00  0.00     0.114 A 
BRANCH  16  18
HETATM   18  O4  UNK     1      18.974  10.652   9.904  1.00  0.00    -0.353 OA
HETATM   19  C18 UNK     1      19.800  11.780  10.180  1.00  0.00     0.210 C 
ENDBRANCH  16  18
BRANCH  17  20
HETATM   20  O3  UNK     1      16.694   9.166  10.361  1.00  0.00    -0.352 OA
HETATM   21  C17 UNK     1      17.145   7.868   9.982  1.00  0.00     0.210 C 
ENDBRANCH  17  20
ENDBRANCH   3  12
BRANCH   6  22
HETATM   22  O2  UNK     1      13.549  11.007  10.619  1.00  0.00    -0.350 OA
HETATM   23  C16 UNK     1      13.994  10.606  11.900  1.00  0.00     0.210 C 
ENDBRANCH   6  22
BRANCH  10  24
HETATM   24  O5  UNK     1       9.784   5.196   8.225  1.00  0.00    -0.356 OA
HETATM   25  C19 UNK     1       8.518   5.794   8.500  1.00  0.00     0.210 C 
ENDBRANCH  10  24
TORSDOF 5
ENDMDL
MODEL 9
REMARK VINA RESULT:      -6.7      1.843      7.303
REMARK  5 active torsions:
REMARK  status: ('A' for Active; 'I' for Inactive)
REMARK    1  A    between atoms: C5_11  and  O2_2 
REMARK    2  A    between atoms: C7_13  and  O3_3 
REMARK    3  A    between atoms: C11_17  and  O4_4 
REMARK    4  A    between atoms: C12_18  and  O5_5 
REMARK    5  A    between atoms: C1_7  and  C3_9 
ROOT
HETATM    1  O1  UNK     1      19.024   6.893  33.368  1.00  0.00    -0.306 OA
HETATM    2  O6  UNK     1      15.747   9.094  32.357  1.00  0.00    -0.284 OA
HETATM    3  C1  UNK     1      17.951   6.327  32.699  1.00  0.00     0.126 A 
HETATM    4  C2  UNK     1      17.882   9.035  33.358  1.00  0.00     0.053 A 
HETATM    5  C4  UNK     1      18.971   8.228  33.678  1.00  0.00     0.090 A 
HETATM    6  C5  UNK     1      16.837   6.992  32.342  1.00  0.00     0.154 A 
HETATM    7  C6  UNK     1      16.734   8.437  32.660  1.00  0.00     0.221 A 
HETATM    8  C8  UNK     1      17.883  10.390  33.700  1.00  0.00     0.055 A 
HETATM    9  C9  UNK     1      20.071   8.771  34.344  1.00  0.00     0.041 A 
HETATM   10  C12 UNK     1      18.984  10.931  34.365  1.00  0.00     0.069 A 
HETATM   11  C13 UNK     1      20.076  10.124  34.687  1.00  0.00     0.039 A 
ENDROOT
BRANCH   3  12
HETATM   12  C3  UNK     1      18.136   4.889  32.429  1.00  0.00     0.037 A 
HETATM   13  C10 UNK     1      17.962   3.978  33.472  1.00  0.00     0.017 A 
HETATM   14  C14 UNK     1      18.131   2.612  33.244  1.00  0.00     0.004 A 
HETATM   15  C15 UNK     1      18.476   2.156  31.971  1.00  0.00     0.040 A 
HETATM   16  C11 UNK     1      18.650   3.065  30.928  1.00  0.00     0.102 A 
HETATM   17  C7  UNK     1      18.481   4.430  31.156  1.00  0.00     0.114 A 
BRANCH  16  18
HETATM   18  O4  UNK     1      18.986   2.605  29.689  1.00  0.00    -0.353 OA
HETATM   19  C18 UNK     1      17.949   2.005  28.917  1.00  0.00     0.210 C 
ENDBRANCH  16  18
BRANCH  17  20
HETATM   20  O3  UNK     1      18.655   5.309  30.126  1.00  0.00    -0.352 OA
HETATM   21  C17 UNK     1      19.940   5.912  30.003  1.00  0.00     0.210 C 
ENDBRANCH  17  20
ENDBRANCH   3  12
BRANCH   6  22
HETATM   22  O2  UNK     1      15.773   6.391  31.706  1.00  0.00    -0.350 OA
HETATM   23  C16 UNK     1      14.546   6.802  32.279  1.00  0.00     0.210 C 
ENDBRANCH   6  22
BRANCH  10  24
HETATM   24  O5  UNK     1      18.993  12.250  34.703  1.00  0.00    -0.356 OA
HETATM   25  C19 UNK     1      18.247  13.137  33.870  1.00  0.00     0.210 C 
ENDBRANCH  10  24
TORSDOF 5
ENDMDL
MODEL 10
REMARK VINA RESULT:      -6.7     15.961     17.576
REMARK  5 active torsions:
REMARK  status: ('A' for Active; 'I' for Inactive)
REMARK    1  A    between atoms: C5_11  and  O2_2 
REMARK    2  A    between atoms: C7_13  and  O3_3 
REMARK    3  A    between atoms: C11_17  and  O4_4 
REMARK    4  A    between atoms: C12_18  and  O5_5 
REMARK    5  A    between atoms: C1_7  and  C3_9 
ROOT
HETATM    1  O1  UNK     1      29.583  -6.386  33.268  1.00  0.00    -0.306 OA
HETATM    2  O6  UNK     1      31.614  -9.732  32.134  1.00  0.00    -0.284 OA
HETATM    3  C1  UNK     1      30.758  -6.766  33.895  1.00  0.00     0.126 A 
HETATM    4  C2  UNK     1      29.762  -8.311  31.800  1.00  0.00     0.053 A 
HETATM    5  C4  UNK     1      29.113  -7.158  32.236  1.00  0.00     0.090 A 
HETATM    6  C5  UNK     1      31.474  -7.860  33.577  1.00  0.00     0.154 A 
HETATM    7  C6  UNK     1      31.002  -8.726  32.470  1.00  0.00     0.221 A 
HETATM    8  C8  UNK     1      29.236  -9.059  30.744  1.00  0.00     0.055 A 
HETATM    9  C9  UNK     1      27.932  -6.745  31.619  1.00  0.00     0.041 A 
HETATM   10  C12 UNK     1      28.054  -8.644  30.127  1.00  0.00     0.069 A 
HETATM   11  C13 UNK     1      27.403  -7.490  30.563  1.00  0.00     0.039 A 
ENDROOT
BRANCH   3  12
HETATM   12  C3  UNK     1      31.149  -5.851  34.984  1.00  0.00     0.037 A 
HETATM   13  C10 UNK     1      32.033  -4.808  34.706  1.00  0.00     0.017 A 
HETATM   14  C14 UNK     1      32.419  -3.929  35.718  1.00  0.00     0.004 A 
HETATM   15  C15 UNK     1      31.922  -4.093  37.011  1.00  0.00     0.040 A 
HETATM   16  C11 UNK     1      31.038  -5.135  37.291  1.00  0.00     0.102 A 
HETATM   17  C7  UNK     1      30.653  -6.014  36.279  1.00  0.00     0.114 A 
BRANCH  16  18
HETATM   18  O4  UNK     1      30.561  -5.284  38.559  1.00  0.00    -0.353 OA
HETATM   19  C18 UNK     1      29.731  -4.241  39.065  1.00  0.00     0.210 C 
ENDBRANCH  16  18
BRANCH  17  20
HETATM   20  O3  UNK     1      29.788  -7.030  36.567  1.00  0.00    -0.352 OA
HETATM   21  C17 UNK     1      28.396  -6.729  36.512  1.00  0.00     0.210 C 
ENDBRANCH  17  20
ENDBRANCH   3  12
BRANCH   6  22
HETATM   22  O2  UNK     1      32.624  -8.227  34.243  1.00  0.00    -0.350 OA
HETATM   23  C16 UNK     1      32.337  -9.171  35.257  1.00  0.00     0.210 C 
ENDBRANCH   6  22
BRANCH  10  24
HETATM   24  O5  UNK     1      27.535  -9.368  29.098  1.00  0.00    -0.356 OA
HETATM   25  C19 UNK     1      28.448 -10.151  28.331  1.00  0.00     0.210 C 
ENDBRANCH  10  24
TORSDOF 5
ENDMDL
