MODEL 1
REMARK VINA RESULT:     -11.0      0.000      0.000
REMARK  3 active torsions:
REMARK  status: ('A' for Active; 'I' for Inactive)
REMARK    1  A    between atoms: C9_17  and  N1_5 
REMARK       I    between atoms: C12_20  and  N2_6 
REMARK    2  A    between atoms: C3_11  and  N2_6 
REMARK    3  A    between atoms: C12_20  and  C8_16 
ROOT
HETATM    1  N1  UNK     1      18.338   1.575  34.470  1.00  0.00    -0.150 N 
HETATM    2  N3  UNK     1      18.758   0.433  33.917  1.00  0.00    -0.147 NA
HETATM    3  N4  UNK     1      17.967   1.584  35.752  1.00  0.00    -0.147 NA
HETATM    4  C1  UNK     1      18.662  -0.430  34.941  1.00  0.00     0.111 A 
HETATM    5  C2  UNK     1      18.157   0.304  36.111  1.00  0.00     0.109 A 
HETATM    6  C3  UNK     1      18.735  -2.386  36.242  1.00  0.00     0.037 A 
HETATM    7  C4  UNK     1      18.962  -1.804  34.991  1.00  0.00     0.065 A 
HETATM    8  C5  UNK     1      17.942  -0.321  37.354  1.00  0.00     0.038 A 
HETATM    9  C7  UNK     1      18.251  -1.694  37.373  1.00  0.00     0.032 A 
ENDROOT
BRANCH   6  10
HETATM   10  N2  UNK     1      19.012  -3.768  36.384  1.00  0.00    -0.323 N 
HETATM   11  C12 UNK     1      20.192  -4.354  36.818  1.00  0.00     0.262 C 
HETATM   12  O2  UNK     1      21.232  -3.798  37.169  1.00  0.00    -0.267 OA
HETATM   13  H4  UNK     1      18.230  -4.374  36.150  1.00  0.00     0.169 HD
BRANCH  11  14
HETATM   14  C8  UNK     1      20.108  -5.819  36.837  1.00  0.00     0.108 A 
HETATM   15  C10 UNK     1      19.995  -6.390  38.042  1.00  0.00     0.037 A 
HETATM   16  C6  UNK     1      19.906  -7.837  38.163  1.00  0.00    -0.001 A 
HETATM   17  C11 UNK     1      19.941  -8.612  37.008  1.00  0.00     0.089 A 
HETATM   18  C14 UNK     1      19.787  -8.475  39.401  1.00  0.00     0.014 A 
HETATM   19  O1  UNK     1      20.060  -8.006  35.743  1.00  0.00    -0.274 OA
HETATM   20  C15 UNK     1      19.862 -10.002  37.055  1.00  0.00     0.038 A 
HETATM   21  C13 UNK     1      20.147  -6.624  35.595  1.00  0.00     0.304 A 
HETATM   22  O3  UNK     1      20.252  -6.105  34.489  1.00  0.00    -0.259 OA
HETATM   23  C19 UNK     1      19.743 -10.631  38.292  1.00  0.00     0.003 A 
HETATM   24  C18 UNK     1      19.705  -9.869  39.463  1.00  0.00     0.001 A 
ENDBRANCH  11  14
ENDBRANCH   6  10
BRANCH   1  25
HETATM   25  C9  UNK     1      18.287   2.744  33.714  1.00  0.00     0.079 A 
HETATM   26  C16 UNK     1      18.220   2.664  32.328  1.00  0.00     0.035 A 
HETATM   27  C20 UNK     1      18.171   3.835  31.571  1.00  0.00     0.021 A 
HETATM   28  C22 UNK     1      18.188   5.077  32.206  1.00  0.00     0.011 A 
HETATM   29 Br1  UNK     1      18.122   6.663  31.180  1.00  0.00    -0.051 Br
HETATM   30  C21 UNK     1      18.256   5.148  33.597  1.00  0.00     0.021 A 
HETATM   31  C17 UNK     1      18.305   3.978  34.354  1.00  0.00     0.035 A 
ENDBRANCH   1  25
TORSDOF 3
ENDMDL
MODEL 2
REMARK VINA RESULT:     -10.8      1.195      1.605
REMARK  3 active torsions:
REMARK  status: ('A' for Active; 'I' for Inactive)
REMARK    1  A    between atoms: C9_17  and  N1_5 
REMARK       I    between atoms: C12_20  and  N2_6 
REMARK    2  A    between atoms: C3_11  and  N2_6 
REMARK    3  A    between atoms: C12_20  and  C8_16 
ROOT
HETATM    1  N1  UNK     1      18.270   1.876  34.373  1.00  0.00    -0.150 N 
HETATM    2  N3  UNK     1      18.670   0.657  34.000  1.00  0.00    -0.147 NA
HETATM    3  N4  UNK     1      17.841   2.070  35.622  1.00  0.00    -0.147 NA
HETATM    4  C1  UNK     1      18.492  -0.057  35.123  1.00  0.00     0.111 A 
HETATM    5  C2  UNK     1      17.963   0.844  36.158  1.00  0.00     0.109 A 
HETATM    6  C3  UNK     1      18.428  -1.821  36.675  1.00  0.00     0.037 A 
HETATM    7  C4  UNK     1      18.735  -1.421  35.371  1.00  0.00     0.065 A 
HETATM    8  C5  UNK     1      17.666   0.400  37.460  1.00  0.00     0.038 A 
HETATM    9  C7  UNK     1      17.919  -0.967  37.678  1.00  0.00     0.032 A 
ENDROOT
BRANCH   6  10
HETATM   10  N2  UNK     1      18.642  -3.179  37.013  1.00  0.00    -0.323 N 
HETATM   11  C12 UNK     1      19.629  -4.027  36.529  1.00  0.00     0.262 C 
HETATM   12  O2  UNK     1      20.514  -3.773  35.713  1.00  0.00    -0.267 OA
HETATM   13  H4  UNK     1      17.993  -3.542  37.708  1.00  0.00     0.169 HD
BRANCH  11  14
HETATM   14  C8  UNK     1      19.539  -5.371  37.111  1.00  0.00     0.108 A 
HETATM   15  C10 UNK     1      20.611  -5.792  37.794  1.00  0.00     0.037 A 
HETATM   16  C6  UNK     1      20.617  -7.111  38.408  1.00  0.00    -0.001 A 
HETATM   17  C11 UNK     1      19.495  -7.922  38.272  1.00  0.00     0.089 A 
HETATM   18  C14 UNK     1      21.712  -7.591  39.130  1.00  0.00     0.014 A 
HETATM   19  O1  UNK     1      18.371  -7.473  37.552  1.00  0.00    -0.274 OA
HETATM   20  C15 UNK     1      19.437  -9.195  38.834  1.00  0.00     0.038 A 
HETATM   21  C13 UNK     1      18.334  -6.216  36.953  1.00  0.00     0.304 A 
HETATM   22  O3  UNK     1      17.352  -5.834  36.327  1.00  0.00    -0.259 OA
HETATM   23  C19 UNK     1      20.533  -9.667  39.552  1.00  0.00     0.003 A 
HETATM   24  C18 UNK     1      21.668  -8.866  39.700  1.00  0.00     0.001 A 
ENDBRANCH  11  14
ENDBRANCH   6  10
BRANCH   1  25
HETATM   25  C9  UNK     1      18.301   2.933  33.467  1.00  0.00     0.079 A 
HETATM   26  C16 UNK     1      18.327   4.240  33.937  1.00  0.00     0.035 A 
HETATM   27  C20 UNK     1      18.356   5.300  33.029  1.00  0.00     0.021 A 
HETATM   28  C22 UNK     1      18.360   5.043  31.659  1.00  0.00     0.011 A 
HETATM   29 Br1  UNK     1      18.399   6.478  30.429  1.00  0.00    -0.051 Br
HETATM   30  C21 UNK     1      18.333   3.728  31.195  1.00  0.00     0.021 A 
HETATM   31  C17 UNK     1      18.305   2.669  32.102  1.00  0.00     0.035 A 
ENDBRANCH   1  25
TORSDOF 3
ENDMDL
MODEL 3
REMARK VINA RESULT:     -10.4      7.312      9.815
REMARK  3 active torsions:
REMARK  status: ('A' for Active; 'I' for Inactive)
REMARK    1  A    between atoms: C9_17  and  N1_5 
REMARK       I    between atoms: C12_20  and  N2_6 
REMARK    2  A    between atoms: C3_11  and  N2_6 
REMARK    3  A    between atoms: C12_20  and  C8_16 
ROOT
HETATM    1  N1  UNK     1      16.451   9.449  33.528  1.00  0.00    -0.150 N 
HETATM    2  N3  UNK     1      15.970   8.402  32.851  1.00  0.00    -0.147 NA
HETATM    3  N4  UNK     1      17.744   9.477  33.859  1.00  0.00    -0.147 NA
HETATM    4  C1  UNK     1      17.061   7.633  32.705  1.00  0.00     0.111 A 
HETATM    5  C2  UNK     1      18.192   8.318  33.348  1.00  0.00     0.109 A 
HETATM    6  C3  UNK     1      18.504   5.874  32.116  1.00  0.00     0.037 A 
HETATM    7  C4  UNK     1      17.203   6.384  32.071  1.00  0.00     0.065 A 
HETATM    8  C5  UNK     1      19.487   7.768  33.370  1.00  0.00     0.038 A 
HETATM    9  C7  UNK     1      19.599   6.520  32.729  1.00  0.00     0.032 A 
ENDROOT
BRANCH   6  10
HETATM   10  N2  UNK     1      18.740   4.620  31.502  1.00  0.00    -0.323 N 
HETATM   11  C12 UNK     1      18.307   3.373  31.930  1.00  0.00     0.262 C 
HETATM   12  O2  UNK     1      17.631   3.103  32.922  1.00  0.00    -0.267 OA
HETATM   13  H4  UNK     1      19.277   4.674  30.639  1.00  0.00     0.169 HD
BRANCH  11  14
HETATM   14  C8  UNK     1      18.745   2.297  31.033  1.00  0.00     0.108 A 
HETATM   15  C10 UNK     1      19.154   1.166  31.621  1.00  0.00     0.037 A 
HETATM   16  C6  UNK     1      19.608   0.043  30.816  1.00  0.00    -0.001 A 
HETATM   17  C11 UNK     1      19.610   0.166  29.430  1.00  0.00     0.089 A 
HETATM   18  C14 UNK     1      20.043  -1.156  31.387  1.00  0.00     0.014 A 
HETATM   19  O1  UNK     1      19.179   1.358  28.817  1.00  0.00    -0.274 OA
HETATM   20  C15 UNK     1      20.034  -0.871  28.602  1.00  0.00     0.038 A 
HETATM   21  C13 UNK     1      18.739   2.450  29.561  1.00  0.00     0.304 A 
HETATM   22  O3  UNK     1      18.366   3.485  29.018  1.00  0.00    -0.259 OA
HETATM   23  C19 UNK     1      20.465  -2.063  29.179  1.00  0.00     0.003 A 
HETATM   24  C18 UNK     1      20.470  -2.205  30.569  1.00  0.00     0.001 A 
ENDBRANCH  11  14
ENDBRANCH   6  10
BRANCH   1  25
HETATM   25  C9  UNK     1      15.610  10.500  33.886  1.00  0.00     0.079 A 
HETATM   26  C16 UNK     1      14.242  10.390  33.669  1.00  0.00     0.035 A 
HETATM   27  C20 UNK     1      13.400  11.444  34.027  1.00  0.00     0.021 A 
HETATM   28  C22 UNK     1      13.933  12.599  34.599  1.00  0.00     0.011 A 
HETATM   29 Br1  UNK     1      12.792  14.026  35.082  1.00  0.00    -0.051 Br
HETATM   30  C21 UNK     1      15.307  12.701  34.812  1.00  0.00     0.021 A 
HETATM   31  C17 UNK     1      16.149  11.648  34.455  1.00  0.00     0.035 A 
ENDBRANCH   1  25
TORSDOF 3
ENDMDL
MODEL 4
REMARK VINA RESULT:     -10.3      1.045      1.745
REMARK  3 active torsions:
REMARK  status: ('A' for Active; 'I' for Inactive)
REMARK    1  A    between atoms: C9_17  and  N1_5 
REMARK       I    between atoms: C12_20  and  N2_6 
REMARK    2  A    between atoms: C3_11  and  N2_6 
REMARK    3  A    between atoms: C12_20  and  C8_16 
ROOT
HETATM    1  N1  UNK     1      18.348   1.663  34.611  1.00  0.00    -0.150 N 
HETATM    2  N3  UNK     1      19.024   0.559  34.283  1.00  0.00    -0.147 NA
HETATM    3  N4  UNK     1      17.711   1.717  35.783  1.00  0.00    -0.147 NA
HETATM    4  C1  UNK     1      18.823  -0.226  35.354  1.00  0.00     0.111 A 
HETATM    5  C2  UNK     1      17.986   0.512  36.311  1.00  0.00     0.109 A 
HETATM    6  C3  UNK     1      18.871  -2.040  36.847  1.00  0.00     0.037 A 
HETATM    7  C4  UNK     1      19.284  -1.530  35.612  1.00  0.00     0.065 A 
HETATM    8  C5  UNK     1      17.592  -0.039  37.544  1.00  0.00     0.038 A 
HETATM    9  C7  UNK     1      18.067  -1.343  37.775  1.00  0.00     0.032 A 
ENDROOT
BRANCH   6  10
HETATM   10  N2  UNK     1      19.290  -3.348  37.192  1.00  0.00    -0.323 N 
HETATM   11  C12 UNK     1      19.903  -4.285  36.371  1.00  0.00     0.262 C 
HETATM   12  O2  UNK     1      20.208  -4.170  35.185  1.00  0.00    -0.267 OA
HETATM   13  H4  UNK     1      19.125  -3.595  38.165  1.00  0.00     0.169 HD
BRANCH  11  14
HETATM   14  C8  UNK     1      20.193  -5.537  37.079  1.00  0.00     0.108 A 
HETATM   15  C10 UNK     1      19.356  -6.555  36.849  1.00  0.00     0.037 A 
HETATM   16  C6  UNK     1      19.561  -7.836  37.506  1.00  0.00    -0.001 A 
HETATM   17  C11 UNK     1      20.638  -7.982  38.375  1.00  0.00     0.089 A 
HETATM   18  C14 UNK     1      18.713  -8.927  37.295  1.00  0.00     0.014 A 
HETATM   19  O1  UNK     1      21.516  -6.907  38.613  1.00  0.00    -0.274 OA
HETATM   20  C15 UNK     1      20.890  -9.182  39.036  1.00  0.00     0.038 A 
HETATM   21  C13 UNK     1      21.345  -5.669  37.999  1.00  0.00     0.304 A 
HETATM   22  O3  UNK     1      22.114  -4.738  38.214  1.00  0.00    -0.259 OA
HETATM   23  C19 UNK     1      20.040 -10.264  38.820  1.00  0.00     0.003 A 
HETATM   24  C18 UNK     1      18.954 -10.137  37.951  1.00  0.00     0.001 A 
ENDBRANCH  11  14
ENDBRANCH   6  10
BRANCH   1  25
HETATM   25  C9  UNK     1      18.308   2.748  33.739  1.00  0.00     0.079 A 
HETATM   26  C16 UNK     1      18.349   4.041  34.247  1.00  0.00     0.035 A 
HETATM   27  C20 UNK     1      18.308   5.128  33.372  1.00  0.00     0.021 A 
HETATM   28  C22 UNK     1      18.226   4.912  31.997  1.00  0.00     0.011 A 
HETATM   29 Br1  UNK     1      18.170   6.385  30.813  1.00  0.00    -0.051 Br
HETATM   30  C21 UNK     1      18.185   3.612  31.495  1.00  0.00     0.021 A 
HETATM   31  C17 UNK     1      18.227   2.525  32.369  1.00  0.00     0.035 A 
ENDBRANCH   1  25
TORSDOF 3
ENDMDL
MODEL 5
REMARK VINA RESULT:     -10.1      6.764      9.870
REMARK  3 active torsions:
REMARK  status: ('A' for Active; 'I' for Inactive)
REMARK    1  A    between atoms: C9_17  and  N1_5 
REMARK       I    between atoms: C12_20  and  N2_6 
REMARK    2  A    between atoms: C3_11  and  N2_6 
REMARK    3  A    between atoms: C12_20  and  C8_16 
ROOT
HETATM    1  N1  UNK     1      15.923   9.729  33.400  1.00  0.00    -0.150 N 
HETATM    2  N3  UNK     1      15.472   8.542  32.986  1.00  0.00    -0.147 NA
HETATM    3  N4  UNK     1      17.209   9.860  33.735  1.00  0.00    -0.147 NA
HETATM    4  C1  UNK     1      16.577   7.781  33.046  1.00  0.00     0.111 A 
HETATM    5  C2  UNK     1      17.685   8.622  33.523  1.00  0.00     0.109 A 
HETATM    6  C3  UNK     1      18.057   5.961  32.917  1.00  0.00     0.037 A 
HETATM    7  C4  UNK     1      16.750   6.421  32.731  1.00  0.00     0.065 A 
HETATM    8  C5  UNK     1      18.988   8.118  33.696  1.00  0.00     0.038 A 
HETATM    9  C7  UNK     1      19.130   6.756  33.375  1.00  0.00     0.032 A 
ENDROOT
BRANCH   6  10
HETATM   10  N2  UNK     1      18.324   4.601  32.624  1.00  0.00    -0.323 N 
HETATM   11  C12 UNK     1      18.390   4.001  31.374  1.00  0.00     0.262 C 
HETATM   12  O2  UNK     1      18.234   4.525  30.272  1.00  0.00    -0.267 OA
HETATM   13  H4  UNK     1      18.500   4.026  33.445  1.00  0.00     0.169 HD
BRANCH  11  14
HETATM   14  C8  UNK     1      18.690   2.568  31.463  1.00  0.00     0.108 A 
HETATM   15  C10 UNK     1      19.262   2.015  30.387  1.00  0.00     0.037 A 
HETATM   16  C6  UNK     1      19.597   0.600  30.380  1.00  0.00    -0.001 A 
HETATM   17  C11 UNK     1      19.311  -0.165  31.506  1.00  0.00     0.089 A 
HETATM   18  C14 UNK     1      20.195  -0.019  29.278  1.00  0.00     0.014 A 
HETATM   19  O1  UNK     1      18.709   0.422  32.636  1.00  0.00    -0.274 OA
HETATM   20  C15 UNK     1      19.605  -1.526  31.563  1.00  0.00     0.038 A 
HETATM   21  C13 UNK     1      18.377   1.774  32.673  1.00  0.00     0.304 A 
HETATM   22  O3  UNK     1      17.852   2.276  33.661  1.00  0.00    -0.259 OA
HETATM   23  C19 UNK     1      20.202  -2.135  30.462  1.00  0.00     0.003 A 
HETATM   24  C18 UNK     1      20.496  -1.383  29.322  1.00  0.00     0.001 A 
ENDBRANCH  11  14
ENDBRANCH   6  10
BRANCH   1  25
HETATM   25  C9  UNK     1      15.060  10.819  33.483  1.00  0.00     0.079 A 
HETATM   26  C16 UNK     1      15.545  12.048  33.913  1.00  0.00     0.035 A 
HETATM   27  C20 UNK     1      14.680  13.140  33.998  1.00  0.00     0.021 A 
HETATM   28  C22 UNK     1      13.337  12.994  33.651  1.00  0.00     0.011 A 
HETATM   29 Br1  UNK     1      12.166  14.473  33.766  1.00  0.00    -0.051 Br
HETATM   30  C21 UNK     1      12.859  11.757  33.221  1.00  0.00     0.021 A 
HETATM   31  C17 UNK     1      13.723  10.665  33.136  1.00  0.00     0.035 A 
ENDBRANCH   1  25
TORSDOF 3
ENDMDL
MODEL 6
REMARK VINA RESULT:     -10.1      4.465     11.016
REMARK  3 active torsions:
REMARK  status: ('A' for Active; 'I' for Inactive)
REMARK    1  A    between atoms: C9_17  and  N1_5 
REMARK       I    between atoms: C12_20  and  N2_6 
REMARK    2  A    between atoms: C3_11  and  N2_6 
REMARK    3  A    between atoms: C12_20  and  C8_16 
ROOT
HETATM    1  N1  UNK     1      20.060  -5.035  36.154  1.00  0.00    -0.150 N 
HETATM    2  N3  UNK     1      20.239  -4.380  35.004  1.00  0.00    -0.147 NA
HETATM    3  N4  UNK     1      19.520  -4.395  37.195  1.00  0.00    -0.147 NA
HETATM    4  C1  UNK     1      19.768  -3.157  35.297  1.00  0.00     0.111 A 
HETATM    5  C2  UNK     1      19.310  -3.166  36.693  1.00  0.00     0.109 A 
HETATM    6  C3  UNK     1      19.130  -0.901  35.138  1.00  0.00     0.037 A 
HETATM    7  C4  UNK     1      19.683  -2.008  34.488  1.00  0.00     0.065 A 
HETATM    8  C5  UNK     1      18.758  -2.028  37.310  1.00  0.00     0.038 A 
HETATM    9  C7  UNK     1      18.686  -0.895  36.478  1.00  0.00     0.032 A 
ENDROOT
BRANCH   6  10
HETATM   10  N2  UNK     1      19.006   0.301  34.398  1.00  0.00    -0.323 N 
HETATM   11  C12 UNK     1      17.841   0.994  34.100  1.00  0.00     0.262 C 
HETATM   12  O2  UNK     1      16.686   0.710  34.417  1.00  0.00    -0.267 OA
HETATM   13  H4  UNK     1      19.891   0.685  34.077  1.00  0.00     0.169 HD
BRANCH  11  14
HETATM   14  C8  UNK     1      18.103   2.204  33.311  1.00  0.00     0.108 A 
HETATM   15  C10 UNK     1      18.042   3.366  33.972  1.00  0.00     0.037 A 
HETATM   16  C6  UNK     1      18.287   4.619  33.276  1.00  0.00    -0.001 A 
HETATM   17  C11 UNK     1      18.582   4.587  31.916  1.00  0.00     0.089 A 
HETATM   18  C14 UNK     1      18.234   5.855  33.925  1.00  0.00     0.014 A 
HETATM   19  O1  UNK     1      18.645   3.361  31.227  1.00  0.00    -0.274 OA
HETATM   20  C15 UNK     1      18.825   5.751  31.191  1.00  0.00     0.038 A 
HETATM   21  C13 UNK     1      18.416   2.145  31.865  1.00  0.00     0.304 A 
HETATM   22  O3  UNK     1      18.472   1.082  31.257  1.00  0.00    -0.259 OA
HETATM   23  C19 UNK     1      18.771   6.979  31.846  1.00  0.00     0.003 A 
HETATM   24  C18 UNK     1      18.476   7.031  33.211  1.00  0.00     0.001 A 
ENDBRANCH  11  14
ENDBRANCH   6  10
BRANCH   1  25
HETATM   25  C9  UNK     1      20.433  -6.372  36.267  1.00  0.00     0.079 A 
HETATM   26  C16 UNK     1      20.531  -7.156  35.124  1.00  0.00     0.035 A 
HETATM   27  C20 UNK     1      20.903  -8.497  35.237  1.00  0.00     0.021 A 
HETATM   28  C22 UNK     1      21.174  -9.041  36.493  1.00  0.00     0.011 A 
HETATM   29 Br1  UNK     1      21.678 -10.857  36.645  1.00  0.00    -0.051 Br
HETATM   30  C21 UNK     1      21.072  -8.247  37.634  1.00  0.00     0.021 A 
HETATM   31  C17 UNK     1      20.700  -6.907  37.522  1.00  0.00     0.035 A 
ENDBRANCH   1  25
TORSDOF 3
ENDMDL
MODEL 7
REMARK VINA RESULT:     -10.0      5.915      8.448
REMARK  3 active torsions:
REMARK  status: ('A' for Active; 'I' for Inactive)
REMARK    1  A    between atoms: C9_17  and  N1_5 
REMARK       I    between atoms: C12_20  and  N2_6 
REMARK    2  A    between atoms: C3_11  and  N2_6 
REMARK    3  A    between atoms: C12_20  and  C8_16 
ROOT
HETATM    1  N1  UNK     1      16.764   7.611  32.527  1.00  0.00    -0.150 N 
HETATM    2  N3  UNK     1      16.686   6.347  32.954  1.00  0.00    -0.147 NA
HETATM    3  N4  UNK     1      17.515   7.897  31.461  1.00  0.00    -0.147 NA
HETATM    4  C1  UNK     1      17.474   5.703  32.077  1.00  0.00     0.111 A 
HETATM    5  C2  UNK     1      18.002   6.691  31.125  1.00  0.00     0.109 A 
HETATM    6  C3  UNK     1      18.659   4.023  30.939  1.00  0.00     0.037 A 
HETATM    7  C4  UNK     1      17.799   4.336  31.996  1.00  0.00     0.065 A 
HETATM    8  C5  UNK     1      18.866   6.332  30.074  1.00  0.00     0.038 A 
HETATM    9  C7  UNK     1      19.173   4.960  30.018  1.00  0.00     0.032 A 
ENDROOT
BRANCH   6  10
HETATM   10  N2  UNK     1      19.039   2.668  30.780  1.00  0.00    -0.323 N 
HETATM   11  C12 UNK     1      18.449   1.713  29.965  1.00  0.00     0.262 C 
HETATM   12  O2  UNK     1      17.482   1.847  29.216  1.00  0.00    -0.267 OA
HETATM   13  H4  UNK     1      19.854   2.398  31.327  1.00  0.00     0.169 HD
BRANCH  11  14
HETATM   14  C8  UNK     1      19.120   0.411  30.061  1.00  0.00     0.108 A 
HETATM   15  C10 UNK     1      19.386  -0.028  31.298  1.00  0.00     0.037 A 
HETATM   16  C6  UNK     1      20.049  -1.307  31.495  1.00  0.00    -0.001 A 
HETATM   17  C11 UNK     1      20.401  -2.062  30.380  1.00  0.00     0.089 A 
HETATM   18  C14 UNK     1      20.346  -1.803  32.767  1.00  0.00     0.014 A 
HETATM   19  O1  UNK     1      20.119  -1.595  29.082  1.00  0.00    -0.274 OA
HETATM   20  C15 UNK     1      21.039  -3.294  30.501  1.00  0.00     0.038 A 
HETATM   21  C13 UNK     1      19.485  -0.375  28.861  1.00  0.00     0.304 A 
HETATM   22  O3  UNK     1      19.243   0.024  27.727  1.00  0.00    -0.259 OA
HETATM   23  C19 UNK     1      21.332  -3.782  31.772  1.00  0.00     0.003 A 
HETATM   24  C18 UNK     1      20.986  -3.038  32.903  1.00  0.00     0.001 A 
ENDBRANCH  11  14
ENDBRANCH   6  10
BRANCH   1  25
HETATM   25  C9  UNK     1      16.069   8.620  33.190  1.00  0.00     0.079 A 
HETATM   26  C16 UNK     1      16.737   9.432  34.099  1.00  0.00     0.035 A 
HETATM   27  C20 UNK     1      16.040  10.442  34.763  1.00  0.00     0.021 A 
HETATM   28  C22 UNK     1      14.681  10.631  34.514  1.00  0.00     0.011 A 
HETATM   29 Br1  UNK     1      13.738  11.999  35.415  1.00  0.00    -0.051 Br
HETATM   30  C21 UNK     1      14.019   9.812  33.601  1.00  0.00     0.021 A 
HETATM   31  C17 UNK     1      14.715   8.802  32.936  1.00  0.00     0.035 A 
ENDBRANCH   1  25
TORSDOF 3
ENDMDL
MODEL 8
REMARK VINA RESULT:      -9.6     20.076     23.562
REMARK  3 active torsions:
REMARK  status: ('A' for Active; 'I' for Inactive)
REMARK    1  A    between atoms: C9_17  and  N1_5 
REMARK       I    between atoms: C12_20  and  N2_6 
REMARK    2  A    between atoms: C3_11  and  N2_6 
REMARK    3  A    between atoms: C12_20  and  C8_16 
ROOT
HETATM    1  N1  UNK     1      21.097  -8.421  12.999  1.00  0.00    -0.150 N 
HETATM    2  N3  UNK     1      21.663  -7.455  13.727  1.00  0.00    -0.147 NA
HETATM    3  N4  UNK     1      19.880  -8.227  12.484  1.00  0.00    -0.147 NA
HETATM    4  C1  UNK     1      20.724  -6.495  13.704  1.00  0.00     0.111 A 
HETATM    5  C2  UNK     1      19.588  -6.987  12.911  1.00  0.00     0.109 A 
HETATM    6  C3  UNK     1      19.563  -4.483  14.056  1.00  0.00     0.037 A 
HETATM    7  C4  UNK     1      20.728  -5.218  14.295  1.00  0.00     0.065 A 
HETATM    8  C5  UNK     1      18.432  -6.213  12.695  1.00  0.00     0.038 A 
HETATM    9  C7  UNK     1      18.465  -4.942  13.298  1.00  0.00     0.032 A 
ENDROOT
BRANCH   6  10
HETATM   10  N2  UNK     1      19.480  -3.183  14.614  1.00  0.00    -0.323 N 
HETATM   11  C12 UNK     1      18.538  -2.708  15.516  1.00  0.00     0.262 C 
HETATM   12  O2  UNK     1      17.591  -3.314  16.014  1.00  0.00    -0.267 OA
HETATM   13  H4  UNK     1      20.220  -2.554  14.314  1.00  0.00     0.169 HD
BRANCH  11  14
HETATM   14  C8  UNK     1      18.772  -1.303  15.872  1.00  0.00     0.108 A 
HETATM   15  C10 UNK     1      18.671  -0.998  17.171  1.00  0.00     0.037 A 
HETATM   16  C6  UNK     1      18.885   0.369  17.622  1.00  0.00    -0.001 A 
HETATM   17  C11 UNK     1      19.194   1.347  16.682  1.00  0.00     0.089 A 
HETATM   18  C14 UNK     1      18.790   0.733  18.968  1.00  0.00     0.014 A 
HETATM   19  O1  UNK     1      19.300   1.019  15.317  1.00  0.00    -0.274 OA
HETATM   20  C15 UNK     1      19.410   2.673  17.048  1.00  0.00     0.038 A 
HETATM   21  C13 UNK     1      19.101  -0.280  14.854  1.00  0.00     0.304 A 
HETATM   22  O3  UNK     1      19.194  -0.556  13.663  1.00  0.00    -0.259 OA
HETATM   23  C19 UNK     1      19.313   3.028  18.391  1.00  0.00     0.003 A 
HETATM   24  C18 UNK     1      19.004   2.060  19.349  1.00  0.00     0.001 A 
ENDBRANCH  11  14
ENDBRANCH   6  10
BRANCH   1  25
HETATM   25  C9  UNK     1      21.770  -9.621  12.780  1.00  0.00     0.079 A 
HETATM   26  C16 UNK     1      23.150  -9.615  12.618  1.00  0.00     0.035 A 
HETATM   27  C20 UNK     1      23.824 -10.817  12.397  1.00  0.00     0.021 A 
HETATM   28  C22 UNK     1      23.112 -12.015  12.340  1.00  0.00     0.011 A 
HETATM   29 Br1  UNK     1      24.025 -13.643  12.041  1.00  0.00    -0.051 Br
HETATM   30  C21 UNK     1      21.727 -12.012  12.504  1.00  0.00     0.021 A 
HETATM   31  C17 UNK     1      21.053 -10.811  12.725  1.00  0.00     0.035 A 
ENDBRANCH   1  25
TORSDOF 3
ENDMDL
MODEL 9
REMARK VINA RESULT:      -9.5      7.170     10.444
REMARK  3 active torsions:
REMARK  status: ('A' for Active; 'I' for Inactive)
REMARK    1  A    between atoms: C9_17  and  N1_5 
REMARK       I    between atoms: C12_20  and  N2_6 
REMARK    2  A    between atoms: C3_11  and  N2_6 
REMARK    3  A    between atoms: C12_20  and  C8_16 
ROOT
HETATM    1  N1  UNK     1      16.306  10.538  33.555  1.00  0.00    -0.150 N 
HETATM    2  N3  UNK     1      17.365   9.728  33.633  1.00  0.00    -0.147 NA
HETATM    3  N4  UNK     1      15.148  10.059  33.093  1.00  0.00    -0.147 NA
HETATM    4  C1  UNK     1      16.870   8.567  33.173  1.00  0.00     0.111 A 
HETATM    5  C2  UNK     1      15.457   8.778  32.829  1.00  0.00     0.109 A 
HETATM    6  C3  UNK     1      16.666   6.326  32.498  1.00  0.00     0.037 A 
HETATM    7  C4  UNK     1      17.503   7.321  33.011  1.00  0.00     0.065 A 
HETATM    8  C5  UNK     1      14.648   7.747  32.315  1.00  0.00     0.038 A 
HETATM    9  C7  UNK     1      15.307   6.514  32.163  1.00  0.00     0.032 A 
ENDROOT
BRANCH   6  10
HETATM   10  N2  UNK     1      17.219   5.037  32.302  1.00  0.00    -0.323 N 
HETATM   11  C12 UNK     1      18.170   4.658  31.365  1.00  0.00     0.262 C 
HETATM   12  O2  UNK     1      18.725   5.359  30.520  1.00  0.00    -0.267 OA
HETATM   13  H4  UNK     1      16.873   4.333  32.950  1.00  0.00     0.169 HD
BRANCH  11  14
HETATM   14  C8  UNK     1      18.504   3.232  31.460  1.00  0.00     0.108 A 
HETATM   15  C10 UNK     1      18.938   2.649  30.336  1.00  0.00     0.037 A 
HETATM   16  C6  UNK     1      19.293   1.239  30.332  1.00  0.00    -0.001 A 
HETATM   17  C11 UNK     1      19.172   0.510  31.511  1.00  0.00     0.089 A 
HETATM   18  C14 UNK     1      19.751   0.589  29.182  1.00  0.00     0.014 A 
HETATM   19  O1  UNK     1      18.715   1.129  32.690  1.00  0.00    -0.274 OA
HETATM   20  C15 UNK     1      19.495  -0.843  31.573  1.00  0.00     0.038 A 
HETATM   21  C13 UNK     1      18.368   2.477  32.727  1.00  0.00     0.304 A 
HETATM   22  O3  UNK     1      17.970   3.008  33.758  1.00  0.00    -0.259 OA
HETATM   23  C19 UNK     1      19.950  -1.483  30.423  1.00  0.00     0.003 A 
HETATM   24  C18 UNK     1      20.079  -0.768  29.230  1.00  0.00     0.001 A 
ENDBRANCH  11  14
ENDBRANCH   6  10
BRANCH   1  25
HETATM   25  C9  UNK     1      16.409  11.870  33.950  1.00  0.00     0.079 A 
HETATM   26  C16 UNK     1      15.256  12.628  34.115  1.00  0.00     0.035 A 
HETATM   27  C20 UNK     1      15.360  13.963  34.509  1.00  0.00     0.021 A 
HETATM   28  C22 UNK     1      16.615  14.528  34.736  1.00  0.00     0.011 A 
HETATM   29 Br1  UNK     1      16.754  16.336  35.269  1.00  0.00    -0.051 Br
HETATM   30  C21 UNK     1      17.766  13.759  34.567  1.00  0.00     0.021 A 
HETATM   31  C17 UNK     1      17.663  12.425  34.173  1.00  0.00     0.035 A 
ENDBRANCH   1  25
TORSDOF 3
ENDMDL
MODEL 10
REMARK VINA RESULT:      -9.4     28.827     30.472
REMARK  3 active torsions:
REMARK  status: ('A' for Active; 'I' for Inactive)
REMARK    1  A    between atoms: C9_17  and  N1_5 
REMARK       I    between atoms: C12_20  and  N2_6 
REMARK    2  A    between atoms: C3_11  and  N2_6 
REMARK    3  A    between atoms: C12_20  and  C8_16 
ROOT
HETATM    1  N1  UNK     1      19.752  12.010   9.545  1.00  0.00    -0.150 N 
HETATM    2  N3  UNK     1      19.011  11.034  10.076  1.00  0.00    -0.147 NA
HETATM    3  N4  UNK     1      19.275  12.705   8.509  1.00  0.00    -0.147 NA
HETATM    4  C1  UNK     1      17.905  11.070   9.315  1.00  0.00     0.111 A 
HETATM    5  C2  UNK     1      18.073  12.135   8.316  1.00  0.00     0.109 A 
HETATM    6  C3  UNK     1      15.786  10.604   8.412  1.00  0.00     0.037 A 
HETATM    7  C4  UNK     1      16.743  10.279   9.378  1.00  0.00     0.065 A 
HETATM    8  C5  UNK     1      17.083  12.430   7.360  1.00  0.00     0.038 A 
HETATM    9  C7  UNK     1      15.933  11.624   7.447  1.00  0.00     0.032 A 
ENDROOT
BRANCH   6  10
HETATM   10  N2  UNK     1      14.582   9.858   8.403  1.00  0.00    -0.323 N 
HETATM   11  C12 UNK     1      14.382   8.568   8.874  1.00  0.00     0.262 C 
HETATM   12  O2  UNK     1      15.202   7.815   9.396  1.00  0.00    -0.267 OA
HETATM   13  H4  UNK     1      13.786  10.359   8.015  1.00  0.00     0.169 HD
BRANCH  11  14
HETATM   14  C8  UNK     1      12.995   8.123   8.696  1.00  0.00     0.108 A 
HETATM   15  C10 UNK     1      12.698   7.569   7.514  1.00  0.00     0.037 A 
HETATM   16  C6  UNK     1      11.350   7.098   7.242  1.00  0.00    -0.001 A 
HETATM   17  C11 UNK     1      10.378   7.233   8.229  1.00  0.00     0.089 A 
HETATM   18  C14 UNK     1      10.996   6.513   6.023  1.00  0.00     0.014 A 
HETATM   19  O1  UNK     1      10.696   7.816   9.471  1.00  0.00    -0.274 OA
HETATM   20  C15 UNK     1       9.068   6.803   8.032  1.00  0.00     0.038 A 
HETATM   21  C13 UNK     1      11.978   8.276   9.761  1.00  0.00     0.304 A 
HETATM   22  O3  UNK     1      12.245   8.784  10.844  1.00  0.00    -0.259 OA
HETATM   23  C19 UNK     1       8.723   6.221   6.815  1.00  0.00     0.003 A 
HETATM   24  C18 UNK     1       9.685   6.077   5.812  1.00  0.00     0.001 A 
ENDBRANCH  11  14
ENDBRANCH   6  10
BRANCH   1  25
HETATM   25  C9  UNK     1      21.011  12.300  10.066  1.00  0.00     0.079 A 
HETATM   26  C16 UNK     1      21.358  11.826  11.325  1.00  0.00     0.035 A 
HETATM   27  C20 UNK     1      22.619  12.118  11.848  1.00  0.00     0.021 A 
HETATM   28  C22 UNK     1      23.522  12.880  11.107  1.00  0.00     0.011 A 
HETATM   29 Br1  UNK     1      25.229  13.276  11.816  1.00  0.00    -0.051 Br
HETATM   30  C21 UNK     1      23.164  13.352   9.845  1.00  0.00     0.021 A 
HETATM   31  C17 UNK     1      21.904  13.061   9.321  1.00  0.00     0.035 A 
ENDBRANCH   1  25
TORSDOF 3
ENDMDL
