MODEL 1
REMARK VINA RESULT:      -8.9      0.000      0.000
REMARK  1 active torsions:
REMARK  status: ('A' for Active; 'I' for Inactive)
REMARK    1  A    between atoms: C12_17  and  C4_9 
ROOT
HETATM    1  O1  UNK     1      17.680   4.008  30.793  1.00  0.00    -0.332 OA
HETATM    2  O2  UNK     1      19.797  -0.220  31.948  1.00  0.00    -0.274 OA
HETATM    3  O3  UNK     1      18.294   4.099  34.349  1.00  0.00    -0.289 OA
HETATM    4  O4  UNK     1      20.865  -2.190  32.425  1.00  0.00    -0.260 OA
HETATM    5  C1  UNK     1      18.154   4.627  31.990  1.00  0.00     0.125 C 
HETATM    6  C2  UNK     1      18.652   1.871  31.457  1.00  0.00     0.048 A 
HETATM    7  C3  UNK     1      18.279   3.686  33.192  1.00  0.00     0.196 C 
HETATM    8  C4  UNK     1      18.420   2.235  32.864  1.00  0.00     0.044 C 
HETATM    9  C5  UNK     1      18.237   2.792  30.485  1.00  0.00     0.084 A 
HETATM   10  C6  UNK     1      17.119   5.709  32.323  1.00  0.00     0.055 C 
HETATM   11  C7  UNK     1      19.512   5.290  31.723  1.00  0.00     0.055 C 
HETATM   12  C8  UNK     1      19.266   0.691  31.003  1.00  0.00     0.103 A 
HETATM   13  C9  UNK     1      19.401   0.400  29.642  1.00  0.00    -0.001 A 
HETATM   14  C10 UNK     1      18.343   2.503  29.120  1.00  0.00     0.039 A 
HETATM   15  C11 UNK     1      18.921   1.308  28.698  1.00  0.00     0.017 A 
HETATM   16  C13 UNK     1      20.039  -0.843  29.237  1.00  0.00     0.020 A 
HETATM   17  C14 UNK     1      20.516  -1.693  30.149  1.00  0.00     0.083 A 
HETATM   18  C15 UNK     1      20.419  -1.411  31.590  1.00  0.00     0.288 A 
ENDROOT
BRANCH   8  19
HETATM   19  C12 UNK     1      18.204   1.367  33.864  1.00  0.00     0.098 C 
HETATM   20  N1  UNK     1      19.029   1.068  34.893  1.00  0.00    -0.402 N 
HETATM   21  C16 UNK     1      18.722   0.088  35.912  1.00  0.00     0.145 C 
HETATM   22  H11 UNK     1      19.924   1.539  34.951  1.00  0.00     0.158 HD
ENDBRANCH   8  19
TORSDOF 1
ENDMDL
MODEL 2
REMARK VINA RESULT:      -7.6     22.759     25.248
REMARK  1 active torsions:
REMARK  status: ('A' for Active; 'I' for Inactive)
REMARK    1  A    between atoms: C12_17  and  C4_9 
ROOT
HETATM    1  O1  UNK     1      14.306   7.485   8.309  1.00  0.00    -0.332 OA
HETATM    2  O2  UNK     1       9.476   7.668   8.881  1.00  0.00    -0.274 OA
HETATM    3  O3  UNK     1      13.708   8.810  11.613  1.00  0.00    -0.289 OA
HETATM    4  O4  UNK     1       7.199   7.655   9.130  1.00  0.00    -0.260 OA
HETATM    5  C1  UNK     1      14.524   7.539   9.720  1.00  0.00     0.125 C 
HETATM    6  C2  UNK     1      11.897   7.697   8.624  1.00  0.00     0.048 A 
HETATM    7  C3  UNK     1      13.480   8.347  10.498  1.00  0.00     0.196 C 
HETATM    8  C4  UNK     1      12.153   8.502   9.828  1.00  0.00     0.044 C 
HETATM    9  C5  UNK     1      13.016   7.247   7.909  1.00  0.00     0.084 A 
HETATM   10  C6  UNK     1      15.891   8.213   9.894  1.00  0.00     0.055 C 
HETATM   11  C7  UNK     1      14.586   6.115  10.286  1.00  0.00     0.055 C 
HETATM   12  C8  UNK     1      10.632   7.327   8.136  1.00  0.00     0.103 A 
HETATM   13  C9  UNK     1      10.475   6.602   6.951  1.00  0.00    -0.001 A 
HETATM   14  C10 UNK     1      12.874   6.542   6.709  1.00  0.00     0.039 A 
HETATM   15  C11 UNK     1      11.606   6.222   6.228  1.00  0.00     0.017 A 
HETATM   16  C13 UNK     1       9.138   6.256   6.495  1.00  0.00     0.020 A 
HETATM   17  C14 UNK     1       8.065   6.605   7.208  1.00  0.00     0.083 A 
HETATM   18  C15 UNK     1       8.187   7.344   8.474  1.00  0.00     0.288 A 
ENDROOT
BRANCH   8  19
HETATM   19  C12 UNK     1      11.342   9.456  10.312  1.00  0.00     0.098 C 
HETATM   20  N1  UNK     1      10.756  10.466   9.631  1.00  0.00    -0.402 N 
HETATM   21  C16 UNK     1       9.918  11.472  10.247  1.00  0.00     0.145 C 
HETATM   22  H11 UNK     1      10.923  10.543   8.634  1.00  0.00     0.158 HD
ENDBRANCH   8  19
TORSDOF 1
ENDMDL
MODEL 3
REMARK VINA RESULT:      -7.4     12.721     14.631
REMARK  1 active torsions:
REMARK  status: ('A' for Active; 'I' for Inactive)
REMARK    1  A    between atoms: C12_17  and  C4_9 
ROOT
HETATM    1  O1  UNK     1      27.187  -6.387  38.756  1.00  0.00    -0.332 OA
HETATM    2  O2  UNK     1      30.717  -5.907  35.439  1.00  0.00    -0.274 OA
HETATM    3  O3  UNK     1      26.826  -9.148  36.459  1.00  0.00    -0.289 OA
HETATM    4  O4  UNK     1      32.445  -5.683  33.952  1.00  0.00    -0.260 OA
HETATM    5  C1  UNK     1      27.013  -7.769  38.441  1.00  0.00     0.125 C 
HETATM    6  C2  UNK     1      28.869  -6.151  37.005  1.00  0.00     0.048 A 
HETATM    7  C3  UNK     1      27.283  -8.132  36.977  1.00  0.00     0.196 C 
HETATM    8  C4  UNK     1      28.168  -7.187  36.231  1.00  0.00     0.044 C 
HETATM    9  C5  UNK     1      28.309  -5.790  38.239  1.00  0.00     0.084 A 
HETATM   10  C6  UNK     1      25.544  -8.075  38.757  1.00  0.00     0.055 C 
HETATM   11  C7  UNK     1      27.913  -8.621  39.347  1.00  0.00     0.055 C 
HETATM   12  C8  UNK     1      30.057  -5.503  36.625  1.00  0.00     0.103 A 
HETATM   13  C9  UNK     1      30.630  -4.488  37.398  1.00  0.00    -0.001 A 
HETATM   14  C10 UNK     1      28.858  -4.760  39.011  1.00  0.00     0.039 A 
HETATM   15  C11 UNK     1      30.015  -4.108  38.591  1.00  0.00     0.017 A 
HETATM   16  C13 UNK     1      31.857  -3.851  36.946  1.00  0.00     0.020 A 
HETATM   17  C14 UNK     1      32.449  -4.240  35.815  1.00  0.00     0.083 A 
HETATM   18  C15 UNK     1      31.894  -5.322  34.986  1.00  0.00     0.288 A 
ENDROOT
BRANCH   8  19
HETATM   19  C12 UNK     1      28.161  -7.284  34.893  1.00  0.00     0.098 C 
HETATM   20  N1  UNK     1      27.956  -6.296  33.993  1.00  0.00    -0.402 N 
HETATM   21  C16 UNK     1      27.934  -6.504  32.561  1.00  0.00     0.145 C 
HETATM   22  H11 UNK     1      27.787  -5.357  34.332  1.00  0.00     0.158 HD
ENDBRANCH   8  19
TORSDOF 1
ENDMDL
MODEL 4
REMARK VINA RESULT:      -7.4     22.983     24.061
REMARK  1 active torsions:
REMARK  status: ('A' for Active; 'I' for Inactive)
REMARK    1  A    between atoms: C12_17  and  C4_9 
ROOT
HETATM    1  O1  UNK     1      12.099   5.275   9.435  1.00  0.00    -0.332 OA
HETATM    2  O2  UNK     1      15.141   9.051   9.856  1.00  0.00    -0.274 OA
HETATM    3  O3  UNK     1      10.142   8.249   8.834  1.00  0.00    -0.289 OA
HETATM    4  O4  UNK     1      16.630  10.788   9.984  1.00  0.00    -0.260 OA
HETATM    5  C1  UNK     1      11.158   6.055   8.695  1.00  0.00     0.125 C 
HETATM    6  C2  UNK     1      13.546   7.217   9.730  1.00  0.00     0.048 A 
HETATM    7  C3  UNK     1      11.115   7.538   9.074  1.00  0.00     0.196 C 
HETATM    8  C4  UNK     1      12.350   8.074   9.723  1.00  0.00     0.044 C 
HETATM    9  C5  UNK     1      13.340   5.835   9.605  1.00  0.00     0.084 A 
HETATM   10  C6  UNK     1       9.789   5.433   9.000  1.00  0.00     0.055 C 
HETATM   11  C7  UNK     1      11.449   5.925   7.194  1.00  0.00     0.055 C 
HETATM   12  C8  UNK     1      14.875   7.660   9.835  1.00  0.00     0.103 A 
HETATM   13  C9  UNK     1      15.954   6.771   9.886  1.00  0.00    -0.001 A 
HETATM   14  C10 UNK     1      14.407   4.933   9.680  1.00  0.00     0.039 A 
HETATM   15  C11 UNK     1      15.712   5.399   9.823  1.00  0.00     0.017 A 
HETATM   16  C13 UNK     1      17.307   7.294  10.002  1.00  0.00     0.020 A 
HETATM   17  C14 UNK     1      17.527   8.610  10.038  1.00  0.00     0.083 A 
HETATM   18  C15 UNK     1      16.423   9.580   9.959  1.00  0.00     0.288 A 
ENDROOT
BRANCH   8  19
HETATM   19  C12 UNK     1      12.236   9.252  10.355  1.00  0.00     0.098 C 
HETATM   20  N1  UNK     1      12.341  10.490   9.823  1.00  0.00    -0.402 N 
HETATM   21  C16 UNK     1      12.236  11.709  10.595  1.00  0.00     0.145 C 
HETATM   22  H11 UNK     1      12.524  10.579   8.830  1.00  0.00     0.158 HD
ENDBRANCH   8  19
TORSDOF 1
ENDMDL
MODEL 5
REMARK VINA RESULT:      -7.0     15.022     16.302
REMARK  1 active torsions:
REMARK  status: ('A' for Active; 'I' for Inactive)
REMARK    1  A    between atoms: C12_17  and  C4_9 
ROOT
HETATM    1  O1  UNK     1      32.781  -4.724  36.914  1.00  0.00    -0.332 OA
HETATM    2  O2  UNK     1      29.396  -8.162  37.556  1.00  0.00    -0.274 OA
HETATM    3  O3  UNK     1      33.428  -7.282  34.450  1.00  0.00    -0.289 OA
HETATM    4  O4  UNK     1      27.732  -9.711  37.845  1.00  0.00    -0.260 OA
HETATM    5  C1  UNK     1      33.057  -5.176  35.587  1.00  0.00     0.125 C 
HETATM    6  C2  UNK     1      31.176  -6.531  37.246  1.00  0.00     0.048 A 
HETATM    7  C3  UNK     1      32.883  -6.683  35.375  1.00  0.00     0.196 C 
HETATM    8  C4  UNK     1      31.978  -7.371  36.344  1.00  0.00     0.044 C 
HETATM    9  C5  UNK     1      31.651  -5.236  37.500  1.00  0.00     0.084 A 
HETATM   10  C6  UNK     1      34.526  -4.813  35.333  1.00  0.00     0.055 C 
HETATM   11  C7  UNK     1      32.169  -4.419  34.590  1.00  0.00     0.055 C 
HETATM   12  C8  UNK     1      29.970  -6.904  37.864  1.00  0.00     0.103 A 
HETATM   13  C9  UNK     1      29.296  -6.060  38.751  1.00  0.00    -0.001 A 
HETATM   14  C10 UNK     1      31.000  -4.389  38.404  1.00  0.00     0.039 A 
HETATM   15  C11 UNK     1      29.827  -4.801  39.032  1.00  0.00     0.017 A 
HETATM   16  C13 UNK     1      28.055  -6.509  39.364  1.00  0.00     0.020 A 
HETATM   17  C14 UNK     1      27.546  -7.707  39.069  1.00  0.00     0.083 A 
HETATM   18  C15 UNK     1      28.208  -8.614  38.119  1.00  0.00     0.288 A 
ENDROOT
BRANCH   8  19
HETATM   19  C12 UNK     1      32.057  -8.710  36.396  1.00  0.00     0.098 C 
HETATM   20  N1  UNK     1      31.449  -9.607  35.588  1.00  0.00    -0.402 N 
HETATM   21  C16 UNK     1      31.568 -11.040  35.743  1.00  0.00     0.145 C 
HETATM   22  H11 UNK     1      30.858  -9.265  34.840  1.00  0.00     0.158 HD
ENDBRANCH   8  19
TORSDOF 1
ENDMDL
MODEL 6
REMARK VINA RESULT:      -7.0     13.356     14.842
REMARK  1 active torsions:
REMARK  status: ('A' for Active; 'I' for Inactive)
REMARK    1  A    between atoms: C12_17  and  C4_9 
ROOT
HETATM    1  O1  UNK     1      31.796  -5.882  33.540  1.00  0.00    -0.332 OA
HETATM    2  O2  UNK     1      28.909  -5.996  37.457  1.00  0.00    -0.274 OA
HETATM    3  O3  UNK     1      29.042  -8.072  32.730  1.00  0.00    -0.289 OA
HETATM    4  O4  UNK     1      27.542  -5.950  39.296  1.00  0.00    -0.260 OA
HETATM    5  C1  UNK     1      30.745  -6.349  32.693  1.00  0.00     0.125 C 
HETATM    6  C2  UNK     1      30.358  -6.063  35.502  1.00  0.00     0.048 A 
HETATM    7  C3  UNK     1      29.750  -7.297  33.370  1.00  0.00     0.196 C 
HETATM    8  C4  UNK     1      29.668  -7.191  34.858  1.00  0.00     0.044 C 
HETATM    9  C5  UNK     1      31.419  -5.479  34.796  1.00  0.00     0.084 A 
HETATM   10  C6  UNK     1      31.446  -7.107  31.558  1.00  0.00     0.055 C 
HETATM   11  C7  UNK     1      29.985  -5.152  32.107  1.00  0.00     0.055 C 
HETATM   12  C8  UNK     1      30.038  -5.509  36.754  1.00  0.00     0.103 A 
HETATM   13  C9  UNK     1      30.781  -4.467  37.318  1.00  0.00    -0.001 A 
HETATM   14  C10 UNK     1      32.187  -4.452  35.359  1.00  0.00     0.039 A 
HETATM   15  C11 UNK     1      31.870  -3.949  36.618  1.00  0.00     0.017 A 
HETATM   16  C13 UNK     1      30.402  -3.943  38.621  1.00  0.00     0.020 A 
HETATM   17  C14 UNK     1      29.343  -4.432  39.270  1.00  0.00     0.083 A 
HETATM   18  C15 UNK     1      28.519  -5.509  38.700  1.00  0.00     0.288 A 
ENDROOT
BRANCH   8  19
HETATM   19  C12 UNK     1      29.069  -8.205  35.503  1.00  0.00     0.098 C 
HETATM   20  N1  UNK     1      27.748  -8.368  35.741  1.00  0.00    -0.402 N 
HETATM   21  C16 UNK     1      27.196  -9.484  36.478  1.00  0.00     0.145 C 
HETATM   22  H11 UNK     1      27.103  -7.663  35.405  1.00  0.00     0.158 HD
ENDBRANCH   8  19
TORSDOF 1
ENDMDL
MODEL 7
REMARK VINA RESULT:      -7.0     22.757     23.749
REMARK  1 active torsions:
REMARK  status: ('A' for Active; 'I' for Inactive)
REMARK    1  A    between atoms: C12_17  and  C4_9 
ROOT
HETATM    1  O1  UNK     1      12.874  11.177  10.237  1.00  0.00    -0.332 OA
HETATM    2  O2  UNK     1      15.014   6.856   9.580  1.00  0.00    -0.274 OA
HETATM    3  O3  UNK     1      10.222   8.746   9.945  1.00  0.00    -0.289 OA
HETATM    4  O4  UNK     1      16.072   4.835   9.357  1.00  0.00    -0.260 OA
HETATM    5  C1  UNK     1      11.655  10.563  10.658  1.00  0.00     0.125 C 
HETATM    6  C2  UNK     1      13.878   8.997   9.805  1.00  0.00     0.048 A 
HETATM    7  C3  UNK     1      11.357   9.212  10.000  1.00  0.00     0.196 C 
HETATM    8  C4  UNK     1      12.544   8.481   9.461  1.00  0.00     0.044 C 
HETATM    9  C5  UNK     1      13.966  10.351  10.158  1.00  0.00     0.084 A 
HETATM   10  C6  UNK     1      10.548  11.551  10.268  1.00  0.00     0.055 C 
HETATM   11  C7  UNK     1      11.664  10.391  12.183  1.00  0.00     0.055 C 
HETATM   12  C8  UNK     1      15.068   8.249   9.826  1.00  0.00     0.103 A 
HETATM   13  C9  UNK     1      16.307   8.831  10.115  1.00  0.00    -0.001 A 
HETATM   14  C10 UNK     1      15.201  10.952  10.425  1.00  0.00     0.039 A 
HETATM   15  C11 UNK     1      16.370  10.195  10.401  1.00  0.00     0.017 A 
HETATM   16  C13 UNK     1      17.503   8.004  10.113  1.00  0.00     0.020 A 
HETATM   17  C14 UNK     1      17.426   6.696   9.861  1.00  0.00     0.083 A 
HETATM   18  C15 UNK     1      16.140   6.039   9.580  1.00  0.00     0.288 A 
ENDROOT
BRANCH   8  19
HETATM   19  C12 UNK     1      12.297   7.478   8.605  1.00  0.00     0.098 C 
HETATM   20  N1  UNK     1      12.147   6.165   8.890  1.00  0.00    -0.402 N 
HETATM   21  C16 UNK     1      11.914   5.146   7.890  1.00  0.00     0.145 C 
HETATM   22  H11 UNK     1      12.221   5.865   9.855  1.00  0.00     0.158 HD
ENDBRANCH   8  19
TORSDOF 1
ENDMDL
MODEL 8
REMARK VINA RESULT:      -6.8     14.591     16.862
REMARK  1 active torsions:
REMARK  status: ('A' for Active; 'I' for Inactive)
REMARK    1  A    between atoms: C12_17  and  C4_9 
ROOT
HETATM    1  O1  UNK     1      34.161  -6.098  34.518  1.00  0.00    -0.332 OA
HETATM    2  O2  UNK     1      30.514  -6.410  37.726  1.00  0.00    -0.274 OA
HETATM    3  O3  UNK     1      33.188  -9.573  34.641  1.00  0.00    -0.289 OA
HETATM    4  O4  UNK     1      28.746  -6.489  39.182  1.00  0.00    -0.260 OA
HETATM    5  C1  UNK     1      33.803  -7.344  33.918  1.00  0.00     0.125 C 
HETATM    6  C2  UNK     1      32.398  -6.341  36.186  1.00  0.00     0.048 A 
HETATM    7  C3  UNK     1      33.193  -8.368  34.881  1.00  0.00     0.196 C 
HETATM    8  C4  UNK     1      32.571  -7.801  36.116  1.00  0.00     0.044 C 
HETATM    9  C5  UNK     1      33.239  -5.561  35.380  1.00  0.00     0.084 A 
HETATM   10  C6  UNK     1      35.113  -7.917  33.362  1.00  0.00     0.055 C 
HETATM   11  C7  UNK     1      32.828  -7.097  32.759  1.00  0.00     0.055 C 
HETATM   12  C8  UNK     1      31.454  -5.662  36.976  1.00  0.00     0.103 A 
HETATM   13  C9  UNK     1      31.391  -4.266  37.023  1.00  0.00    -0.001 A 
HETATM   14  C10 UNK     1      33.204  -4.163  35.435  1.00  0.00     0.039 A 
HETATM   15  C11 UNK     1      32.284  -3.516  36.258  1.00  0.00     0.017 A 
HETATM   16  C13 UNK     1      30.396  -3.623  37.867  1.00  0.00     0.020 A 
HETATM   17  C14 UNK     1      29.533  -4.352  38.577  1.00  0.00     0.083 A 
HETATM   18  C15 UNK     1      29.547  -5.823  38.535  1.00  0.00     0.288 A 
ENDROOT
BRANCH   8  19
HETATM   19  C12 UNK     1      32.328  -8.660  37.118  1.00  0.00     0.098 C 
HETATM   20  N1  UNK     1      31.201  -9.374  37.340  1.00  0.00    -0.402 N 
HETATM   21  C16 UNK     1      31.018 -10.255  38.472  1.00  0.00     0.145 C 
HETATM   22  H11 UNK     1      30.429  -9.278  36.691  1.00  0.00     0.158 HD
ENDBRANCH   8  19
TORSDOF 1
ENDMDL
MODEL 9
REMARK VINA RESULT:      -6.7     23.429     25.350
REMARK  1 active torsions:
REMARK  status: ('A' for Active; 'I' for Inactive)
REMARK    1  A    between atoms: C12_17  and  C4_9 
ROOT
HETATM    1  O1  UNK     1       9.057   9.772  11.005  1.00  0.00    -0.332 OA
HETATM    2  O2  UNK     1      11.253   7.380   7.379  1.00  0.00    -0.274 OA
HETATM    3  O3  UNK     1      12.365  11.185  10.691  1.00  0.00    -0.289 OA
HETATM    4  O4  UNK     1      12.211   6.281   5.612  1.00  0.00    -0.260 OA
HETATM    5  C1  UNK     1       9.974  10.864  10.904  1.00  0.00     0.125 C 
HETATM    6  C2  UNK     1      10.251   8.547   9.266  1.00  0.00     0.048 A 
HETATM    7  C3  UNK     1      11.388  10.474  10.464  1.00  0.00     0.196 C 
HETATM    8  C4  UNK     1      11.498   9.189   9.709  1.00  0.00     0.044 C 
HETATM    9  C5  UNK     1       9.083   8.869   9.973  1.00  0.00     0.084 A 
HETATM   10  C6  UNK     1      10.048  11.462  12.314  1.00  0.00     0.055 C 
HETATM   11  C7  UNK     1       9.416  11.916   9.937  1.00  0.00     0.055 C 
HETATM   12  C8  UNK     1      10.123   7.654   8.188  1.00  0.00     0.103 A 
HETATM   13  C9  UNK     1       8.905   7.047   7.866  1.00  0.00    -0.001 A 
HETATM   14  C10 UNK     1       7.863   8.251   9.677  1.00  0.00     0.039 A 
HETATM   15  C11 UNK     1       7.774   7.339   8.628  1.00  0.00     0.017 A 
HETATM   16  C13 UNK     1       8.841   6.125   6.743  1.00  0.00     0.020 A 
HETATM   17  C14 UNK     1       9.925   5.871   6.007  1.00  0.00     0.083 A 
HETATM   18  C15 UNK     1      11.219   6.510   6.295  1.00  0.00     0.288 A 
ENDROOT
BRANCH   8  19
HETATM   19  C12 UNK     1      12.726   8.658   9.598  1.00  0.00     0.098 C 
HETATM   20  N1  UNK     1      13.112   7.397   9.895  1.00  0.00    -0.402 N 
HETATM   21  C16 UNK     1      14.473   6.923   9.773  1.00  0.00     0.145 C 
HETATM   22  H11 UNK     1      12.419   6.745  10.243  1.00  0.00     0.158 HD
ENDBRANCH   8  19
TORSDOF 1
ENDMDL
MODEL 10
REMARK VINA RESULT:      -6.6     13.602     16.388
REMARK  1 active torsions:
REMARK  status: ('A' for Active; 'I' for Inactive)
REMARK    1  A    between atoms: C12_17  and  C4_9 
ROOT
HETATM    1  O1  UNK     1      32.547  -5.054  37.252  1.00  0.00    -0.332 OA
HETATM    2  O2  UNK     1      32.884  -7.053  32.828  1.00  0.00    -0.274 OA
HETATM    3  O3  UNK     1      29.241  -6.222  36.393  1.00  0.00    -0.289 OA
HETATM    4  O4  UNK     1      33.114  -8.056  30.780  1.00  0.00    -0.260 OA
HETATM    5  C1  UNK     1      31.328  -5.748  37.526  1.00  0.00     0.125 C 
HETATM    6  C2  UNK     1      32.624  -5.980  34.997  1.00  0.00     0.048 A 
HETATM    7  C3  UNK     1      30.445  -6.000  36.299  1.00  0.00     0.196 C 
HETATM    8  C4  UNK     1      31.153  -5.996  34.983  1.00  0.00     0.044 C 
HETATM    9  C5  UNK     1      33.244  -5.477  36.150  1.00  0.00     0.084 A 
HETATM   10  C6  UNK     1      30.560  -4.849  38.503  1.00  0.00     0.055 C 
HETATM   11  C7  UNK     1      31.640  -7.087  38.208  1.00  0.00     0.055 C 
HETATM   12  C8  UNK     1      33.461  -6.440  33.966  1.00  0.00     0.103 A 
HETATM   13  C9  UNK     1      34.854  -6.341  34.040  1.00  0.00    -0.001 A 
HETATM   14  C10 UNK     1      34.636  -5.350  36.227  1.00  0.00     0.039 A 
HETATM   15  C11 UNK     1      35.440  -5.777  35.174  1.00  0.00     0.017 A 
HETATM   16  C13 UNK     1      35.666  -6.828  32.935  1.00  0.00     0.020 A 
HETATM   17  C14 UNK     1      35.094  -7.386  31.866  1.00  0.00     0.083 A 
HETATM   18  C15 UNK     1      33.634  -7.535  31.761  1.00  0.00     0.288 A 
ENDROOT
BRANCH   8  19
HETATM   19  C12 UNK     1      30.387  -5.884  33.887  1.00  0.00     0.098 C 
HETATM   20  N1  UNK     1      30.475  -4.957  32.906  1.00  0.00    -0.402 N 
HETATM   21  C16 UNK     1      29.577  -4.897  31.773  1.00  0.00     0.145 C 
HETATM   22  H11 UNK     1      31.195  -4.248  32.971  1.00  0.00     0.158 HD
ENDBRANCH   8  19
TORSDOF 1
ENDMDL
