MODEL 1
REMARK VINA RESULT:      -9.1      0.000      0.000
REMARK  6 active torsions:
REMARK  status: ('A' for Active; 'I' for Inactive)
REMARK    1  A    between atoms: C1_7  and  O1_4 
REMARK    2  A    between atoms: C4_10  and  O1_4 
REMARK    3  A    between atoms: C3_9  and  O2_5 
REMARK    4  A    between atoms: C2_8  and  C9_15 
REMARK    5  A    between atoms: C4_10  and  C6_12 
REMARK    6  A    between atoms: C10_16  and  C11_17 
ROOT
HETATM    1  N1  UNK     1      17.911   2.435  33.601  1.00  0.00    -0.191 NA
HETATM    2  C9  UNK     1      18.617   4.403  30.860  1.00  0.00     0.036 C 
HETATM    3  C10 UNK     1      18.511   3.081  31.156  1.00  0.00     0.055 C 
HETATM    4  C23 UNK     1      18.179   2.733  32.512  1.00  0.00     0.100 C 
ENDROOT
BRANCH   3   5
HETATM    5  C11 UNK     1      18.707   2.016  30.184  1.00  0.00    -0.014 A 
HETATM    6  C16 UNK     1      19.657   1.021  30.420  1.00  0.00     0.036 A 
HETATM    7  C19 UNK     1      19.843   0.001  29.487  1.00  0.00     0.034 A 
HETATM    8 Cl1  UNK     1      21.015  -1.226  29.777  1.00  0.00    -0.084 Cl
HETATM    9  C21 UNK     1      19.080  -0.026  28.320  1.00  0.00     0.024 A 
HETATM   10  C20 UNK     1      18.131   0.969  28.084  1.00  0.00     0.003 A 
HETATM   11  C17 UNK     1      17.944   1.990  29.017  1.00  0.00     0.013 A 
ENDBRANCH   3   5
BRANCH   2  12
HETATM   12  C2  UNK     1      18.421   5.512  31.806  1.00  0.00    -0.015 A 
HETATM   13  C5  UNK     1      17.118   5.783  32.204  1.00  0.00     0.052 A 
HETATM   14  C3  UNK     1      16.873   6.822  33.101  1.00  0.00     0.102 A 
HETATM   15  C1  UNK     1      17.934   7.582  33.593  1.00  0.00     0.103 A 
HETATM   16  C7  UNK     1      19.240   7.303  33.188  1.00  0.00     0.059 A 
HETATM   17  C8  UNK     1      19.483   6.263  32.291  1.00  0.00     0.024 A 
HETATM   18 Br1  UNK     1      21.285   5.935  31.781  1.00  0.00    -0.050 Br
BRANCH  14  19
HETATM   19  O2  UNK     1      15.594   7.086  33.489  1.00  0.00    -0.353 OA
HETATM   20  C22 UNK     1      14.647   7.354  32.458  1.00  0.00     0.210 C 
ENDBRANCH  14  19
BRANCH  15  21
HETATM   21  O1  UNK     1      17.709   8.601  34.469  1.00  0.00    -0.344 OA
BRANCH  21  22
HETATM   22  C4  UNK     1      17.707   9.924  33.938  1.00  0.00     0.214 C 
BRANCH  22  23
HETATM   23  C6  UNK     1      16.550  10.683  34.519  1.00  0.00    -0.034 A 
HETATM   24  C12 UNK     1      16.604  12.071  34.593  1.00  0.00     0.011 A 
HETATM   25  C14 UNK     1      15.528  12.776  35.132  1.00  0.00     0.019 A 
HETATM   26  C18 UNK     1      14.405  12.090  35.594  1.00  0.00     0.011 A 
HETATM   27 Br2  UNK     1      12.947  13.046  36.324  1.00  0.00    -0.051 Br
HETATM   28  C15 UNK     1      14.358  10.698  35.517  1.00  0.00     0.019 A 
HETATM   29  C13 UNK     1      15.434   9.993  34.978  1.00  0.00     0.011 A 
ENDBRANCH  22  23
ENDBRANCH  21  22
ENDBRANCH  15  21
ENDBRANCH   2  12
TORSDOF 6
ENDMDL
MODEL 2
REMARK VINA RESULT:      -8.6     18.322     20.239
REMARK  6 active torsions:
REMARK  status: ('A' for Active; 'I' for Inactive)
REMARK    1  A    between atoms: C1_7  and  O1_4 
REMARK    2  A    between atoms: C4_10  and  O1_4 
REMARK    3  A    between atoms: C3_9  and  O2_5 
REMARK    4  A    between atoms: C2_8  and  C9_15 
REMARK    5  A    between atoms: C4_10  and  C6_12 
REMARK    6  A    between atoms: C10_16  and  C11_17 
ROOT
HETATM    1  N1  UNK     1      27.269 -10.327  39.786  1.00  0.00    -0.191 NA
HETATM    2  C9  UNK     1      27.449  -8.855  36.673  1.00  0.00     0.036 C 
HETATM    3  C10 UNK     1      26.627  -9.705  37.345  1.00  0.00     0.055 C 
HETATM    4  C23 UNK     1      26.991 -10.044  38.695  1.00  0.00     0.100 C 
ENDROOT
BRANCH   3   5
HETATM    5  C11 UNK     1      25.414 -10.274  36.778  1.00  0.00    -0.014 A 
HETATM    6  C16 UNK     1      24.261  -9.496  36.671  1.00  0.00     0.036 A 
HETATM    7  C19 UNK     1      23.099 -10.043  36.127  1.00  0.00     0.034 A 
HETATM    8 Cl1  UNK     1      21.676  -9.084  35.995  1.00  0.00    -0.084 Cl
HETATM    9  C21 UNK     1      23.090 -11.368  35.691  1.00  0.00     0.024 A 
HETATM   10  C20 UNK     1      24.242 -12.146  35.799  1.00  0.00     0.003 A 
HETATM   11  C17 UNK     1      25.405 -11.599  36.342  1.00  0.00     0.013 A 
ENDBRANCH   3   5
BRANCH   2  12
HETATM   12  C2  UNK     1      28.679  -8.252  37.207  1.00  0.00    -0.015 A 
HETATM   13  C5  UNK     1      29.880  -8.869  36.884  1.00  0.00     0.052 A 
HETATM   14  C3  UNK     1      31.078  -8.339  37.361  1.00  0.00     0.102 A 
HETATM   15  C1  UNK     1      31.065  -7.195  38.159  1.00  0.00     0.103 A 
HETATM   16  C7  UNK     1      29.854  -6.581  38.478  1.00  0.00     0.059 A 
HETATM   17  C8  UNK     1      28.656  -7.112  38.000  1.00  0.00     0.024 A 
HETATM   18 Br1  UNK     1      27.041  -6.226  38.471  1.00  0.00    -0.050 Br
BRANCH  14  19
HETATM   19  O2  UNK     1      32.255  -8.948  37.043  1.00  0.00    -0.353 OA
HETATM   20  C22 UNK     1      32.549  -9.104  35.657  1.00  0.00     0.210 C 
ENDBRANCH  14  19
BRANCH  15  21
HETATM   21  O1  UNK     1      32.228  -6.668  38.633  1.00  0.00    -0.344 OA
BRANCH  21  22
HETATM   22  C4  UNK     1      32.637  -5.411  38.097  1.00  0.00     0.214 C 
BRANCH  22  23
HETATM   23  C6  UNK     1      33.386  -5.644  36.818  1.00  0.00    -0.034 A 
HETATM   24  C12 UNK     1      32.808  -5.285  35.605  1.00  0.00     0.011 A 
HETATM   25  C14 UNK     1      33.506  -5.500  34.417  1.00  0.00     0.019 A 
HETATM   26  C18 UNK     1      34.777  -6.073  34.448  1.00  0.00     0.011 A 
HETATM   27 Br2  UNK     1      35.722  -6.364  32.838  1.00  0.00    -0.051 Br
HETATM   28  C15 UNK     1      35.351  -6.431  35.669  1.00  0.00     0.019 A 
HETATM   29  C13 UNK     1      34.653  -6.215  36.857  1.00  0.00     0.011 A 
ENDBRANCH  22  23
ENDBRANCH  21  22
ENDBRANCH  15  21
ENDBRANCH   2  12
TORSDOF 6
ENDMDL
MODEL 3
REMARK VINA RESULT:      -8.5      6.226      7.931
REMARK  6 active torsions:
REMARK  status: ('A' for Active; 'I' for Inactive)
REMARK    1  A    between atoms: C1_7  and  O1_4 
REMARK    2  A    between atoms: C4_10  and  O1_4 
REMARK    3  A    between atoms: C3_9  and  O2_5 
REMARK    4  A    between atoms: C2_8  and  C9_15 
REMARK    5  A    between atoms: C4_10  and  C6_12 
REMARK    6  A    between atoms: C10_16  and  C11_17 
ROOT
HETATM    1  N1  UNK     1      21.929  -1.689  35.344  1.00  0.00    -0.191 NA
HETATM    2  C9  UNK     1      18.584  -2.275  35.937  1.00  0.00     0.036 C 
HETATM    3  C10 UNK     1      19.773  -2.902  36.141  1.00  0.00     0.055 C 
HETATM    4  C23 UNK     1      20.961  -2.223  35.695  1.00  0.00     0.100 C 
ENDROOT
BRANCH   3   5
HETATM    5  C11 UNK     1      19.903  -4.201  36.783  1.00  0.00    -0.014 A 
HETATM    6  C16 UNK     1      21.051  -4.507  37.515  1.00  0.00     0.036 A 
HETATM    7  C19 UNK     1      21.174  -5.753  38.129  1.00  0.00     0.034 A 
HETATM    8 Cl1  UNK     1      22.589  -6.131  39.032  1.00  0.00    -0.084 Cl
HETATM    9  C21 UNK     1      20.150  -6.693  38.012  1.00  0.00     0.024 A 
HETATM   10  C20 UNK     1      19.003  -6.387  37.280  1.00  0.00     0.003 A 
HETATM   11  C17 UNK     1      18.879  -5.141  36.665  1.00  0.00     0.013 A 
ENDBRANCH   3   5
BRANCH   2  12
HETATM   12  C2  UNK     1      18.406  -0.961  35.301  1.00  0.00    -0.015 A 
HETATM   13  C5  UNK     1      18.616  -0.888  33.930  1.00  0.00     0.052 A 
HETATM   14  C3  UNK     1      18.460   0.332  33.273  1.00  0.00     0.102 A 
HETATM   15  C1  UNK     1      18.095   1.470  33.993  1.00  0.00     0.103 A 
HETATM   16  C7  UNK     1      17.885   1.386  35.370  1.00  0.00     0.059 A 
HETATM   17  C8  UNK     1      18.041   0.165  36.026  1.00  0.00     0.024 A 
HETATM   18 Br1  UNK     1      17.741   0.121  37.903  1.00  0.00    -0.050 Br
BRANCH  14  19
HETATM   19  O2  UNK     1      18.667   0.402  31.928  1.00  0.00    -0.353 OA
HETATM   20  C22 UNK     1      19.564  -0.550  31.362  1.00  0.00     0.210 C 
ENDBRANCH  14  19
BRANCH  15  21
HETATM   21  O1  UNK     1      17.940   2.668  33.364  1.00  0.00    -0.344 OA
BRANCH  21  22
HETATM   22  C4  UNK     1      18.639   3.784  33.912  1.00  0.00     0.214 C 
BRANCH  22  23
HETATM   23  C6  UNK     1      17.899   5.043  33.566  1.00  0.00    -0.034 A 
HETATM   24  C12 UNK     1      17.560   5.941  34.573  1.00  0.00     0.011 A 
HETATM   25  C14 UNK     1      16.874   7.112  34.250  1.00  0.00     0.019 A 
HETATM   26  C18 UNK     1      16.531   7.377  32.925  1.00  0.00     0.011 A 
HETATM   27 Br2  UNK     1      15.602   8.964  32.489  1.00  0.00    -0.051 Br
HETATM   28  C15 UNK     1      16.875   6.472  31.921  1.00  0.00     0.019 A 
HETATM   29  C13 UNK     1      17.561   5.301  32.243  1.00  0.00     0.011 A 
ENDBRANCH  22  23
ENDBRANCH  21  22
ENDBRANCH  15  21
ENDBRANCH   2  12
TORSDOF 6
ENDMDL
MODEL 4
REMARK VINA RESULT:      -8.5      4.250     10.207
REMARK  6 active torsions:
REMARK  status: ('A' for Active; 'I' for Inactive)
REMARK    1  A    between atoms: C1_7  and  O1_4 
REMARK    2  A    between atoms: C4_10  and  O1_4 
REMARK    3  A    between atoms: C3_9  and  O2_5 
REMARK    4  A    between atoms: C2_8  and  C9_15 
REMARK    5  A    between atoms: C4_10  and  C6_12 
REMARK    6  A    between atoms: C10_16  and  C11_17 
ROOT
HETATM    1  N1  UNK     1      15.377   6.680  32.297  1.00  0.00    -0.191 NA
HETATM    2  C9  UNK     1      18.773   6.559  32.876  1.00  0.00     0.036 C 
HETATM    3  C10 UNK     1      17.756   7.452  33.005  1.00  0.00     0.055 C 
HETATM    4  C23 UNK     1      16.443   7.016  32.610  1.00  0.00     0.100 C 
ENDROOT
BRANCH   3   5
HETATM    5  C11 UNK     1      17.924   8.802  33.519  1.00  0.00    -0.014 A 
HETATM    6  C16 UNK     1      16.813   9.631  33.683  1.00  0.00     0.036 A 
HETATM    7  C19 UNK     1      16.976  10.925  34.176  1.00  0.00     0.034 A 
HETATM    8 Cl1  UNK     1      15.607  11.948  34.378  1.00  0.00    -0.084 Cl
HETATM    9  C21 UNK     1      18.249  11.391  34.506  1.00  0.00     0.024 A 
HETATM   10  C20 UNK     1      19.359  10.564  34.342  1.00  0.00     0.003 A 
HETATM   11  C17 UNK     1      19.197   9.268  33.848  1.00  0.00     0.013 A 
ENDBRANCH   3   5
BRANCH   2  12
HETATM   12  C2  UNK     1      18.649   5.185  32.369  1.00  0.00    -0.015 A 
HETATM   13  C5  UNK     1      18.202   4.218  33.261  1.00  0.00     0.052 A 
HETATM   14  C3  UNK     1      18.064   2.898  32.834  1.00  0.00     0.102 A 
HETATM   15  C1  UNK     1      18.375   2.555  31.518  1.00  0.00     0.103 A 
HETATM   16  C7  UNK     1      18.824   3.532  30.629  1.00  0.00     0.059 A 
HETATM   17  C8  UNK     1      18.961   4.853  31.058  1.00  0.00     0.024 A 
HETATM   18 Br1  UNK     1      19.577   6.135  29.796  1.00  0.00    -0.050 Br
BRANCH  14  19
HETATM   19  O2  UNK     1      17.625   1.952  33.710  1.00  0.00    -0.353 OA
HETATM   20  C22 UNK     1      18.216   1.948  35.008  1.00  0.00     0.210 C 
ENDBRANCH  14  19
BRANCH  15  21
HETATM   21  O1  UNK     1      18.246   1.269  31.089  1.00  0.00    -0.344 OA
BRANCH  21  22
HETATM   22  C4  UNK     1      19.142   0.832  30.070  1.00  0.00     0.214 C 
BRANCH  22  23
HETATM   23  C6  UNK     1      19.746  -0.479  30.478  1.00  0.00    -0.034 A 
HETATM   24  C12 UNK     1      19.702  -0.873  31.812  1.00  0.00     0.011 A 
HETATM   25  C14 UNK     1      20.263  -2.092  32.191  1.00  0.00     0.019 A 
HETATM   26  C18 UNK     1      20.864  -2.911  31.235  1.00  0.00     0.011 A 
HETATM   27 Br2  UNK     1      21.623  -4.564  31.749  1.00  0.00    -0.051 Br
HETATM   28  C15 UNK     1      20.905  -2.510  29.900  1.00  0.00     0.019 A 
HETATM   29  C13 UNK     1      20.344  -1.291  29.520  1.00  0.00     0.011 A 
ENDBRANCH  22  23
ENDBRANCH  21  22
ENDBRANCH  15  21
ENDBRANCH   2  12
TORSDOF 6
ENDMDL
MODEL 5
REMARK VINA RESULT:      -8.4      7.647     10.226
REMARK  6 active torsions:
REMARK  status: ('A' for Active; 'I' for Inactive)
REMARK    1  A    between atoms: C1_7  and  O1_4 
REMARK    2  A    between atoms: C4_10  and  O1_4 
REMARK    3  A    between atoms: C3_9  and  O2_5 
REMARK    4  A    between atoms: C2_8  and  C9_15 
REMARK    5  A    between atoms: C4_10  and  C6_12 
REMARK    6  A    between atoms: C10_16  and  C11_17 
ROOT
HETATM    1  N1  UNK     1      17.568  -5.314  36.434  1.00  0.00    -0.191 NA
HETATM    2  C9  UNK     1      20.531  -3.579  36.745  1.00  0.00     0.036 C 
HETATM    3  C10 UNK     1      20.007  -4.767  37.149  1.00  0.00     0.055 C 
HETATM    4  C23 UNK     1      18.655  -5.060  36.749  1.00  0.00     0.100 C 
ENDROOT
BRANCH   3   5
HETATM    5  C11 UNK     1      20.732  -5.742  37.948  1.00  0.00    -0.014 A 
HETATM    6  C16 UNK     1      20.115  -6.938  38.320  1.00  0.00     0.036 A 
HETATM    7  C19 UNK     1      20.812  -7.873  39.085  1.00  0.00     0.034 A 
HETATM    8 Cl1  UNK     1      20.052  -9.347  39.545  1.00  0.00    -0.084 Cl
HETATM    9  C21 UNK     1      22.125  -7.612  39.479  1.00  0.00     0.024 A 
HETATM   10  C20 UNK     1      22.741  -6.418  39.108  1.00  0.00     0.003 A 
HETATM   11  C17 UNK     1      22.044  -5.482  38.342  1.00  0.00     0.013 A 
ENDBRANCH   3   5
BRANCH   2  12
HETATM   12  C2  UNK     1      19.839  -2.568  35.933  1.00  0.00    -0.015 A 
HETATM   13  C5  UNK     1      20.134  -2.534  34.576  1.00  0.00     0.052 A 
HETATM   14  C3  UNK     1      19.506  -1.596  33.758  1.00  0.00     0.102 A 
HETATM   15  C1  UNK     1      18.588  -0.699  34.303  1.00  0.00     0.103 A 
HETATM   16  C7  UNK     1      18.297  -0.740  35.667  1.00  0.00     0.059 A 
HETATM   17  C8  UNK     1      18.926  -1.679  36.485  1.00  0.00     0.024 A 
HETATM   18 Br1  UNK     1      18.485  -1.682  38.334  1.00  0.00    -0.050 Br
BRANCH  14  19
HETATM   19  O2  UNK     1      19.798  -1.565  32.427  1.00  0.00    -0.353 OA
HETATM   20  C22 UNK     1      20.908  -2.345  31.989  1.00  0.00     0.210 C 
ENDBRANCH  14  19
BRANCH  15  21
HETATM   21  O1  UNK     1      17.968   0.223  33.514  1.00  0.00    -0.344 OA
BRANCH  21  22
HETATM   22  C4  UNK     1      17.715   1.503  34.090  1.00  0.00     0.214 C 
BRANCH  22  23
HETATM   23  C6  UNK     1      18.102   2.567  33.106  1.00  0.00    -0.034 A 
HETATM   24  C12 UNK     1      18.187   3.892  33.522  1.00  0.00     0.011 A 
HETATM   25  C14 UNK     1      18.548   4.881  32.607  1.00  0.00     0.019 A 
HETATM   26  C18 UNK     1      18.823   4.541  31.283  1.00  0.00     0.011 A 
HETATM   27 Br2  UNK     1      19.313   5.881  30.044  1.00  0.00    -0.051 Br
HETATM   28  C15 UNK     1      18.736   3.210  30.873  1.00  0.00     0.019 A 
HETATM   29  C13 UNK     1      18.374   2.221  31.787  1.00  0.00     0.011 A 
ENDBRANCH  22  23
ENDBRANCH  21  22
ENDBRANCH  15  21
ENDBRANCH   2  12
TORSDOF 6
ENDMDL
MODEL 6
REMARK VINA RESULT:      -8.4      2.186      2.707
REMARK  6 active torsions:
REMARK  status: ('A' for Active; 'I' for Inactive)
REMARK    1  A    between atoms: C1_7  and  O1_4 
REMARK    2  A    between atoms: C4_10  and  O1_4 
REMARK    3  A    between atoms: C3_9  and  O2_5 
REMARK    4  A    between atoms: C2_8  and  C9_15 
REMARK    5  A    between atoms: C4_10  and  C6_12 
REMARK    6  A    between atoms: C10_16  and  C11_17 
ROOT
HETATM    1  N1  UNK     1      20.037   6.202  29.771  1.00  0.00    -0.191 NA
HETATM    2  C9  UNK     1      17.820   4.771  31.990  1.00  0.00     0.036 C 
HETATM    3  C10 UNK     1      18.572   4.390  30.923  1.00  0.00     0.055 C 
HETATM    4  C23 UNK     1      19.379   5.400  30.291  1.00  0.00     0.100 C 
ENDROOT
BRANCH   3   5
HETATM    5  C11 UNK     1      18.606   3.033  30.400  1.00  0.00    -0.014 A 
HETATM    6  C16 UNK     1      19.041   1.983  31.209  1.00  0.00     0.036 A 
HETATM    7  C19 UNK     1      19.073   0.682  30.706  1.00  0.00     0.034 A 
HETATM    8 Cl1  UNK     1      19.610  -0.613  31.702  1.00  0.00    -0.084 Cl
HETATM    9  C21 UNK     1      18.669   0.432  29.394  1.00  0.00     0.024 A 
HETATM   10  C20 UNK     1      18.234   1.482  28.586  1.00  0.00     0.003 A 
HETATM   11  C17 UNK     1      18.202   2.783  29.089  1.00  0.00     0.013 A 
ENDBRANCH   3   5
BRANCH   2  12
HETATM   12  C2  UNK     1      17.760   6.126  32.557  1.00  0.00    -0.015 A 
HETATM   13  C5  UNK     1      16.734   6.952  32.116  1.00  0.00     0.052 A 
HETATM   14  C3  UNK     1      16.628   8.248  32.620  1.00  0.00     0.102 A 
HETATM   15  C1  UNK     1      17.549   8.707  33.561  1.00  0.00     0.103 A 
HETATM   16  C7  UNK     1      18.576   7.871  33.999  1.00  0.00     0.059 A 
HETATM   17  C8  UNK     1      18.681   6.575  33.494  1.00  0.00     0.024 A 
HETATM   18 Br1  UNK     1      20.104   5.486  34.132  1.00  0.00    -0.050 Br
BRANCH  14  19
HETATM   19  O2  UNK     1      15.621   9.057  32.185  1.00  0.00    -0.353 OA
HETATM   20  C22 UNK     1      14.380   8.977  32.883  1.00  0.00     0.210 C 
ENDBRANCH  14  19
BRANCH  15  21
HETATM   21  O1  UNK     1      17.457   9.971  34.061  1.00  0.00    -0.344 OA
BRANCH  21  22
HETATM   22  C4  UNK     1      18.589  10.821  33.889  1.00  0.00     0.214 C 
BRANCH  22  23
HETATM   23  C6  UNK     1      18.158  12.249  34.053  1.00  0.00    -0.034 A 
HETATM   24  C12 UNK     1      17.199  12.574  35.007  1.00  0.00     0.011 A 
HETATM   25  C14 UNK     1      16.800  13.902  35.160  1.00  0.00     0.019 A 
HETATM   26  C18 UNK     1      17.363  14.896  34.360  1.00  0.00     0.011 A 
HETATM   27 Br2  UNK     1      16.823  16.695  34.570  1.00  0.00    -0.051 Br
HETATM   28  C15 UNK     1      18.325  14.563  33.406  1.00  0.00     0.019 A 
HETATM   29  C13 UNK     1      18.723  13.236  33.253  1.00  0.00     0.011 A 
ENDBRANCH  22  23
ENDBRANCH  21  22
ENDBRANCH  15  21
ENDBRANCH   2  12
TORSDOF 6
ENDMDL
MODEL 7
REMARK VINA RESULT:      -8.2     17.266     19.000
REMARK  6 active torsions:
REMARK  status: ('A' for Active; 'I' for Inactive)
REMARK    1  A    between atoms: C1_7  and  O1_4 
REMARK    2  A    between atoms: C4_10  and  O1_4 
REMARK    3  A    between atoms: C3_9  and  O2_5 
REMARK    4  A    between atoms: C2_8  and  C9_15 
REMARK    5  A    between atoms: C4_10  and  C6_12 
REMARK    6  A    between atoms: C10_16  and  C11_17 
ROOT
HETATM    1  N1  UNK     1      29.414  -6.196  34.662  1.00  0.00    -0.191 NA
HETATM    2  C9  UNK     1      30.866  -6.939  37.700  1.00  0.00     0.036 C 
HETATM    3  C10 UNK     1      31.257  -6.523  36.466  1.00  0.00     0.055 C 
HETATM    4  C23 UNK     1      30.230  -6.345  35.474  1.00  0.00     0.100 C 
ENDROOT
BRANCH   3   5
HETATM    5  C11 UNK     1      32.639  -6.247  36.105  1.00  0.00    -0.014 A 
HETATM    6  C16 UNK     1      32.964  -5.067  35.435  1.00  0.00     0.036 A 
HETATM    7  C19 UNK     1      34.290  -4.804  35.090  1.00  0.00     0.034 A 
HETATM    8 Cl1  UNK     1      34.692  -3.349  34.264  1.00  0.00    -0.084 Cl
HETATM    9  C21 UNK     1      35.290  -5.720  35.414  1.00  0.00     0.024 A 
HETATM   10  C20 UNK     1      34.965  -6.900  36.083  1.00  0.00     0.003 A 
HETATM   11  C17 UNK     1      33.639  -7.164  36.429  1.00  0.00     0.013 A 
ENDBRANCH   3   5
BRANCH   2  12
HETATM   12  C2  UNK     1      29.483  -7.222  38.110  1.00  0.00    -0.015 A 
HETATM   13  C5  UNK     1      28.994  -8.496  37.852  1.00  0.00     0.052 A 
HETATM   14  C3  UNK     1      27.689  -8.822  38.222  1.00  0.00     0.102 A 
HETATM   15  C1  UNK     1      26.884  -7.869  38.846  1.00  0.00     0.103 A 
HETATM   16  C7  UNK     1      27.383  -6.592  39.101  1.00  0.00     0.059 A 
HETATM   17  C8  UNK     1      28.689  -6.268  38.732  1.00  0.00     0.024 A 
HETATM   18 Br1  UNK     1      29.307  -4.510  39.109  1.00  0.00    -0.050 Br
BRANCH  14  19
HETATM   19  O2  UNK     1      27.212 -10.072  37.967  1.00  0.00    -0.353 OA
HETATM   20  C22 UNK     1      26.499 -10.256  36.746  1.00  0.00     0.210 C 
ENDBRANCH  14  19
BRANCH  15  21
HETATM   21  O1  UNK     1      25.607  -8.173  39.210  1.00  0.00    -0.344 OA
BRANCH  21  22
HETATM   22  C4  UNK     1      24.583  -7.268  38.805  1.00  0.00     0.214 C 
BRANCH  22  23
HETATM   23  C6  UNK     1      23.306  -8.030  38.607  1.00  0.00    -0.034 A 
HETATM   24  C12 UNK     1      23.025  -8.594  37.367  1.00  0.00     0.011 A 
HETATM   25  C14 UNK     1      21.838  -9.303  37.184  1.00  0.00     0.019 A 
HETATM   26  C18 UNK     1      20.939  -9.444  38.241  1.00  0.00     0.011 A 
HETATM   27 Br2  UNK     1      19.331 -10.406  37.993  1.00  0.00    -0.051 Br
HETATM   28  C15 UNK     1      21.227  -8.876  39.482  1.00  0.00     0.019 A 
HETATM   29  C13 UNK     1      22.414  -8.167  39.665  1.00  0.00     0.011 A 
ENDBRANCH  22  23
ENDBRANCH  21  22
ENDBRANCH  15  21
ENDBRANCH   2  12
TORSDOF 6
ENDMDL
MODEL 8
REMARK VINA RESULT:      -8.2     17.702     19.990
REMARK  6 active torsions:
REMARK  status: ('A' for Active; 'I' for Inactive)
REMARK    1  A    between atoms: C1_7  and  O1_4 
REMARK    2  A    between atoms: C4_10  and  O1_4 
REMARK    3  A    between atoms: C3_9  and  O2_5 
REMARK    4  A    between atoms: C2_8  and  C9_15 
REMARK    5  A    between atoms: C4_10  and  C6_12 
REMARK    6  A    between atoms: C10_16  and  C11_17 
ROOT
HETATM    1  N1  UNK     1      27.415 -10.244  39.645  1.00  0.00    -0.191 NA
HETATM    2  C9  UNK     1      27.475  -8.836  36.499  1.00  0.00     0.036 C 
HETATM    3  C10 UNK     1      26.690  -9.687  37.212  1.00  0.00     0.055 C 
HETATM    4  C23 UNK     1      27.100  -9.990  38.558  1.00  0.00     0.100 C 
ENDROOT
BRANCH   3   5
HETATM    5  C11 UNK     1      25.472 -10.291  36.694  1.00  0.00    -0.014 A 
HETATM    6  C16 UNK     1      24.298  -9.541  36.618  1.00  0.00     0.036 A 
HETATM    7  C19 UNK     1      23.131 -10.122  36.120  1.00  0.00     0.034 A 
HETATM    8 Cl1  UNK     1      21.683  -9.198  36.026  1.00  0.00    -0.084 Cl
HETATM    9  C21 UNK     1      23.139 -11.452  35.700  1.00  0.00     0.024 A 
HETATM   10  C20 UNK     1      24.312 -12.202  35.776  1.00  0.00     0.003 A 
HETATM   11  C17 UNK     1      25.480 -11.621  36.274  1.00  0.00     0.013 A 
ENDBRANCH   3   5
BRANCH   2  12
HETATM   12  C2  UNK     1      28.708  -8.198  36.983  1.00  0.00    -0.015 A 
HETATM   13  C5  UNK     1      28.566  -7.121  37.849  1.00  0.00     0.052 A 
HETATM   14  C3  UNK     1      29.701  -6.478  38.340  1.00  0.00     0.102 A 
HETATM   15  C1  UNK     1      30.970  -6.917  37.961  1.00  0.00     0.103 A 
HETATM   16  C7  UNK     1      31.103  -7.999  37.091  1.00  0.00     0.059 A 
HETATM   17  C8  UNK     1      29.966  -8.642  36.600  1.00  0.00     0.024 A 
HETATM   18 Br1  UNK     1      30.218 -10.110  35.419  1.00  0.00    -0.050 Br
BRANCH  14  19
HETATM   19  O2  UNK     1      29.559  -5.422  39.189  1.00  0.00    -0.353 OA
HETATM   20  C22 UNK     1      28.696  -4.367  38.771  1.00  0.00     0.210 C 
ENDBRANCH  14  19
BRANCH  15  21
HETATM   21  O1  UNK     1      32.087  -6.297  38.433  1.00  0.00    -0.344 OA
BRANCH  21  22
HETATM   22  C4  UNK     1      32.511  -5.117  37.753  1.00  0.00     0.214 C 
BRANCH  22  23
HETATM   23  C6  UNK     1      33.387  -5.506  36.599  1.00  0.00    -0.034 A 
HETATM   24  C12 UNK     1      32.969  -5.245  35.298  1.00  0.00     0.011 A 
HETATM   25  C14 UNK     1      33.785  -5.605  34.225  1.00  0.00     0.019 A 
HETATM   26  C18 UNK     1      35.013  -6.223  34.459  1.00  0.00     0.011 A 
HETATM   27 Br2  UNK     1      36.118  -6.710  33.006  1.00  0.00    -0.051 Br
HETATM   28  C15 UNK     1      35.426  -6.481  35.767  1.00  0.00     0.019 A 
HETATM   29  C13 UNK     1      34.611  -6.121  36.839  1.00  0.00     0.011 A 
ENDBRANCH  22  23
ENDBRANCH  21  22
ENDBRANCH  15  21
ENDBRANCH   2  12
TORSDOF 6
ENDMDL
MODEL 9
REMARK VINA RESULT:      -8.1      7.437     12.047
REMARK  6 active torsions:
REMARK  status: ('A' for Active; 'I' for Inactive)
REMARK    1  A    between atoms: C1_7  and  O1_4 
REMARK    2  A    between atoms: C4_10  and  O1_4 
REMARK    3  A    between atoms: C3_9  and  O2_5 
REMARK    4  A    between atoms: C2_8  and  C9_15 
REMARK    5  A    between atoms: C4_10  and  C6_12 
REMARK    6  A    between atoms: C10_16  and  C11_17 
ROOT
HETATM    1  N1  UNK     1      20.176   2.735  36.458  1.00  0.00    -0.191 NA
HETATM    2  C9  UNK     1      17.949   1.405  34.187  1.00  0.00     0.036 C 
HETATM    3  C10 UNK     1      18.512   2.611  34.463  1.00  0.00     0.055 C 
HETATM    4  C23 UNK     1      19.431   2.670  35.570  1.00  0.00     0.100 C 
ENDROOT
BRANCH   3   5
HETATM    5  C11 UNK     1      18.243   3.823  33.707  1.00  0.00    -0.014 A 
HETATM    6  C16 UNK     1      18.033   5.031  34.374  1.00  0.00     0.036 A 
HETATM    7  C19 UNK     1      17.776   6.193  33.646  1.00  0.00     0.034 A 
HETATM    8 Cl1  UNK     1      17.516   7.683  34.468  1.00  0.00    -0.084 Cl
HETATM    9  C21 UNK     1      17.727   6.148  32.253  1.00  0.00     0.024 A 
HETATM   10  C20 UNK     1      17.936   4.941  31.586  1.00  0.00     0.003 A 
HETATM   11  C17 UNK     1      18.194   3.778  32.313  1.00  0.00     0.013 A 
ENDBRANCH   3   5
BRANCH   2  12
HETATM   12  C2  UNK     1      18.196   0.154  34.919  1.00  0.00    -0.015 A 
HETATM   13  C5  UNK     1      19.099  -0.740  34.358  1.00  0.00     0.052 A 
HETATM   14  C3  UNK     1      19.373  -1.942  35.009  1.00  0.00     0.102 A 
HETATM   15  C1  UNK     1      18.742  -2.240  36.217  1.00  0.00     0.103 A 
HETATM   16  C7  UNK     1      17.837  -1.335  36.773  1.00  0.00     0.059 A 
HETATM   17  C8  UNK     1      17.564  -0.133  36.121  1.00  0.00     0.024 A 
HETATM   18 Br1  UNK     1      16.321   1.055  36.933  1.00  0.00    -0.050 Br
BRANCH  14  19
HETATM   19  O2  UNK     1      20.258  -2.818  34.457  1.00  0.00    -0.353 OA
HETATM   20  C22 UNK     1      20.634  -2.589  33.100  1.00  0.00     0.210 C 
ENDBRANCH  14  19
BRANCH  15  21
HETATM   21  O1  UNK     1      19.000  -3.411  36.863  1.00  0.00    -0.344 OA
BRANCH  21  22
HETATM   22  C4  UNK     1      20.305  -3.574  37.415  1.00  0.00     0.214 C 
BRANCH  22  23
HETATM   23  C6  UNK     1      20.719  -5.009  37.277  1.00  0.00    -0.034 A 
HETATM   24  C12 UNK     1      21.654  -5.544  38.157  1.00  0.00     0.011 A 
HETATM   25  C14 UNK     1      22.038  -6.879  38.029  1.00  0.00     0.019 A 
HETATM   26  C18 UNK     1      21.485  -7.671  37.023  1.00  0.00     0.011 A 
HETATM   27 Br2  UNK     1      22.005  -9.480  36.851  1.00  0.00    -0.051 Br
HETATM   28  C15 UNK     1      20.547  -7.128  36.144  1.00  0.00     0.019 A 
HETATM   29  C13 UNK     1      20.164  -5.793  36.272  1.00  0.00     0.011 A 
ENDBRANCH  22  23
ENDBRANCH  21  22
ENDBRANCH  15  21
ENDBRANCH   2  12
TORSDOF 6
ENDMDL
MODEL 10
REMARK VINA RESULT:      -8.0     17.294     18.775
REMARK  6 active torsions:
REMARK  status: ('A' for Active; 'I' for Inactive)
REMARK    1  A    between atoms: C1_7  and  O1_4 
REMARK    2  A    between atoms: C4_10  and  O1_4 
REMARK    3  A    between atoms: C3_9  and  O2_5 
REMARK    4  A    between atoms: C2_8  and  C9_15 
REMARK    5  A    between atoms: C4_10  and  C6_12 
REMARK    6  A    between atoms: C10_16  and  C11_17 
ROOT
HETATM    1  N1  UNK     1      29.009  -6.223  34.166  1.00  0.00    -0.191 NA
HETATM    2  C9  UNK     1      30.738  -6.646  37.118  1.00  0.00     0.036 C 
HETATM    3  C10 UNK     1      31.002  -6.289  35.833  1.00  0.00     0.055 C 
HETATM    4  C23 UNK     1      29.893  -6.256  34.917  1.00  0.00     0.100 C 
ENDROOT
BRANCH   3   5
HETATM    5  C11 UNK     1      32.327  -5.939  35.347  1.00  0.00    -0.014 A 
HETATM    6  C16 UNK     1      32.988  -6.781  34.451  1.00  0.00     0.036 A 
HETATM    7  C19 UNK     1      34.259  -6.443  33.985  1.00  0.00     0.034 A 
HETATM    8 Cl1  UNK     1      35.074  -7.481  32.881  1.00  0.00    -0.084 Cl
HETATM    9  C21 UNK     1      34.868  -5.264  34.414  1.00  0.00     0.024 A 
HETATM   10  C20 UNK     1      34.208  -4.422  35.309  1.00  0.00     0.003 A 
HETATM   11  C17 UNK     1      32.937  -4.760  35.775  1.00  0.00     0.013 A 
ENDBRANCH   3   5
BRANCH   2  12
HETATM   12  C2  UNK     1      29.416  -7.001  37.655  1.00  0.00    -0.015 A 
HETATM   13  C5  UNK     1      28.957  -8.288  37.408  1.00  0.00     0.052 A 
HETATM   14  C3  UNK     1      27.710  -8.680  37.895  1.00  0.00     0.102 A 
HETATM   15  C1  UNK     1      26.933  -7.781  38.624  1.00  0.00     0.103 A 
HETATM   16  C7  UNK     1      27.402  -6.490  38.868  1.00  0.00     0.059 A 
HETATM   17  C8  UNK     1      28.649  -6.099  38.381  1.00  0.00     0.024 A 
HETATM   18 Br1  UNK     1      29.230  -4.326  38.749  1.00  0.00    -0.050 Br
BRANCH  14  19
HETATM   19  O2  UNK     1      27.261  -9.943  37.650  1.00  0.00    -0.353 OA
HETATM   20  C22 UNK     1      26.467 -10.133  36.482  1.00  0.00     0.210 C 
ENDBRANCH  14  19
BRANCH  15  21
HETATM   21  O1  UNK     1      25.713  -8.151  39.104  1.00  0.00    -0.344 OA
BRANCH  21  22
HETATM   22  C4  UNK     1      24.632  -7.244  38.896  1.00  0.00     0.214 C 
BRANCH  22  23
HETATM   23  C6  UNK     1      23.377  -8.028  38.643  1.00  0.00    -0.034 A 
HETATM   24  C12 UNK     1      22.449  -8.192  39.666  1.00  0.00     0.011 A 
HETATM   25  C14 UNK     1      21.283  -8.919  39.430  1.00  0.00     0.019 A 
HETATM   26  C18 UNK     1      21.051  -9.478  38.173  1.00  0.00     0.011 A 
HETATM   27 Br2  UNK     1      19.470 -10.463  37.853  1.00  0.00    -0.051 Br
HETATM   28  C15 UNK     1      21.987  -9.309  37.152  1.00  0.00     0.019 A 
HETATM   29  C13 UNK     1      23.153  -8.582  37.388  1.00  0.00     0.011 A 
ENDBRANCH  22  23
ENDBRANCH  21  22
ENDBRANCH  15  21
ENDBRANCH   2  12
TORSDOF 6
ENDMDL
