MODEL 1
REMARK VINA RESULT:      -7.7      0.000      0.000
REMARK  6 active torsions:
REMARK  status: ('A' for Active; 'I' for Inactive)
REMARK    1  A    between atoms: C12_19  and  O3_3 
REMARK    2  A    between atoms: C19_26  and  O3_3 
REMARK    3  A    between atoms: C22_29  and  O6_6 
REMARK    4  A    between atoms: C1_8  and  C10_17 
REMARK    5  A    between atoms: C12_19  and  C6_13 
REMARK    6  A    between atoms: C19_26  and  C22_29 
ROOT
HETATM    1  O1  UNK     1      29.312  -5.266  32.068  1.00  0.00    -0.293 OA
HETATM    2  N1  UNK     1      29.004  -9.979  31.709  1.00  0.00    -0.362 N 
HETATM    3  C1  UNK     1      30.215  -7.812  33.082  1.00  0.00     0.104 C 
HETATM    4  C2  UNK     1      29.144  -7.633  32.010  1.00  0.00     0.024 C 
HETATM    5  C3  UNK     1      28.581  -8.699  31.404  1.00  0.00     0.020 C 
HETATM    6  C4  UNK     1      27.485  -8.584  30.377  1.00  0.00     0.058 C 
HETATM    7  C5  UNK     1      26.751  -7.251  30.469  1.00  0.00     0.014 C 
HETATM    8  C6  UNK     1      30.681  -9.264  33.219  1.00  0.00     0.052 C 
HETATM    9  C7  UNK     1      27.732  -6.094  30.482  1.00  0.00     0.084 C 
HETATM   10  C8  UNK     1      28.758  -6.252  31.582  1.00  0.00     0.158 C 
HETATM   11  C9  UNK     1      30.063 -10.269  32.556  1.00  0.00     0.018 C 
HETATM   12  C13 UNK     1      30.428 -11.728  32.613  1.00  0.00     0.069 C 
HETATM   13  H8  UNK     1      28.562 -10.751  31.223  1.00  0.00     0.165 HD
ENDROOT
BRANCH   3  14
HETATM   14  C10 UNK     1      29.715  -7.298  34.405  1.00  0.00     0.029 A 
HETATM   15  C11 UNK     1      30.494  -6.239  35.095  1.00  0.00     0.194 A 
HETATM   16  O4  UNK     1      31.523  -5.774  34.621  1.00  0.00    -0.287 OA
HETATM   17  C15 UNK     1      29.961  -5.772  36.388  1.00  0.00     0.048 A 
HETATM   18  C16 UNK     1      28.784  -6.338  36.880  1.00  0.00     0.089 A 
HETATM   19  C17 UNK     1      30.621  -4.779  37.115  1.00  0.00     0.018 A 
HETATM   20  O2  UNK     1      28.094  -7.316  36.209  1.00  0.00    -0.321 OA
HETATM   21  C18 UNK     1      28.262  -5.912  38.102  1.00  0.00     0.038 A 
HETATM   22  C14 UNK     1      28.603  -7.740  35.007  1.00  0.00     0.154 A 
HETATM   23  C21 UNK     1      28.919  -4.920  38.829  1.00  0.00     0.003 A 
HETATM   24  C20 UNK     1      30.097  -4.355  38.337  1.00  0.00     0.001 A 
ENDBRANCH   3  14
BRANCH   8  25
HETATM   25  C12 UNK     1      31.840  -9.490  34.100  1.00  0.00     0.292 C 
HETATM   26  O5  UNK     1      32.991  -9.309  33.750  1.00  0.00    -0.259 OA
BRANCH  25  27
HETATM   27  O3  UNK     1      31.385  -9.913  35.303  1.00  0.00    -0.316 OA
BRANCH  27  28
HETATM   28  C19 UNK     1      32.084  -9.386  36.435  1.00  0.00     0.205 C 
BRANCH  28  29
HETATM   29  C22 UNK     1      31.100  -9.168  37.568  1.00  0.00     0.193 C 
BRANCH  29  30
HETATM   30  O6  UNK     1      31.599  -8.148  38.426  1.00  0.00    -0.394 OA
HETATM   31  C23 UNK     1      32.832  -7.627  37.951  1.00  0.00     0.201 C 
ENDBRANCH  29  30
ENDBRANCH  28  29
ENDBRANCH  27  28
ENDBRANCH  25  27
ENDBRANCH   8  25
TORSDOF 6
ENDMDL
MODEL 2
REMARK VINA RESULT:      -7.4      2.307      6.060
REMARK  6 active torsions:
REMARK  status: ('A' for Active; 'I' for Inactive)
REMARK    1  A    between atoms: C12_19  and  O3_3 
REMARK    2  A    between atoms: C19_26  and  O3_3 
REMARK    3  A    between atoms: C22_29  and  O6_6 
REMARK    4  A    between atoms: C1_8  and  C10_17 
REMARK    5  A    between atoms: C12_19  and  C6_13 
REMARK    6  A    between atoms: C19_26  and  C22_29 
ROOT
HETATM    1  O1  UNK     1      29.671  -9.551  36.306  1.00  0.00    -0.293 OA
HETATM    2  N1  UNK     1      30.185  -5.055  37.701  1.00  0.00    -0.362 N 
HETATM    3  C1  UNK     1      30.675  -6.932  35.631  1.00  0.00     0.104 C 
HETATM    4  C2  UNK     1      29.887  -7.262  36.895  1.00  0.00     0.024 C 
HETATM    5  C3  UNK     1      29.660  -6.325  37.840  1.00  0.00     0.020 C 
HETATM    6  C4  UNK     1      28.846  -6.582  39.081  1.00  0.00     0.058 C 
HETATM    7  C5  UNK     1      27.918  -7.779  38.921  1.00  0.00     0.014 C 
HETATM    8  C6  UNK     1      31.309  -5.539  35.675  1.00  0.00     0.052 C 
HETATM    9  C7  UNK     1      28.677  -8.985  38.400  1.00  0.00     0.084 C 
HETATM   10  C8  UNK     1      29.412  -8.664  37.118  1.00  0.00     0.158 C 
HETATM   11  C9  UNK     1      31.035  -4.669  36.675  1.00  0.00     0.018 C 
HETATM   12  C13 UNK     1      31.592  -3.279  36.823  1.00  0.00     0.069 C 
HETATM   13  H8  UNK     1      30.000  -4.384  38.439  1.00  0.00     0.165 HD
ENDROOT
BRANCH   3  14
HETATM   14  C10 UNK     1      29.791  -7.064  34.420  1.00  0.00     0.029 A 
HETATM   15  C11 UNK     1      30.187  -8.021  33.356  1.00  0.00     0.194 A 
HETATM   16  O4  UNK     1      31.202  -8.700  33.435  1.00  0.00    -0.287 OA
HETATM   17  C15 UNK     1      29.288  -8.111  32.190  1.00  0.00     0.048 A 
HETATM   18  C16 UNK     1      28.144  -7.312  32.153  1.00  0.00     0.089 A 
HETATM   19  C17 UNK     1      29.573  -8.981  31.136  1.00  0.00     0.018 A 
HETATM   20  O2  UNK     1      27.815  -6.440  33.160  1.00  0.00    -0.321 OA
HETATM   21  C18 UNK     1      27.279  -7.381  31.060  1.00  0.00     0.038 A 
HETATM   22  C14 UNK     1      28.663  -6.367  34.239  1.00  0.00     0.154 A 
HETATM   23  C21 UNK     1      27.561  -8.249  30.006  1.00  0.00     0.003 A 
HETATM   24  C20 UNK     1      28.706  -9.048  30.044  1.00  0.00     0.001 A 
ENDBRANCH   3  14
BRANCH   8  25
HETATM   25  C12 UNK     1      32.236  -5.216  34.577  1.00  0.00     0.292 C 
HETATM   26  O5  UNK     1      31.951  -4.466  33.661  1.00  0.00    -0.259 OA
BRANCH  25  27
HETATM   27  O3  UNK     1      33.396  -5.883  34.786  1.00  0.00    -0.316 OA
BRANCH  27  28
HETATM   28  C19 UNK     1      34.466  -5.088  35.307  1.00  0.00     0.205 C 
BRANCH  28  29
HETATM   29  C22 UNK     1      35.152  -5.852  36.423  1.00  0.00     0.193 C 
BRANCH  29  30
HETATM   30  O6  UNK     1      34.322  -5.830  37.579  1.00  0.00    -0.394 OA
HETATM   31  C23 UNK     1      33.854  -7.131  37.907  1.00  0.00     0.201 C 
ENDBRANCH  29  30
ENDBRANCH  28  29
ENDBRANCH  27  28
ENDBRANCH  25  27
ENDBRANCH   8  25
TORSDOF 6
ENDMDL
MODEL 3
REMARK VINA RESULT:      -7.4      2.168      5.863
REMARK  6 active torsions:
REMARK  status: ('A' for Active; 'I' for Inactive)
REMARK    1  A    between atoms: C12_19  and  O3_3 
REMARK    2  A    between atoms: C19_26  and  O3_3 
REMARK    3  A    between atoms: C22_29  and  O6_6 
REMARK    4  A    between atoms: C1_8  and  C10_17 
REMARK    5  A    between atoms: C12_19  and  C6_13 
REMARK    6  A    between atoms: C19_26  and  C22_29 
ROOT
HETATM    1  O1  UNK     1      28.178  -9.605  36.211  1.00  0.00    -0.293 OA
HETATM    2  N1  UNK     1      29.535  -5.334  37.744  1.00  0.00    -0.362 N 
HETATM    3  C1  UNK     1      29.821  -7.287  35.706  1.00  0.00     0.104 C 
HETATM    4  C2  UNK     1      28.838  -7.421  36.866  1.00  0.00     0.024 C 
HETATM    5  C3  UNK     1      28.724  -6.451  37.797  1.00  0.00     0.020 C 
HETATM    6  C4  UNK     1      27.735  -6.507  38.932  1.00  0.00     0.058 C 
HETATM    7  C5  UNK     1      26.584  -7.463  38.645  1.00  0.00     0.014 C 
HETATM    8  C6  UNK     1      30.745  -6.075  35.849  1.00  0.00     0.052 C 
HETATM    9  C7  UNK     1      27.105  -8.813  38.190  1.00  0.00     0.084 C 
HETATM   10  C8  UNK     1      28.036  -8.676  37.005  1.00  0.00     0.158 C 
HETATM   11  C9  UNK     1      30.562  -5.159  36.828  1.00  0.00     0.018 C 
HETATM   12  C13 UNK     1      31.400  -3.932  37.066  1.00  0.00     0.069 C 
HETATM   13  H8  UNK     1      29.424  -4.634  38.469  1.00  0.00     0.165 HD
ENDROOT
BRANCH   3  14
HETATM   14  C10 UNK     1      29.075  -7.223  34.400  1.00  0.00     0.029 A 
HETATM   15  C11 UNK     1      29.358  -8.257  33.372  1.00  0.00     0.194 A 
HETATM   16  O4  UNK     1      30.171  -9.153  33.555  1.00  0.00    -0.287 OA
HETATM   17  C15 UNK     1      28.602  -8.147  32.111  1.00  0.00     0.048 A 
HETATM   18  C16 UNK     1      27.686  -7.105  31.957  1.00  0.00     0.089 A 
HETATM   19  C17 UNK     1      28.795  -9.071  31.081  1.00  0.00     0.018 A 
HETATM   20  O2  UNK     1      27.456  -6.170  32.934  1.00  0.00    -0.321 OA
HETATM   21  C18 UNK     1      26.960  -6.982  30.772  1.00  0.00     0.038 A 
HETATM   22  C14 UNK     1      28.168  -6.285  34.103  1.00  0.00     0.154 A 
HETATM   23  C21 UNK     1      27.152  -7.903  29.742  1.00  0.00     0.003 A 
HETATM   24  C20 UNK     1      28.067  -8.945  29.896  1.00  0.00     0.001 A 
ENDBRANCH   3  14
BRANCH   8  25
HETATM   25  C12 UNK     1      31.841  -5.979  34.869  1.00  0.00     0.292 C 
HETATM   26  O5  UNK     1      31.862  -5.160  33.969  1.00  0.00    -0.259 OA
BRANCH  25  27
HETATM   27  O3  UNK     1      32.761  -6.929  35.162  1.00  0.00    -0.316 OA
BRANCH  27  28
HETATM   28  C19 UNK     1      33.925  -6.455  35.844  1.00  0.00     0.205 C 
BRANCH  28  29
HETATM   29  C22 UNK     1      34.052  -7.183  37.170  1.00  0.00     0.193 C 
BRANCH  29  30
HETATM   30  O6  UNK     1      33.074  -8.214  37.228  1.00  0.00    -0.394 OA
HETATM   31  C23 UNK     1      32.262  -8.095  38.389  1.00  0.00     0.201 C 
ENDBRANCH  29  30
ENDBRANCH  28  29
ENDBRANCH  27  28
ENDBRANCH  25  27
ENDBRANCH   8  25
TORSDOF 6
ENDMDL
MODEL 4
REMARK VINA RESULT:      -7.3      1.443      1.935
REMARK  6 active torsions:
REMARK  status: ('A' for Active; 'I' for Inactive)
REMARK    1  A    between atoms: C12_19  and  O3_3 
REMARK    2  A    between atoms: C19_26  and  O3_3 
REMARK    3  A    between atoms: C22_29  and  O6_6 
REMARK    4  A    between atoms: C1_8  and  C10_17 
REMARK    5  A    between atoms: C12_19  and  C6_13 
REMARK    6  A    between atoms: C19_26  and  C22_29 
ROOT
HETATM    1  O1  UNK     1      29.387  -5.286  32.093  1.00  0.00    -0.293 OA
HETATM    2  N1  UNK     1      29.060  -9.998  31.744  1.00  0.00    -0.362 N 
HETATM    3  C1  UNK     1      30.270  -7.833  33.121  1.00  0.00     0.104 C 
HETATM    4  C2  UNK     1      29.209  -7.652  32.040  1.00  0.00     0.024 C 
HETATM    5  C3  UNK     1      28.646  -8.717  31.432  1.00  0.00     0.020 C 
HETATM    6  C4  UNK     1      27.559  -8.599  30.396  1.00  0.00     0.058 C 
HETATM    7  C5  UNK     1      26.831  -7.263  30.478  1.00  0.00     0.014 C 
HETATM    8  C6  UNK     1      30.728  -9.287  33.265  1.00  0.00     0.052 C 
HETATM    9  C7  UNK     1      27.817  -6.110  30.496  1.00  0.00     0.084 C 
HETATM   10  C8  UNK     1      28.833  -6.270  31.605  1.00  0.00     0.158 C 
HETATM   11  C9  UNK     1      30.111 -10.291  32.600  1.00  0.00     0.018 C 
HETATM   12  C13 UNK     1      30.468 -11.752  32.664  1.00  0.00     0.069 C 
HETATM   13  H8  UNK     1      28.619 -10.769  31.256  1.00  0.00     0.165 HD
ENDROOT
BRANCH   3  14
HETATM   14  C10 UNK     1      29.761  -7.314  34.439  1.00  0.00     0.029 A 
HETATM   15  C11 UNK     1      30.530  -6.245  35.124  1.00  0.00     0.194 A 
HETATM   16  O4  UNK     1      31.558  -5.776  34.651  1.00  0.00    -0.287 OA
HETATM   17  C15 UNK     1      29.989  -5.773  36.412  1.00  0.00     0.048 A 
HETATM   18  C16 UNK     1      28.814  -6.343  36.904  1.00  0.00     0.089 A 
HETATM   19  C17 UNK     1      30.640  -4.770  37.135  1.00  0.00     0.018 A 
HETATM   20  O2  UNK     1      28.133  -7.331  36.237  1.00  0.00    -0.321 OA
HETATM   21  C18 UNK     1      28.284  -5.913  38.120  1.00  0.00     0.038 A 
HETATM   22  C14 UNK     1      28.650  -7.760  35.039  1.00  0.00     0.154 A 
HETATM   23  C21 UNK     1      28.932  -4.911  38.843  1.00  0.00     0.003 A 
HETATM   24  C20 UNK     1      30.107  -4.341  38.352  1.00  0.00     0.001 A 
ENDBRANCH   3  14
BRANCH   8  25
HETATM   25  C12 UNK     1      31.878  -9.517  34.157  1.00  0.00     0.292 C 
HETATM   26  O5  UNK     1      31.791 -10.092  35.226  1.00  0.00    -0.259 OA
BRANCH  25  27
HETATM   27  O3  UNK     1      32.982  -8.991  33.574  1.00  0.00    -0.316 OA
BRANCH  27  28
HETATM   28  C19 UNK     1      33.926  -8.410  34.479  1.00  0.00     0.205 C 
BRANCH  28  29
HETATM   29  C22 UNK     1      34.809  -7.439  33.718  1.00  0.00     0.193 C 
BRANCH  29  30
HETATM   30  O6  UNK     1      35.698  -6.807  34.632  1.00  0.00    -0.394 OA
HETATM   31  C23 UNK     1      36.997  -7.379  34.571  1.00  0.00     0.201 C 
ENDBRANCH  29  30
ENDBRANCH  28  29
ENDBRANCH  27  28
ENDBRANCH  25  27
ENDBRANCH   8  25
TORSDOF 6
ENDMDL
MODEL 5
REMARK VINA RESULT:      -7.3      2.939      6.592
REMARK  6 active torsions:
REMARK  status: ('A' for Active; 'I' for Inactive)
REMARK    1  A    between atoms: C12_19  and  O3_3 
REMARK    2  A    between atoms: C19_26  and  O3_3 
REMARK    3  A    between atoms: C22_29  and  O6_6 
REMARK    4  A    between atoms: C1_8  and  C10_17 
REMARK    5  A    between atoms: C12_19  and  C6_13 
REMARK    6  A    between atoms: C19_26  and  C22_29 
ROOT
HETATM    1  O1  UNK     1      30.420 -10.188  38.330  1.00  0.00    -0.293 OA
HETATM    2  N1  UNK     1      28.405  -5.981  39.151  1.00  0.00    -0.362 N 
HETATM    3  C1  UNK     1      30.668  -7.324  38.090  1.00  0.00     0.104 C 
HETATM    4  C2  UNK     1      29.437  -8.048  38.626  1.00  0.00     0.024 C 
HETATM    5  C3  UNK     1      28.375  -7.361  39.097  1.00  0.00     0.020 C 
HETATM    6  C4  UNK     1      27.114  -8.023  39.590  1.00  0.00     0.058 C 
HETATM    7  C5  UNK     1      26.959  -9.438  39.046  1.00  0.00     0.014 C 
HETATM    8  C6  UNK     1      30.622  -5.813  38.337  1.00  0.00     0.052 C 
HETATM    9  C7  UNK     1      28.226 -10.243  39.267  1.00  0.00     0.084 C 
HETATM   10  C8  UNK     1      29.434  -9.543  38.686  1.00  0.00     0.158 C 
HETATM   11  C9  UNK     1      29.514  -5.212  38.831  1.00  0.00     0.018 C 
HETATM   12  C13 UNK     1      29.349  -3.743  39.111  1.00  0.00     0.069 C 
HETATM   13  H8  UNK     1      27.591  -5.504  39.522  1.00  0.00     0.165 HD
ENDROOT
BRANCH   3  14
HETATM   14  C10 UNK     1      30.839  -7.607  36.622  1.00  0.00     0.029 A 
HETATM   15  C11 UNK     1      32.112  -8.217  36.162  1.00  0.00     0.194 A 
HETATM   16  O4  UNK     1      33.018  -8.495  36.936  1.00  0.00    -0.287 OA
HETATM   17  C15 UNK     1      32.228  -8.472  34.714  1.00  0.00     0.048 A 
HETATM   18  C16 UNK     1      31.162  -8.135  33.878  1.00  0.00     0.089 A 
HETATM   19  C17 UNK     1      33.386  -9.043  34.182  1.00  0.00     0.018 A 
HETATM   20  O2  UNK     1      30.002  -7.572  34.346  1.00  0.00    -0.321 OA
HETATM   21  C18 UNK     1      31.250  -8.368  32.505  1.00  0.00     0.038 A 
HETATM   22  C14 UNK     1      29.909  -7.340  35.697  1.00  0.00     0.154 A 
HETATM   23  C21 UNK     1      32.406  -8.938  31.971  1.00  0.00     0.003 A 
HETATM   24  C20 UNK     1      33.471  -9.275  32.808  1.00  0.00     0.001 A 
ENDBRANCH   3  14
BRANCH   8  25
HETATM   25  C12 UNK     1      31.851  -5.068  38.016  1.00  0.00     0.292 C 
HETATM   26  O5  UNK     1      32.884  -5.177  38.651  1.00  0.00    -0.259 OA
BRANCH  25  27
HETATM   27  O3  UNK     1      31.607  -4.287  36.936  1.00  0.00    -0.316 OA
BRANCH  27  28
HETATM   28  C19 UNK     1      32.762  -3.945  36.164  1.00  0.00     0.205 C 
BRANCH  28  29
HETATM   29  C22 UNK     1      32.699  -4.671  34.833  1.00  0.00     0.193 C 
BRANCH  29  30
HETATM   30  O6  UNK     1      33.839  -5.515  34.710  1.00  0.00    -0.394 OA
HETATM   31  C23 UNK     1      34.860  -5.145  35.626  1.00  0.00     0.201 C 
ENDBRANCH  29  30
ENDBRANCH  28  29
ENDBRANCH  27  28
ENDBRANCH  25  27
ENDBRANCH   8  25
TORSDOF 6
ENDMDL
MODEL 6
REMARK VINA RESULT:      -7.3      2.140      6.011
REMARK  6 active torsions:
REMARK  status: ('A' for Active; 'I' for Inactive)
REMARK    1  A    between atoms: C12_19  and  O3_3 
REMARK    2  A    between atoms: C19_26  and  O3_3 
REMARK    3  A    between atoms: C22_29  and  O6_6 
REMARK    4  A    between atoms: C1_8  and  C10_17 
REMARK    5  A    between atoms: C12_19  and  C6_13 
REMARK    6  A    between atoms: C19_26  and  C22_29 
ROOT
HETATM    1  O1  UNK     1      31.307  -5.391  34.405  1.00  0.00    -0.293 OA
HETATM    2  N1  UNK     1      31.062  -8.689  37.795  1.00  0.00    -0.362 N 
HETATM    3  C1  UNK     1      29.641  -7.321  35.756  1.00  0.00     0.104 C 
HETATM    4  C2  UNK     1      31.130  -7.118  36.023  1.00  0.00     0.024 C 
HETATM    5  C3  UNK     1      31.764  -7.813  36.990  1.00  0.00     0.020 C 
HETATM    6  C4  UNK     1      33.241  -7.691  37.263  1.00  0.00     0.058 C 
HETATM    7  C5  UNK     1      34.001  -7.132  36.067  1.00  0.00     0.014 C 
HETATM    8  C6  UNK     1      28.966  -8.209  36.804  1.00  0.00     0.052 C 
HETATM    9  C7  UNK     1      33.344  -5.864  35.554  1.00  0.00     0.084 C 
HETATM   10  C8  UNK     1      31.881  -6.088  35.240  1.00  0.00     0.158 C 
HETATM   11  C9  UNK     1      29.686  -8.856  37.751  1.00  0.00     0.018 C 
HETATM   12  C13 UNK     1      29.136  -9.754  38.826  1.00  0.00     0.069 C 
HETATM   13  H8  UNK     1      31.574  -9.182  38.517  1.00  0.00     0.165 HD
ENDROOT
BRANCH   3  14
HETATM   14  C10 UNK     1      29.435  -7.891  34.379  1.00  0.00     0.029 A 
HETATM   15  C11 UNK     1      28.465  -7.222  33.473  1.00  0.00     0.194 A 
HETATM   16  O4  UNK     1      27.836  -6.228  33.812  1.00  0.00    -0.287 OA
HETATM   17  C15 UNK     1      28.299  -7.821  32.136  1.00  0.00     0.048 A 
HETATM   18  C16 UNK     1      29.043  -8.955  31.804  1.00  0.00     0.089 A 
HETATM   19  C17 UNK     1      27.411  -7.267  31.212  1.00  0.00     0.018 A 
HETATM   20  O2  UNK     1      29.929  -9.541  32.672  1.00  0.00    -0.321 OA
HETATM   21  C18 UNK     1      28.902  -9.538  30.545  1.00  0.00     0.038 A 
HETATM   22  C14 UNK     1      30.073  -8.972  33.913  1.00  0.00     0.154 A 
HETATM   23  C21 UNK     1      28.016  -8.986  29.620  1.00  0.00     0.003 A 
HETATM   24  C20 UNK     1      27.272  -7.853  29.952  1.00  0.00     0.001 A 
ENDBRANCH   3  14
BRANCH   8  25
HETATM   25  C12 UNK     1      27.498  -8.304  36.723  1.00  0.00     0.292 C 
HETATM   26  O5  UNK     1      26.910  -9.327  36.428  1.00  0.00    -0.259 OA
BRANCH  25  27
HETATM   27  O3  UNK     1      26.975  -7.092  37.026  1.00  0.00    -0.316 OA
BRANCH  27  28
HETATM   28  C19 UNK     1      26.725  -6.871  38.418  1.00  0.00     0.205 C 
BRANCH  28  29
HETATM   29  C22 UNK     1      27.264  -5.507  38.807  1.00  0.00     0.193 C 
BRANCH  29  30
HETATM   30  O6  UNK     1      28.483  -5.676  39.522  1.00  0.00    -0.394 OA
HETATM   31  C23 UNK     1      29.581  -5.116  38.815  1.00  0.00     0.201 C 
ENDBRANCH  29  30
ENDBRANCH  28  29
ENDBRANCH  27  28
ENDBRANCH  25  27
ENDBRANCH   8  25
TORSDOF 6
ENDMDL
MODEL 7
REMARK VINA RESULT:      -7.3      2.900      6.404
REMARK  6 active torsions:
REMARK  status: ('A' for Active; 'I' for Inactive)
REMARK    1  A    between atoms: C12_19  and  O3_3 
REMARK    2  A    between atoms: C19_26  and  O3_3 
REMARK    3  A    between atoms: C22_29  and  O6_6 
REMARK    4  A    between atoms: C1_8  and  C10_17 
REMARK    5  A    between atoms: C12_19  and  C6_13 
REMARK    6  A    between atoms: C19_26  and  C22_29 
ROOT
HETATM    1  O1  UNK     1      29.227  -8.013  36.751  1.00  0.00    -0.293 OA
HETATM    2  N1  UNK     1      33.165  -5.390  36.557  1.00  0.00    -0.362 N 
HETATM    3  C1  UNK     1      31.621  -7.389  35.267  1.00  0.00     0.104 C 
HETATM    4  C2  UNK     1      31.174  -6.673  36.537  1.00  0.00     0.024 C 
HETATM    5  C3  UNK     1      31.935  -5.710  37.099  1.00  0.00     0.020 C 
HETATM    6  C4  UNK     1      31.520  -4.935  38.322  1.00  0.00     0.058 C 
HETATM    7  C5  UNK     1      30.013  -4.976  38.543  1.00  0.00     0.014 C 
HETATM    8  C6  UNK     1      33.054  -7.036  34.859  1.00  0.00     0.052 C 
HETATM    9  C7  UNK     1      29.498  -6.402  38.491  1.00  0.00     0.084 C 
HETATM   10  C8  UNK     1      29.900  -7.088  37.204  1.00  0.00     0.158 C 
HETATM   11  C9  UNK     1      33.749  -6.063  35.494  1.00  0.00     0.018 C 
HETATM   12  C13 UNK     1      35.155  -5.627  35.182  1.00  0.00     0.069 C 
HETATM   13  H8  UNK     1      33.711  -4.669  37.016  1.00  0.00     0.165 HD
ENDROOT
BRANCH   3  14
HETATM   14  C10 UNK     1      30.670  -7.088  34.140  1.00  0.00     0.029 A 
HETATM   15  C11 UNK     1      30.029  -8.225  33.431  1.00  0.00     0.194 A 
HETATM   16  O4  UNK     1      30.250  -9.390  33.735  1.00  0.00    -0.287 OA
HETATM   17  C15 UNK     1      29.107  -7.876  32.335  1.00  0.00     0.048 A 
HETATM   18  C16 UNK     1      28.893  -6.531  32.031  1.00  0.00     0.089 A 
HETATM   19  C17 UNK     1      28.455  -8.873  31.606  1.00  0.00     0.018 A 
HETATM   20  O2  UNK     1      29.506  -5.510  32.713  1.00  0.00    -0.321 OA
HETATM   21  C18 UNK     1      28.025  -6.177  30.998  1.00  0.00     0.038 A 
HETATM   22  C14 UNK     1      30.362  -5.851  33.731  1.00  0.00     0.154 A 
HETATM   23  C21 UNK     1      27.372  -7.171  30.269  1.00  0.00     0.003 A 
HETATM   24  C20 UNK     1      27.587  -8.517  30.573  1.00  0.00     0.001 A 
ENDBRANCH   3  14
BRANCH   8  25
HETATM   25  C12 UNK     1      33.624  -7.822  33.752  1.00  0.00     0.292 C 
HETATM   26  O5  UNK     1      33.973  -8.982  33.866  1.00  0.00    -0.259 OA
BRANCH  25  27
HETATM   27  O3  UNK     1      33.673  -7.035  32.650  1.00  0.00    -0.316 OA
BRANCH  27  28
HETATM   28  C19 UNK     1      34.578  -7.474  31.632  1.00  0.00     0.205 C 
BRANCH  28  29
HETATM   29  C22 UNK     1      35.636  -6.408  31.418  1.00  0.00     0.193 C 
BRANCH  29  30
HETATM   30  O6  UNK     1      35.708  -6.099  30.031  1.00  0.00    -0.394 OA
HETATM   31  C23 UNK     1      34.883  -6.963  29.262  1.00  0.00     0.201 C 
ENDBRANCH  29  30
ENDBRANCH  28  29
ENDBRANCH  27  28
ENDBRANCH  25  27
ENDBRANCH   8  25
TORSDOF 6
ENDMDL
MODEL 8
REMARK VINA RESULT:      -7.2      2.589      5.942
REMARK  6 active torsions:
REMARK  status: ('A' for Active; 'I' for Inactive)
REMARK    1  A    between atoms: C12_19  and  O3_3 
REMARK    2  A    between atoms: C19_26  and  O3_3 
REMARK    3  A    between atoms: C22_29  and  O6_6 
REMARK    4  A    between atoms: C1_8  and  C10_17 
REMARK    5  A    between atoms: C12_19  and  C6_13 
REMARK    6  A    between atoms: C19_26  and  C22_29 
ROOT
HETATM    1  O1  UNK     1      27.425 -10.109  36.329  1.00  0.00    -0.293 OA
HETATM    2  N1  UNK     1      30.005  -6.775  38.487  1.00  0.00    -0.362 N 
HETATM    3  C1  UNK     1      29.747  -8.403  36.179  1.00  0.00     0.104 C 
HETATM    4  C2  UNK     1      28.719  -8.375  37.305  1.00  0.00     0.024 C 
HETATM    5  C3  UNK     1      28.877  -7.563  38.372  1.00  0.00     0.020 C 
HETATM    6  C4  UNK     1      27.869  -7.457  39.487  1.00  0.00     0.058 C 
HETATM    7  C5  UNK     1      26.487  -7.935  39.059  1.00  0.00     0.014 C 
HETATM    8  C6  UNK     1      31.004  -7.591  36.502  1.00  0.00     0.052 C 
HETATM    9  C7  UNK     1      26.568  -9.302  38.405  1.00  0.00     0.084 C 
HETATM   10  C8  UNK     1      27.550  -9.308  37.255  1.00  0.00     0.158 C 
HETATM   11  C9  UNK     1      31.077  -6.814  37.608  1.00  0.00     0.018 C 
HETATM   12  C13 UNK     1      32.252  -5.973  38.028  1.00  0.00     0.069 C 
HETATM   13  H8  UNK     1      30.090  -6.188  39.310  1.00  0.00     0.165 HD
ENDROOT
BRANCH   3  14
HETATM   14  C10 UNK     1      29.126  -7.915  34.898  1.00  0.00     0.029 A 
HETATM   15  C11 UNK     1      29.140  -8.814  33.716  1.00  0.00     0.194 A 
HETATM   16  O4  UNK     1      29.637  -9.932  33.754  1.00  0.00    -0.287 OA
HETATM   17  C15 UNK     1      28.521  -8.287  32.486  1.00  0.00     0.048 A 
HETATM   18  C16 UNK     1      27.969  -7.005  32.500  1.00  0.00     0.089 A 
HETATM   19  C17 UNK     1      28.483  -9.056  31.321  1.00  0.00     0.018 A 
HETATM   20  O2  UNK     1      27.978  -6.206  33.616  1.00  0.00    -0.321 OA
HETATM   21  C18 UNK     1      27.378  -6.486  31.348  1.00  0.00     0.038 A 
HETATM   22  C14 UNK     1      28.559  -6.711  34.754  1.00  0.00     0.154 A 
HETATM   23  C21 UNK     1      27.339  -7.252  30.183  1.00  0.00     0.003 A 
HETATM   24  C20 UNK     1      27.890  -8.534  30.169  1.00  0.00     0.001 A 
ENDBRANCH   3  14
BRANCH   8  25
HETATM   25  C12 UNK     1      32.118  -7.717  35.547  1.00  0.00     0.292 C 
HETATM   26  O5  UNK     1      32.861  -8.680  35.510  1.00  0.00    -0.259 OA
BRANCH  25  27
HETATM   27  O3  UNK     1      32.141  -6.608  34.769  1.00  0.00    -0.316 OA
BRANCH  27  28
HETATM   28  C19 UNK     1      33.427  -6.263  34.245  1.00  0.00     0.205 C 
BRANCH  28  29
HETATM   29  C22 UNK     1      33.850  -4.923  34.817  1.00  0.00     0.193 C 
BRANCH  29  30
HETATM   30  O6  UNK     1      34.891  -5.131  35.765  1.00  0.00    -0.394 OA
HETATM   31  C23 UNK     1      35.637  -6.303  35.468  1.00  0.00     0.201 C 
ENDBRANCH  29  30
ENDBRANCH  28  29
ENDBRANCH  27  28
ENDBRANCH  25  27
ENDBRANCH   8  25
TORSDOF 6
ENDMDL
MODEL 9
REMARK VINA RESULT:      -7.2      2.151      2.773
REMARK  6 active torsions:
REMARK  status: ('A' for Active; 'I' for Inactive)
REMARK    1  A    between atoms: C12_19  and  O3_3 
REMARK    2  A    between atoms: C19_26  and  O3_3 
REMARK    3  A    between atoms: C22_29  and  O6_6 
REMARK    4  A    between atoms: C1_8  and  C10_17 
REMARK    5  A    between atoms: C12_19  and  C6_13 
REMARK    6  A    between atoms: C19_26  and  C22_29 
ROOT
HETATM    1  O1  UNK     1      27.586  -5.899  33.155  1.00  0.00    -0.293 OA
HETATM    2  N1  UNK     1      30.875  -8.755  31.296  1.00  0.00    -0.362 N 
HETATM    3  C1  UNK     1      30.144  -7.178  33.537  1.00  0.00     0.104 C 
HETATM    4  C2  UNK     1      29.236  -7.392  32.330  1.00  0.00     0.024 C 
HETATM    5  C3  UNK     1      29.622  -8.173  31.299  1.00  0.00     0.020 C 
HETATM    6  C4  UNK     1      28.747  -8.460  30.106  1.00  0.00     0.058 C 
HETATM    7  C5  UNK     1      27.273  -8.223  30.406  1.00  0.00     0.014 C 
HETATM    8  C6  UNK     1      31.544  -7.764  33.339  1.00  0.00     0.052 C 
HETATM    9  C7  UNK     1      27.061  -6.858  31.033  1.00  0.00     0.084 C 
HETATM   10  C8  UNK     1      27.925  -6.674  32.261  1.00  0.00     0.158 C 
HETATM   11  C9  UNK     1      31.845  -8.525  32.260  1.00  0.00     0.018 C 
HETATM   12  C13 UNK     1      33.178  -9.155  31.960  1.00  0.00     0.069 C 
HETATM   13  H8  UNK     1      31.129  -9.326  30.497  1.00  0.00     0.165 HD
ENDROOT
BRANCH   3  14
HETATM   14  C10 UNK     1      29.507  -7.755  34.773  1.00  0.00     0.029 A 
HETATM   15  C11 UNK     1      29.380  -6.892  35.974  1.00  0.00     0.194 A 
HETATM   16  O4  UNK     1      29.774  -5.733  35.988  1.00  0.00    -0.287 OA
HETATM   17  C15 UNK     1      28.751  -7.507  37.158  1.00  0.00     0.048 A 
HETATM   18  C16 UNK     1      28.321  -8.833  37.085  1.00  0.00     0.089 A 
HETATM   19  C17 UNK     1      28.586  -6.778  38.337  1.00  0.00     0.018 A 
HETATM   20  O2  UNK     1      28.458  -9.596  35.953  1.00  0.00    -0.321 OA
HETATM   21  C18 UNK     1      27.723  -9.435  38.192  1.00  0.00     0.038 A 
HETATM   22  C14 UNK     1      29.046  -9.009  34.859  1.00  0.00     0.154 A 
HETATM   23  C21 UNK     1      27.557  -8.708  39.371  1.00  0.00     0.003 A 
HETATM   24  C20 UNK     1      27.987  -7.383  39.444  1.00  0.00     0.001 A 
ENDBRANCH   3  14
BRANCH   8  25
HETATM   25  C12 UNK     1      32.534  -7.440  34.380  1.00  0.00     0.292 C 
HETATM   26  O5  UNK     1      32.908  -8.239  35.219  1.00  0.00    -0.259 OA
BRANCH  25  27
HETATM   27  O3  UNK     1      32.918  -6.151  34.218  1.00  0.00    -0.316 OA
BRANCH  27  28
HETATM   28  C19 UNK     1      34.332  -5.933  34.249  1.00  0.00     0.205 C 
BRANCH  28  29
HETATM   29  C22 UNK     1      34.675  -5.074  35.452  1.00  0.00     0.193 C 
BRANCH  29  30
HETATM   30  O6  UNK     1      35.288  -5.889  36.444  1.00  0.00    -0.394 OA
HETATM   31  C23 UNK     1      34.419  -6.108  37.546  1.00  0.00     0.201 C 
ENDBRANCH  29  30
ENDBRANCH  28  29
ENDBRANCH  27  28
ENDBRANCH  25  27
ENDBRANCH   8  25
TORSDOF 6
ENDMDL
MODEL 10
REMARK VINA RESULT:      -7.1      2.401      6.315
REMARK  6 active torsions:
REMARK  status: ('A' for Active; 'I' for Inactive)
REMARK    1  A    between atoms: C12_19  and  O3_3 
REMARK    2  A    between atoms: C19_26  and  O3_3 
REMARK    3  A    between atoms: C22_29  and  O6_6 
REMARK    4  A    between atoms: C1_8  and  C10_17 
REMARK    5  A    between atoms: C12_19  and  C6_13 
REMARK    6  A    between atoms: C19_26  and  C22_29 
ROOT
HETATM    1  O1  UNK     1      28.801  -7.778  36.729  1.00  0.00    -0.293 OA
HETATM    2  N1  UNK     1      32.657  -5.031  36.608  1.00  0.00    -0.362 N 
HETATM    3  C1  UNK     1      31.257  -7.154  35.350  1.00  0.00     0.104 C 
HETATM    4  C2  UNK     1      30.713  -6.383  36.548  1.00  0.00     0.024 C 
HETATM    5  C3  UNK     1      31.409  -5.364  37.095  1.00  0.00     0.020 C 
HETATM    6  C4  UNK     1      30.897  -4.536  38.245  1.00  0.00     0.058 C 
HETATM    7  C5  UNK     1      29.381  -4.618  38.382  1.00  0.00     0.014 C 
HETATM    8  C6  UNK     1      32.700  -6.773  35.005  1.00  0.00     0.052 C 
HETATM    9  C7  UNK     1      28.917  -6.062  38.384  1.00  0.00     0.084 C 
HETATM   10  C8  UNK     1      29.416  -6.805  37.164  1.00  0.00     0.158 C 
HETATM   11  C9  UNK     1      33.324  -5.742  35.621  1.00  0.00     0.018 C 
HETATM   12  C13 UNK     1      34.732  -5.275  35.365  1.00  0.00     0.069 C 
HETATM   13  H8  UNK     1      33.151  -4.267  37.054  1.00  0.00     0.165 HD
ENDROOT
BRANCH   3  14
HETATM   14  C10 UNK     1      30.365  -6.951  34.155  1.00  0.00     0.029 A 
HETATM   15  C11 UNK     1      29.836  -8.149  33.454  1.00  0.00     0.194 A 
HETATM   16  O4  UNK     1      30.101  -9.287  33.819  1.00  0.00    -0.287 OA
HETATM   17  C15 UNK     1      28.969  -7.896  32.289  1.00  0.00     0.048 A 
HETATM   18  C16 UNK     1      28.700  -6.577  31.918  1.00  0.00     0.089 A 
HETATM   19  C17 UNK     1      28.421  -8.956  31.563  1.00  0.00     0.018 A 
HETATM   20  O2  UNK     1      29.210  -5.497  32.595  1.00  0.00    -0.321 OA
HETATM   21  C18 UNK     1      27.882  -6.313  30.819  1.00  0.00     0.038 A 
HETATM   22  C14 UNK     1      30.016  -5.750  33.677  1.00  0.00     0.154 A 
HETATM   23  C21 UNK     1      27.334  -7.370  30.093  1.00  0.00     0.003 A 
HETATM   24  C20 UNK     1      27.603  -8.689  30.464  1.00  0.00     0.001 A 
ENDBRANCH   3  14
BRANCH   8  25
HETATM   25  C12 UNK     1      33.359  -7.600  33.980  1.00  0.00     0.292 C 
HETATM   26  O5  UNK     1      33.900  -8.662  34.224  1.00  0.00    -0.259 OA
BRANCH  25  27
HETATM   27  O3  UNK     1      33.243  -6.972  32.785  1.00  0.00    -0.316 OA
BRANCH  27  28
HETATM   28  C19 UNK     1      33.081  -7.840  31.659  1.00  0.00     0.205 C 
BRANCH  28  29
HETATM   29  C22 UNK     1      32.179  -7.166  30.641  1.00  0.00     0.193 C 
BRANCH  29  30
HETATM   30  O6  UNK     1      31.511  -8.165  29.880  1.00  0.00    -0.394 OA
HETATM   31  C23 UNK     1      30.836  -7.603  28.763  1.00  0.00     0.201 C 
ENDBRANCH  29  30
ENDBRANCH  28  29
ENDBRANCH  27  28
ENDBRANCH  25  27
ENDBRANCH   8  25
TORSDOF 6
ENDMDL
