MODEL 1
REMARK VINA RESULT:      -9.8      0.000      0.000
REMARK  3 active torsions:
REMARK  status: ('A' for Active; 'I' for Inactive)
REMARK       I    between atoms: C8_16  and  N1_7 
REMARK    1  A    between atoms: N1_7  and  N2_8 
REMARK       I    between atoms: C12_20  and  N2_8 
REMARK    2  A    between atoms: C3_11  and  C8_16 
REMARK    3  A    between atoms: C11_19  and  C12_20 
ROOT
HETATM    1  O3  UNK     1      26.301  -9.248  39.512  1.00  0.00    -0.266 OA
HETATM    2  N1  UNK     1      24.831  -7.675  38.626  1.00  0.00    -0.263 N 
HETATM    3  C8  UNK     1      26.064  -8.144  39.029  1.00  0.00     0.276 C 
HETATM    4  H5  UNK     1      24.673  -6.770  38.195  1.00  0.00     0.190 HD
ENDROOT
BRANCH   3   5
HETATM    5  C3  UNK     1      27.136  -7.161  38.824  1.00  0.00     0.110 A 
HETATM    6  C4  UNK     1      28.366  -7.657  38.642  1.00  0.00     0.037 A 
HETATM    7  C1  UNK     1      29.493  -6.762  38.431  1.00  0.00     0.000 A 
HETATM    8  C2  UNK     1      29.269  -5.389  38.423  1.00  0.00     0.089 A 
HETATM    9  C5  UNK     1      30.793  -7.236  38.237  1.00  0.00     0.033 A 
HETATM   10  O1  UNK     1      27.973  -4.873  38.616  1.00  0.00    -0.274 OA
HETATM   11  C6  UNK     1      30.307  -4.478  38.228  1.00  0.00     0.039 A 
HETATM   12  C7  UNK     1      26.876  -5.704  38.819  1.00  0.00     0.304 A 
HETATM   13  O2  UNK     1      25.750  -5.245  38.986  1.00  0.00    -0.259 OA
HETATM   14  C10 UNK     1      31.600  -4.959  38.035  1.00  0.00     0.022 A 
HETATM   15  C9  UNK     1      31.843  -6.334  38.039  1.00  0.00     0.011 A 
HETATM   16 Br1  UNK     1      33.601  -6.979  37.776  1.00  0.00    -0.051 Br
ENDBRANCH   3   5
BRANCH   2  17
HETATM   17  N2  UNK     1      23.732  -8.489  38.759  1.00  0.00    -0.263 N 
HETATM   18  C12 UNK     1      22.588  -8.185  38.048  1.00  0.00     0.271 C 
HETATM   19  O4  UNK     1      22.466  -7.226  37.287  1.00  0.00    -0.266 OA
HETATM   20  H6  UNK     1      23.820  -9.297  39.368  1.00  0.00     0.190 HD
BRANCH  18  21
HETATM   21  C11 UNK     1      21.449  -9.122  38.228  1.00  0.00     0.050 A 
HETATM   22  C13 UNK     1      21.245 -10.187  37.374  1.00  0.00     0.022 A 
HETATM   23  I1  UNK     1      22.498 -10.606  35.749  1.00  0.00    -0.043 I 
HETATM   24  C15 UNK     1      20.159 -11.033  37.595  1.00  0.00     0.019 A 
HETATM   25  C17 UNK     1      19.297 -10.796  38.666  1.00  0.00     0.001 A 
HETATM   26  C16 UNK     1      19.522  -9.714  39.516  1.00  0.00     0.001 A 
HETATM   27  C14 UNK     1      20.609  -8.867  39.295  1.00  0.00     0.018 A 
ENDBRANCH  18  21
ENDBRANCH   2  17
TORSDOF 3
ENDMDL
MODEL 2
REMARK VINA RESULT:      -9.3      8.838     10.707
REMARK  3 active torsions:
REMARK  status: ('A' for Active; 'I' for Inactive)
REMARK       I    between atoms: C8_16  and  N1_7 
REMARK    1  A    between atoms: N1_7  and  N2_8 
REMARK       I    between atoms: C12_20  and  N2_8 
REMARK    2  A    between atoms: C3_11  and  C8_16 
REMARK    3  A    between atoms: C11_19  and  C12_20 
ROOT
HETATM    1  O3  UNK     1      17.815  -1.489  37.701  1.00  0.00    -0.266 OA
HETATM    2  N1  UNK     1      18.693  -2.861  36.038  1.00  0.00    -0.263 N 
HETATM    3  C8  UNK     1      18.211  -1.677  36.553  1.00  0.00     0.276 C 
HETATM    4  H5  UNK     1      19.048  -2.975  35.093  1.00  0.00     0.190 HD
ENDROOT
BRANCH   3   5
HETATM    5  C3  UNK     1      18.205  -0.592  35.563  1.00  0.00     0.110 A 
HETATM    6  C4  UNK     1      18.631  -0.910  34.335  1.00  0.00     0.037 A 
HETATM    7  C1  UNK     1      18.662   0.097  33.286  1.00  0.00     0.000 A 
HETATM    8  C2  UNK     1      18.242   1.390  33.583  1.00  0.00     0.089 A 
HETATM    9  C5  UNK     1      19.100  -0.189  31.991  1.00  0.00     0.033 A 
HETATM   10  O1  UNK     1      17.794   1.719  34.877  1.00  0.00    -0.274 OA
HETATM   11  C6  UNK     1      18.248   2.402  32.624  1.00  0.00     0.039 A 
HETATM   12  C7  UNK     1      17.754   0.777  35.901  1.00  0.00     0.304 A 
HETATM   13  O2  UNK     1      17.362   1.072  37.025  1.00  0.00    -0.259 OA
HETATM   14  C10 UNK     1      18.685   2.107  31.334  1.00  0.00     0.022 A 
HETATM   15  C9  UNK     1      19.110   0.814  31.018  1.00  0.00     0.011 A 
HETATM   16 Br1  UNK     1      19.702   0.421  29.265  1.00  0.00    -0.051 Br
ENDBRANCH   3   5
BRANCH   2  17
HETATM   17  N2  UNK     1      18.756  -3.967  36.852  1.00  0.00    -0.263 N 
HETATM   18  C12 UNK     1      19.658  -4.967  36.548  1.00  0.00     0.271 C 
HETATM   19  O4  UNK     1      20.428  -4.954  35.589  1.00  0.00    -0.266 OA
HETATM   20  H6  UNK     1      18.142  -3.987  37.660  1.00  0.00     0.190 HD
BRANCH  18  21
HETATM   21  C11 UNK     1      19.682  -6.120  37.485  1.00  0.00     0.050 A 
HETATM   22  C13 UNK     1      18.912  -7.245  37.271  1.00  0.00     0.022 A 
HETATM   23  I1  UNK     1      17.636  -7.460  35.625  1.00  0.00    -0.043 I 
HETATM   24  C15 UNK     1      18.978  -8.296  38.186  1.00  0.00     0.019 A 
HETATM   25  C17 UNK     1      19.815  -8.200  39.298  1.00  0.00     0.001 A 
HETATM   26  C16 UNK     1      20.585  -7.053  39.495  1.00  0.00     0.001 A 
HETATM   27  C14 UNK     1      20.519  -6.003  38.579  1.00  0.00     0.018 A 
ENDBRANCH  18  21
ENDBRANCH   2  17
TORSDOF 3
ENDMDL
MODEL 3
REMARK VINA RESULT:      -9.2     23.160     24.766
REMARK  3 active torsions:
REMARK  status: ('A' for Active; 'I' for Inactive)
REMARK       I    between atoms: C8_16  and  N1_7 
REMARK    1  A    between atoms: N1_7  and  N2_8 
REMARK       I    between atoms: C12_20  and  N2_8 
REMARK    2  A    between atoms: C3_11  and  C8_16 
REMARK    3  A    between atoms: C11_19  and  C12_20 
ROOT
HETATM    1  O3  UNK     1      21.495  -3.175  16.427  1.00  0.00    -0.266 OA
HETATM    2  N1  UNK     1      19.395  -2.172  16.379  1.00  0.00    -0.263 N 
HETATM    3  C8  UNK     1      20.347  -3.094  15.997  1.00  0.00     0.276 C 
HETATM    4  H5  UNK     1      18.441  -2.154  16.031  1.00  0.00     0.190 HD
ENDROOT
BRANCH   3   5
HETATM    5  C3  UNK     1      19.854  -4.025  14.975  1.00  0.00     0.110 A 
HETATM    6  C4  UNK     1      20.591  -5.124  14.772  1.00  0.00     0.037 A 
HETATM    7  C1  UNK     1      20.184  -6.106  13.779  1.00  0.00     0.000 A 
HETATM    8  C2  UNK     1      19.020  -5.883  13.050  1.00  0.00     0.089 A 
HETATM    9  C5  UNK     1      20.923  -7.266  13.533  1.00  0.00     0.033 A 
HETATM   10  O1  UNK     1      18.249  -4.725  13.269  1.00  0.00    -0.274 OA
HETATM   11  C6  UNK     1      18.575  -6.785  12.084  1.00  0.00     0.039 A 
HETATM   12  C7  UNK     1      18.613  -3.768  14.211  1.00  0.00     0.304 A 
HETATM   13  O2  UNK     1      17.934  -2.763  14.395  1.00  0.00    -0.259 OA
HETATM   14  C10 UNK     1      19.318  -7.939  11.846  1.00  0.00     0.022 A 
HETATM   15  C9  UNK     1      20.489  -8.180  12.568  1.00  0.00     0.011 A 
HETATM   16 Br1  UNK     1      21.491  -9.749  12.239  1.00  0.00    -0.051 Br
ENDBRANCH   3   5
BRANCH   2  17
HETATM   17  N2  UNK     1      19.718  -1.234  17.330  1.00  0.00    -0.263 N 
HETATM   18  C12 UNK     1      18.698  -0.551  17.963  1.00  0.00     0.271 C 
HETATM   19  O4  UNK     1      17.499  -0.713  17.744  1.00  0.00    -0.266 OA
HETATM   20  H6  UNK     1      20.702  -1.100  17.539  1.00  0.00     0.190 HD
BRANCH  18  21
HETATM   21  C11 UNK     1      19.124   0.432  18.993  1.00  0.00     0.050 A 
HETATM   22  C13 UNK     1      19.425   1.739  18.668  1.00  0.00     0.022 A 
HETATM   23  I1  UNK     1      19.320   2.484  16.714  1.00  0.00    -0.043 I 
HETATM   24  C15 UNK     1      19.818   2.615  19.680  1.00  0.00     0.019 A 
HETATM   25  C17 UNK     1      19.901   2.166  20.998  1.00  0.00     0.001 A 
HETATM   26  C16 UNK     1      19.591   0.840  21.304  1.00  0.00     0.001 A 
HETATM   27  C14 UNK     1      19.199  -0.036  20.292  1.00  0.00     0.018 A 
ENDBRANCH  18  21
ENDBRANCH   2  17
TORSDOF 3
ENDMDL
MODEL 4
REMARK VINA RESULT:      -9.0     14.525     16.352
REMARK  3 active torsions:
REMARK  status: ('A' for Active; 'I' for Inactive)
REMARK       I    between atoms: C8_16  and  N1_7 
REMARK    1  A    between atoms: N1_7  and  N2_8 
REMARK       I    between atoms: C12_20  and  N2_8 
REMARK    2  A    between atoms: C3_11  and  C8_16 
REMARK    3  A    between atoms: C11_19  and  C12_20 
ROOT
HETATM    1  O3  UNK     1      17.274   3.902  31.525  1.00  0.00    -0.266 OA
HETATM    2  N1  UNK     1      19.421   4.628  30.997  1.00  0.00    -0.263 N 
HETATM    3  C8  UNK     1      18.392   3.712  31.054  1.00  0.00     0.276 C 
HETATM    4  H5  UNK     1      20.324   4.452  30.566  1.00  0.00     0.190 HD
ENDROOT
BRANCH   3   5
HETATM    5  C3  UNK     1      18.759   2.413  30.474  1.00  0.00     0.110 A 
HETATM    6  C4  UNK     1      19.247   1.503  31.325  1.00  0.00     0.037 A 
HETATM    7  C1  UNK     1      19.639   0.187  30.844  1.00  0.00     0.000 A 
HETATM    8  C2  UNK     1      19.497  -0.105  29.492  1.00  0.00     0.089 A 
HETATM    9  C5  UNK     1      20.154  -0.794  31.696  1.00  0.00     0.033 A 
HETATM   10  O1  UNK     1      18.982   0.857  28.601  1.00  0.00    -0.274 OA
HETATM   11  C6  UNK     1      19.854  -1.346  28.968  1.00  0.00     0.039 A 
HETATM   12  C7  UNK     1      18.599   2.124  29.031  1.00  0.00     0.304 A 
HETATM   13  O2  UNK     1      18.151   2.956  28.249  1.00  0.00    -0.259 OA
HETATM   14  C10 UNK     1      20.366  -2.319  29.824  1.00  0.00     0.022 A 
HETATM   15  C9  UNK     1      20.516  -2.044  31.185  1.00  0.00     0.011 A 
HETATM   16 Br1  UNK     1      21.210  -3.368  32.342  1.00  0.00    -0.051 Br
ENDBRANCH   3   5
BRANCH   2  17
HETATM   17  N2  UNK     1      19.221   5.889  31.505  1.00  0.00    -0.263 N 
HETATM   18  C12 UNK     1      19.218   6.061  32.875  1.00  0.00     0.271 C 
HETATM   19  O4  UNK     1      19.383   5.163  33.698  1.00  0.00    -0.266 OA
HETATM   20  H6  UNK     1      19.103   6.647  30.840  1.00  0.00     0.190 HD
BRANCH  18  21
HETATM   21  C11 UNK     1      19.017   7.455  33.349  1.00  0.00     0.050 A 
HETATM   22  C13 UNK     1      17.798   8.092  33.230  1.00  0.00     0.022 A 
HETATM   23  I1  UNK     1      16.113   7.186  32.381  1.00  0.00    -0.043 I 
HETATM   24  C15 UNK     1      17.670   9.401  33.695  1.00  0.00     0.019 A 
HETATM   25  C17 UNK     1      18.765  10.047  34.269  1.00  0.00     0.001 A 
HETATM   26  C16 UNK     1      19.987   9.383  34.380  1.00  0.00     0.001 A 
HETATM   27  C14 UNK     1      20.115   8.074  33.915  1.00  0.00     0.018 A 
ENDBRANCH  18  21
ENDBRANCH   2  17
TORSDOF 3
ENDMDL
MODEL 5
REMARK VINA RESULT:      -9.0      7.012      9.757
REMARK  3 active torsions:
REMARK  status: ('A' for Active; 'I' for Inactive)
REMARK       I    between atoms: C8_16  and  N1_7 
REMARK    1  A    between atoms: N1_7  and  N2_8 
REMARK       I    between atoms: C12_20  and  N2_8 
REMARK    2  A    between atoms: C3_11  and  C8_16 
REMARK    3  A    between atoms: C11_19  and  C12_20 
ROOT
HETATM    1  O3  UNK     1      20.195  -4.429  35.116  1.00  0.00    -0.266 OA
HETATM    2  N1  UNK     1      19.302  -4.130  37.245  1.00  0.00    -0.263 N 
HETATM    3  C8  UNK     1      19.783  -4.871  36.187  1.00  0.00     0.276 C 
HETATM    4  H5  UNK     1      19.003  -4.522  38.133  1.00  0.00     0.190 HD
ENDROOT
BRANCH   3   5
HETATM    5  C3  UNK     1      19.764  -6.315  36.453  1.00  0.00     0.110 A 
HETATM    6  C4  UNK     1      20.882  -6.986  36.152  1.00  0.00     0.037 A 
HETATM    7  C1  UNK     1      20.960  -8.420  36.380  1.00  0.00     0.000 A 
HETATM    8  C2  UNK     1      19.856  -9.077  36.914  1.00  0.00     0.089 A 
HETATM    9  C5  UNK     1      22.106  -9.161  36.080  1.00  0.00     0.033 A 
HETATM   10  O1  UNK     1      18.682  -8.365  37.229  1.00  0.00    -0.274 OA
HETATM   11  C6  UNK     1      19.865 -10.450  37.156  1.00  0.00     0.039 A 
HETATM   12  C7  UNK     1      18.578  -6.993  37.022  1.00  0.00     0.304 A 
HETATM   13  O2  UNK     1      17.552  -6.381  37.300  1.00  0.00    -0.259 OA
HETATM   14  C10 UNK     1      21.012 -11.181  36.854  1.00  0.00     0.022 A 
HETATM   15  C9  UNK     1      22.131 -10.539  36.318  1.00  0.00     0.011 A 
HETATM   16 Br1  UNK     1      23.684 -11.537  35.912  1.00  0.00    -0.051 Br
ENDBRANCH   3   5
BRANCH   2  17
HETATM   17  N2  UNK     1      19.259  -2.761  37.137  1.00  0.00    -0.263 N 
HETATM   18  C12 UNK     1      18.083  -2.162  36.729  1.00  0.00     0.271 C 
HETATM   19  O4  UNK     1      17.048  -2.762  36.448  1.00  0.00    -0.266 OA
HETATM   20  H6  UNK     1      20.099  -2.246  37.383  1.00  0.00     0.190 HD
BRANCH  18  21
HETATM   21  C11 UNK     1      18.108  -0.678  36.656  1.00  0.00     0.050 A 
HETATM   22  C13 UNK     1      18.398  -0.015  35.481  1.00  0.00     0.022 A 
HETATM   23  I1  UNK     1      18.833  -1.004  33.687  1.00  0.00    -0.043 I 
HETATM   24  C15 UNK     1      18.405   1.380  35.474  1.00  0.00     0.019 A 
HETATM   25  C17 UNK     1      18.120   2.084  36.644  1.00  0.00     0.001 A 
HETATM   26  C16 UNK     1      17.828   1.394  37.820  1.00  0.00     0.001 A 
HETATM   27  C14 UNK     1      17.822  -0.002  37.827  1.00  0.00     0.018 A 
ENDBRANCH  18  21
ENDBRANCH   2  17
TORSDOF 3
ENDMDL
MODEL 6
REMARK VINA RESULT:      -8.8      7.518      9.494
REMARK  3 active torsions:
REMARK  status: ('A' for Active; 'I' for Inactive)
REMARK       I    between atoms: C8_16  and  N1_7 
REMARK    1  A    between atoms: N1_7  and  N2_8 
REMARK       I    between atoms: C12_20  and  N2_8 
REMARK    2  A    between atoms: C3_11  and  C8_16 
REMARK    3  A    between atoms: C11_19  and  C12_20 
ROOT
HETATM    1  O3  UNK     1      20.506  -3.189  37.374  1.00  0.00    -0.266 OA
HETATM    2  N1  UNK     1      18.872  -4.457  36.306  1.00  0.00    -0.263 N 
HETATM    3  C8  UNK     1      19.654  -3.338  36.502  1.00  0.00     0.276 C 
HETATM    4  H5  UNK     1      18.201  -4.564  35.552  1.00  0.00     0.190 HD
ENDROOT
BRANCH   3   5
HETATM    5  C3  UNK     1      19.369  -2.273  35.532  1.00  0.00     0.110 A 
HETATM    6  C4  UNK     1      19.859  -2.451  34.299  1.00  0.00     0.037 A 
HETATM    7  C1  UNK     1      19.630  -1.451  33.268  1.00  0.00     0.000 A 
HETATM    8  C2  UNK     1      18.897  -0.313  33.586  1.00  0.00     0.089 A 
HETATM    9  C5  UNK     1      20.124  -1.595  31.968  1.00  0.00     0.033 A 
HETATM   10  O1  UNK     1      18.384  -0.131  34.885  1.00  0.00    -0.274 OA
HETATM   11  C6  UNK     1      18.643   0.683  32.644  1.00  0.00     0.039 A 
HETATM   12  C7  UNK     1      18.586  -1.070  35.892  1.00  0.00     0.304 A 
HETATM   13  O2  UNK     1      18.135  -0.903  37.020  1.00  0.00    -0.259 OA
HETATM   14  C10 UNK     1      19.137   0.531  31.350  1.00  0.00     0.022 A 
HETATM   15  C9  UNK     1      19.876  -0.606  31.012  1.00  0.00     0.011 A 
HETATM   16 Br1  UNK     1      20.544  -0.805  29.255  1.00  0.00    -0.051 Br
ENDBRANCH   3   5
BRANCH   2  17
HETATM   17  N2  UNK     1      19.029  -5.535  37.143  1.00  0.00    -0.263 N 
HETATM   18  C12 UNK     1      19.777  -6.612  36.709  1.00  0.00     0.271 C 
HETATM   19  O4  UNK     1      20.328  -6.690  35.613  1.00  0.00    -0.266 OA
HETATM   20  H6  UNK     1      18.598  -5.481  38.060  1.00  0.00     0.190 HD
BRANCH  18  21
HETATM   21  C11 UNK     1      19.919  -7.730  37.677  1.00  0.00     0.050 A 
HETATM   22  C13 UNK     1      20.943  -7.763  38.602  1.00  0.00     0.022 A 
HETATM   23  I1  UNK     1      22.397  -6.264  38.750  1.00  0.00    -0.043 I 
HETATM   24  C15 UNK     1      21.023  -8.839  39.486  1.00  0.00     0.019 A 
HETATM   25  C17 UNK     1      20.076  -9.862  39.427  1.00  0.00     0.001 A 
HETATM   26  C16 UNK     1      19.049  -9.808  38.484  1.00  0.00     0.001 A 
HETATM   27  C14 UNK     1      18.969  -8.731  37.600  1.00  0.00     0.018 A 
ENDBRANCH  18  21
ENDBRANCH   2  17
TORSDOF 3
ENDMDL
MODEL 7
REMARK VINA RESULT:      -8.8     14.967     16.425
REMARK  3 active torsions:
REMARK  status: ('A' for Active; 'I' for Inactive)
REMARK       I    between atoms: C8_16  and  N1_7 
REMARK    1  A    between atoms: N1_7  and  N2_8 
REMARK       I    between atoms: C12_20  and  N2_8 
REMARK    2  A    between atoms: C3_11  and  C8_16 
REMARK    3  A    between atoms: C11_19  and  C12_20 
ROOT
HETATM    1  O3  UNK     1      17.834   2.919  33.470  1.00  0.00    -0.266 OA
HETATM    2  N1  UNK     1      17.685   4.336  31.629  1.00  0.00    -0.263 N 
HETATM    3  C8  UNK     1      18.004   3.162  32.277  1.00  0.00     0.276 C 
HETATM    4  H5  UNK     1      17.804   4.493  30.633  1.00  0.00     0.190 HD
ENDROOT
BRANCH   3   5
HETATM    5  C3  UNK     1      18.600   2.165  31.379  1.00  0.00     0.110 A 
HETATM    6  C4  UNK     1      18.998   1.020  31.947  1.00  0.00     0.037 A 
HETATM    7  C1  UNK     1      19.600  -0.029  31.140  1.00  0.00     0.000 A 
HETATM    8  C2  UNK     1      19.754   0.180  29.773  1.00  0.00     0.089 A 
HETATM    9  C5  UNK     1      20.031  -1.238  31.691  1.00  0.00     0.033 A 
HETATM   10  O1  UNK     1      19.333   1.386  29.180  1.00  0.00    -0.274 OA
HETATM   11  C6  UNK     1      20.324  -0.785  28.943  1.00  0.00     0.039 A 
HETATM   12  C7  UNK     1      18.753   2.407  29.927  1.00  0.00     0.304 A 
HETATM   13  O2  UNK     1      18.389   3.455  29.402  1.00  0.00    -0.259 OA
HETATM   14  C10 UNK     1      20.750  -1.988  29.500  1.00  0.00     0.022 A 
HETATM   15  C9  UNK     1      20.604  -2.215  30.871  1.00  0.00     0.011 A 
HETATM   16 Br1  UNK     1      21.184  -3.852  31.620  1.00  0.00    -0.051 Br
ENDBRANCH   3   5
BRANCH   2  17
HETATM   17  N2  UNK     1      17.120   5.363  32.347  1.00  0.00    -0.263 N 
HETATM   18  C12 UNK     1      17.233   6.652  31.866  1.00  0.00     0.271 C 
HETATM   19  O4  UNK     1      17.810   6.969  30.827  1.00  0.00    -0.266 OA
HETATM   20  H6  UNK     1      16.622   5.119  33.197  1.00  0.00     0.190 HD
BRANCH  18  21
HETATM   21  C11 UNK     1      16.579   7.705  32.686  1.00  0.00     0.050 A 
HETATM   22  C13 UNK     1      17.250   8.355  33.702  1.00  0.00     0.022 A 
HETATM   23  I1  UNK     1      19.241   7.942  34.203  1.00  0.00    -0.043 I 
HETATM   24  C15 UNK     1      16.583   9.336  34.435  1.00  0.00     0.019 A 
HETATM   25  C17 UNK     1      15.256   9.647  34.138  1.00  0.00     0.001 A 
HETATM   26  C16 UNK     1      14.597   8.978  33.106  1.00  0.00     0.001 A 
HETATM   27  C14 UNK     1      15.265   7.997  32.372  1.00  0.00     0.018 A 
ENDBRANCH  18  21
ENDBRANCH   2  17
TORSDOF 3
ENDMDL
MODEL 8
REMARK VINA RESULT:      -8.6      1.804      2.544
REMARK  3 active torsions:
REMARK  status: ('A' for Active; 'I' for Inactive)
REMARK       I    between atoms: C8_16  and  N1_7 
REMARK    1  A    between atoms: N1_7  and  N2_8 
REMARK       I    between atoms: C12_20  and  N2_8 
REMARK    2  A    between atoms: C3_11  and  C8_16 
REMARK    3  A    between atoms: C11_19  and  C12_20 
ROOT
HETATM    1  O3  UNK     1      24.939  -6.127  38.926  1.00  0.00    -0.266 OA
HETATM    2  N1  UNK     1      24.940  -8.444  38.710  1.00  0.00    -0.263 N 
HETATM    3  C8  UNK     1      25.524  -7.197  38.780  1.00  0.00     0.276 C 
HETATM    4  H5  UNK     1      25.454  -9.316  38.626  1.00  0.00     0.190 HD
ENDROOT
BRANCH   3   5
HETATM    5  C3  UNK     1      26.986  -7.251  38.657  1.00  0.00     0.110 A 
HETATM    6  C4  UNK     1      27.576  -6.167  38.138  1.00  0.00     0.037 A 
HETATM    7  C1  UNK     1      29.021  -6.126  37.977  1.00  0.00     0.000 A 
HETATM    8  C2  UNK     1      29.774  -7.228  38.370  1.00  0.00     0.089 A 
HETATM    9  C5  UNK     1      29.679  -5.016  37.439  1.00  0.00     0.033 A 
HETATM   10  O1  UNK     1      29.147  -8.365  38.916  1.00  0.00    -0.274 OA
HETATM   11  C6  UNK     1      31.162  -7.252  38.241  1.00  0.00     0.039 A 
HETATM   12  C7  UNK     1      27.768  -8.434  39.083  1.00  0.00     0.304 A 
HETATM   13  O2  UNK     1      27.231  -9.429  39.559  1.00  0.00    -0.259 OA
HETATM   14  C10 UNK     1      31.809  -6.141  37.705  1.00  0.00     0.022 A 
HETATM   15  C9  UNK     1      31.070  -5.025  37.305  1.00  0.00     0.011 A 
HETATM   16 Br1  UNK     1      31.956  -3.521  36.578  1.00  0.00    -0.051 Br
ENDBRANCH   3   5
BRANCH   2  17
HETATM   17  N2  UNK     1      23.573  -8.548  38.809  1.00  0.00    -0.263 N 
HETATM   18  C12 UNK     1      22.826  -8.626  37.650  1.00  0.00     0.271 C 
HETATM   19  O4  UNK     1      23.290  -8.612  36.511  1.00  0.00    -0.266 OA
HETATM   20  H6  UNK     1      23.173  -8.581  39.742  1.00  0.00     0.190 HD
BRANCH  18  21
HETATM   21  C11 UNK     1      21.358  -8.757  37.837  1.00  0.00     0.050 A 
HETATM   22  C13 UNK     1      20.544  -7.651  37.975  1.00  0.00     0.022 A 
HETATM   23  I1  UNK     1      21.267  -5.687  37.936  1.00  0.00    -0.043 I 
HETATM   24  C15 UNK     1      19.172  -7.838  38.146  1.00  0.00     0.019 A 
HETATM   25  C17 UNK     1      18.642  -9.128  38.177  1.00  0.00     0.001 A 
HETATM   26  C16 UNK     1      19.484 -10.231  38.036  1.00  0.00     0.001 A 
HETATM   27  C14 UNK     1      20.856 -10.045  37.864  1.00  0.00     0.018 A 
ENDBRANCH  18  21
ENDBRANCH   2  17
TORSDOF 3
ENDMDL
MODEL 9
REMARK VINA RESULT:      -8.5      8.492     10.311
REMARK  3 active torsions:
REMARK  status: ('A' for Active; 'I' for Inactive)
REMARK       I    between atoms: C8_16  and  N1_7 
REMARK    1  A    between atoms: N1_7  and  N2_8 
REMARK       I    between atoms: C12_20  and  N2_8 
REMARK    2  A    between atoms: C3_11  and  C8_16 
REMARK    3  A    between atoms: C11_19  and  C12_20 
ROOT
HETATM    1  O3  UNK     1      20.907  -2.167  35.146  1.00  0.00    -0.266 OA
HETATM    2  N1  UNK     1      20.065  -4.198  34.381  1.00  0.00    -0.263 N 
HETATM    3  C8  UNK     1      20.502  -2.898  34.245  1.00  0.00     0.276 C 
HETATM    4  H5  UNK     1      19.771  -4.789  33.610  1.00  0.00     0.190 HD
ENDROOT
BRANCH   3   5
HETATM    5  C3  UNK     1      20.442  -2.424  32.856  1.00  0.00     0.110 A 
HETATM    6  C4  UNK     1      19.861  -1.235  32.662  1.00  0.00     0.037 A 
HETATM    7  C1  UNK     1      19.753  -0.682  31.321  1.00  0.00     0.000 A 
HETATM    8  C2  UNK     1      20.264  -1.409  30.250  1.00  0.00     0.089 A 
HETATM    9  C5  UNK     1      19.154   0.556  31.071  1.00  0.00     0.033 A 
HETATM   10  O1  UNK     1      20.875  -2.660  30.461  1.00  0.00    -0.274 OA
HETATM   11  C6  UNK     1      20.192  -0.936  28.941  1.00  0.00     0.039 A 
HETATM   12  C7  UNK     1      20.992  -3.215  31.732  1.00  0.00     0.304 A 
HETATM   13  O2  UNK     1      21.526  -4.305  31.906  1.00  0.00    -0.259 OA
HETATM   14  C10 UNK     1      19.593   0.299  28.701  1.00  0.00     0.022 A 
HETATM   15  C9  UNK     1      19.075   1.044  29.764  1.00  0.00     0.011 A 
HETATM   16 Br1  UNK     1      18.265   2.720  29.431  1.00  0.00    -0.051 Br
ENDBRANCH   3   5
BRANCH   2  17
HETATM   17  N2  UNK     1      20.064  -4.775  35.629  1.00  0.00    -0.263 N 
HETATM   18  C12 UNK     1      20.506  -6.076  35.761  1.00  0.00     0.271 C 
HETATM   19  O4  UNK     1      20.910  -6.780  34.837  1.00  0.00    -0.266 OA
HETATM   20  H6  UNK     1      19.753  -4.202  36.408  1.00  0.00     0.190 HD
BRANCH  18  21
HETATM   21  C11 UNK     1      20.495  -6.623  37.142  1.00  0.00     0.050 A 
HETATM   22  C13 UNK     1      19.514  -7.494  37.570  1.00  0.00     0.022 A 
HETATM   23  I1  UNK     1      17.945  -8.139  36.342  1.00  0.00    -0.043 I 
HETATM   24  C15 UNK     1      19.558  -7.975  38.878  1.00  0.00     0.019 A 
HETATM   25  C17 UNK     1      20.585  -7.575  39.734  1.00  0.00     0.001 A 
HETATM   26  C16 UNK     1      21.567  -6.695  39.280  1.00  0.00     0.001 A 
HETATM   27  C14 UNK     1      21.523  -6.213  37.972  1.00  0.00     0.018 A 
ENDBRANCH  18  21
ENDBRANCH   2  17
TORSDOF 3
ENDMDL
MODEL 10
REMARK VINA RESULT:      -8.4     16.236     17.613
REMARK  3 active torsions:
REMARK  status: ('A' for Active; 'I' for Inactive)
REMARK       I    between atoms: C8_16  and  N1_7 
REMARK    1  A    between atoms: N1_7  and  N2_8 
REMARK       I    between atoms: C12_20  and  N2_8 
REMARK    2  A    between atoms: C3_11  and  C8_16 
REMARK    3  A    between atoms: C11_19  and  C12_20 
ROOT
HETATM    1  O3  UNK     1      19.346   5.897  31.293  1.00  0.00    -0.266 OA
HETATM    2  N1  UNK     1      17.907   4.526  32.506  1.00  0.00    -0.263 N 
HETATM    3  C8  UNK     1      18.360   5.729  32.007  1.00  0.00     0.276 C 
HETATM    4  H5  UNK     1      17.066   4.416  33.064  1.00  0.00     0.190 HD
ENDROOT
BRANCH   3   5
HETATM    5  C3  UNK     1      17.524   6.863  32.421  1.00  0.00     0.110 A 
HETATM    6  C4  UNK     1      18.170   7.923  32.923  1.00  0.00     0.037 A 
HETATM    7  C1  UNK     1      17.428   9.094  33.360  1.00  0.00     0.000 A 
HETATM    8  C2  UNK     1      16.041   9.092  33.249  1.00  0.00     0.089 A 
HETATM    9  C5  UNK     1      18.061  10.222  33.890  1.00  0.00     0.033 A 
HETATM   10  O1  UNK     1      15.366   7.975  32.720  1.00  0.00    -0.274 OA
HETATM   11  C6  UNK     1      15.271  10.183  33.651  1.00  0.00     0.039 A 
HETATM   12  C7  UNK     1      16.049   6.840  32.293  1.00  0.00     0.304 A 
HETATM   13  O2  UNK     1      15.453   5.871  31.834  1.00  0.00    -0.259 OA
HETATM   14  C10 UNK     1      15.910  11.303  34.177  1.00  0.00     0.022 A 
HETATM   15  C9  UNK     1      17.302  11.323  34.297  1.00  0.00     0.011 A 
HETATM   16 Br1  UNK     1      18.163  12.847  35.012  1.00  0.00    -0.051 Br
ENDBRANCH   3   5
BRANCH   2  17
HETATM   17  N2  UNK     1      18.595   3.376  32.201  1.00  0.00    -0.263 N 
HETATM   18  C12 UNK     1      18.068   2.517  31.256  1.00  0.00     0.271 C 
HETATM   19  O4  UNK     1      17.013   2.697  30.651  1.00  0.00    -0.266 OA
HETATM   20  H6  UNK     1      19.478   3.220  32.675  1.00  0.00     0.190 HD
BRANCH  18  21
HETATM   21  C11 UNK     1      18.878   1.306  30.964  1.00  0.00     0.050 A 
HETATM   22  C13 UNK     1      19.063   0.314  31.905  1.00  0.00     0.022 A 
HETATM   23  I1  UNK     1      18.238   0.393  33.828  1.00  0.00    -0.043 I 
HETATM   24  C15 UNK     1      19.833  -0.801  31.571  1.00  0.00     0.019 A 
HETATM   25  C17 UNK     1      20.402  -0.900  30.302  1.00  0.00     0.001 A 
HETATM   26  C16 UNK     1      20.201   0.115  29.366  1.00  0.00     0.001 A 
HETATM   27  C14 UNK     1      19.431   1.229  29.700  1.00  0.00     0.018 A 
ENDBRANCH  18  21
ENDBRANCH   2  17
TORSDOF 3
ENDMDL
