MODEL 1
REMARK VINA RESULT:      -7.7      0.000      0.000
REMARK  2 active torsions:
REMARK  status: ('A' for Active; 'I' for Inactive)
REMARK    1  A    between atoms: C2_3  and  C7_8 
REMARK    2  A    between atoms: C10_11  and  C12_13 
ROOT
HETATM    1  N1  UNK     1      16.290   4.774   9.471  1.00  0.00    -0.191 NA
HETATM    2  C7  UNK     1      13.158   5.184   8.069  1.00  0.00     0.036 C 
HETATM    3  C10 UNK     1      14.059   5.897   8.784  1.00  0.00     0.055 C 
HETATM    4  C19 UNK     1      15.290   5.275   9.163  1.00  0.00     0.100 C 
ENDROOT
BRANCH   3   5
HETATM    5  C12 UNK     1      13.831   7.297   9.190  1.00  0.00    -0.015 A 
HETATM    6  C14 UNK     1      14.381   8.318   8.433  1.00  0.00     0.013 A 
HETATM    7  C16 UNK     1      14.166   9.642   8.815  1.00  0.00     0.001 A 
HETATM    8  C18 UNK     1      13.404   9.925   9.948  1.00  0.00     0.000 A 
HETATM    9  C17 UNK     1      12.857   8.885  10.699  1.00  0.00     0.001 A 
HETATM   10  C15 UNK     1      13.072   7.560  10.317  1.00  0.00     0.013 A 
ENDBRANCH   3   5
BRANCH   2  11
HETATM   11  C2  UNK     1      11.845   5.642   7.615  1.00  0.00    -0.024 A 
HETATM   12  C1  UNK     1      10.666   5.418   8.343  1.00  0.00    -0.016 A 
HETATM   13  C3  UNK     1       9.435   5.895   7.831  1.00  0.00    -0.025 A 
HETATM   14  C5  UNK     1      10.680   4.730   9.568  1.00  0.00     0.013 A 
HETATM   15  C6  UNK     1       9.421   6.582   6.607  1.00  0.00     0.012 A 
HETATM   16  C8  UNK     1       8.256   5.670   8.559  1.00  0.00     0.012 A 
HETATM   17  C9  UNK     1      10.603   6.797   5.897  1.00  0.00     0.002 A 
HETATM   18  C4  UNK     1      11.813   6.327   6.400  1.00  0.00     0.012 A 
HETATM   19  C13 UNK     1       8.288   4.984   9.773  1.00  0.00     0.001 A 
HETATM   20  C11 UNK     1       9.498   4.516  10.277  1.00  0.00     0.001 A 
ENDBRANCH   2  11
TORSDOF 2
ENDMDL
MODEL 2
REMARK VINA RESULT:      -7.4     22.732     24.905
REMARK  2 active torsions:
REMARK  status: ('A' for Active; 'I' for Inactive)
REMARK    1  A    between atoms: C2_3  and  C7_8 
REMARK    2  A    between atoms: C10_11  and  C12_13 
ROOT
HETATM    1  N1  UNK     1      18.662  10.497  33.918  1.00  0.00    -0.191 NA
HETATM    2  C7  UNK     1      18.896   7.088  33.396  1.00  0.00     0.036 C 
HETATM    3  C10 UNK     1      17.952   8.058  33.414  1.00  0.00     0.055 C 
HETATM    4  C19 UNK     1      18.346   9.404  33.693  1.00  0.00     0.100 C 
ENDROOT
BRANCH   3   5
HETATM    5  C12 UNK     1      16.525   7.790  33.152  1.00  0.00    -0.015 A 
HETATM    6  C14 UNK     1      15.658   7.635  34.221  1.00  0.00     0.013 A 
HETATM    7  C16 UNK     1      14.308   7.384  33.973  1.00  0.00     0.001 A 
HETATM    8  C18 UNK     1      13.846   7.290  32.661  1.00  0.00     0.000 A 
HETATM    9  C17 UNK     1      14.733   7.448  31.596  1.00  0.00     0.001 A 
HETATM   10  C15 UNK     1      16.082   7.700  31.843  1.00  0.00     0.013 A 
ENDBRANCH   3   5
BRANCH   2  11
HETATM   11  C2  UNK     1      18.679   5.663  33.154  1.00  0.00    -0.024 A 
HETATM   12  C1  UNK     1      18.739   5.089  31.875  1.00  0.00    -0.016 A 
HETATM   13  C3  UNK     1      18.516   3.699  31.728  1.00  0.00    -0.025 A 
HETATM   14  C5  UNK     1      19.016   5.863  30.736  1.00  0.00     0.013 A 
HETATM   15  C6  UNK     1      18.240   2.924  32.866  1.00  0.00     0.012 A 
HETATM   16  C8  UNK     1      18.577   3.125  30.449  1.00  0.00     0.012 A 
HETATM   17  C9  UNK     1      18.184   3.511  34.131  1.00  0.00     0.002 A 
HETATM   18  C4  UNK     1      18.402   4.878  34.275  1.00  0.00     0.012 A 
HETATM   19  C13 UNK     1      18.852   3.909  29.328  1.00  0.00     0.001 A 
HETATM   20  C11 UNK     1      19.072   5.276  29.472  1.00  0.00     0.001 A 
ENDBRANCH   2  11
TORSDOF 2
ENDMDL
MODEL 3
REMARK VINA RESULT:      -7.4     22.557     24.714
REMARK  2 active torsions:
REMARK  status: ('A' for Active; 'I' for Inactive)
REMARK    1  A    between atoms: C2_3  and  C7_8 
REMARK    2  A    between atoms: C10_11  and  C12_13 
ROOT
HETATM    1  N1  UNK     1      17.923   2.319  28.176  1.00  0.00    -0.191 NA
HETATM    2  C7  UNK     1      19.001   4.881  30.231  1.00  0.00     0.036 C 
HETATM    3  C10 UNK     1      18.580   3.599  30.331  1.00  0.00     0.055 C 
HETATM    4  C19 UNK     1      18.218   2.894  29.140  1.00  0.00     0.100 C 
ENDROOT
BRANCH   3   5
HETATM    5  C12 UNK     1      18.481   2.888  31.619  1.00  0.00    -0.015 A 
HETATM    6  C14 UNK     1      18.740   1.528  31.662  1.00  0.00     0.013 A 
HETATM    7  C16 UNK     1      18.648   0.854  32.880  1.00  0.00     0.001 A 
HETATM    8  C18 UNK     1      18.299   1.551  34.037  1.00  0.00     0.000 A 
HETATM    9  C17 UNK     1      18.042   2.920  33.976  1.00  0.00     0.001 A 
HETATM   10  C15 UNK     1      18.134   3.594  32.758  1.00  0.00     0.013 A 
ENDBRANCH   3   5
BRANCH   2  11
HETATM   11  C2  UNK     1      19.389   5.761  31.332  1.00  0.00    -0.024 A 
HETATM   12  C1  UNK     1      18.510   6.688  31.913  1.00  0.00    -0.016 A 
HETATM   13  C3  UNK     1      18.966   7.503  32.977  1.00  0.00    -0.025 A 
HETATM   14  C5  UNK     1      17.186   6.825  31.463  1.00  0.00     0.013 A 
HETATM   15  C6  UNK     1      20.289   7.366  33.428  1.00  0.00     0.012 A 
HETATM   16  C8  UNK     1      18.087   8.430  33.558  1.00  0.00     0.012 A 
HETATM   17  C9  UNK     1      21.150   6.438  32.839  1.00  0.00     0.002 A 
HETATM   18  C4  UNK     1      20.701   5.638  31.793  1.00  0.00     0.012 A 
HETATM   19  C13 UNK     1      16.776   8.554  33.097  1.00  0.00     0.001 A 
HETATM   20  C11 UNK     1      16.326   7.752  32.052  1.00  0.00     0.001 A 
ENDBRANCH   2  11
TORSDOF 2
ENDMDL
MODEL 4
REMARK VINA RESULT:      -7.3     30.395     32.466
REMARK  2 active torsions:
REMARK  status: ('A' for Active; 'I' for Inactive)
REMARK    1  A    between atoms: C2_3  and  C7_8 
REMARK    2  A    between atoms: C10_11  and  C12_13 
ROOT
HETATM    1  N1  UNK     1      35.551  -6.929  28.897  1.00  0.00    -0.191 NA
HETATM    2  C7  UNK     1      32.119  -6.729  29.253  1.00  0.00     0.036 C 
HETATM    3  C10 UNK     1      33.186  -7.248  29.904  1.00  0.00     0.055 C 
HETATM    4  C19 UNK     1      34.491  -7.071  29.347  1.00  0.00     0.100 C 
ENDROOT
BRANCH   3   5
HETATM    5  C12 UNK     1      33.065  -7.988  31.174  1.00  0.00    -0.015 A 
HETATM    6  C14 UNK     1      33.118  -7.291  32.370  1.00  0.00     0.013 A 
HETATM    7  C16 UNK     1      33.002  -7.990  33.572  1.00  0.00     0.001 A 
HETATM    8  C18 UNK     1      32.836  -9.375  33.560  1.00  0.00     0.000 A 
HETATM    9  C17 UNK     1      32.785 -10.061  32.346  1.00  0.00     0.001 A 
HETATM   10  C15 UNK     1      32.901  -9.362  31.145  1.00  0.00     0.013 A 
ENDBRANCH   3   5
BRANCH   2  11
HETATM   11  C2  UNK     1      30.717  -6.829  29.656  1.00  0.00    -0.024 A 
HETATM   12  C1  UNK     1      29.885  -7.891  29.267  1.00  0.00    -0.016 A 
HETATM   13  C3  UNK     1      28.539  -7.910  29.702  1.00  0.00    -0.025 A 
HETATM   14  C5  UNK     1      30.360  -8.935  28.456  1.00  0.00     0.013 A 
HETATM   15  C6  UNK     1      28.063  -6.867  30.513  1.00  0.00     0.012 A 
HETATM   16  C8  UNK     1      27.707  -8.973  29.314  1.00  0.00     0.012 A 
HETATM   17  C9  UNK     1      28.904  -5.819  30.890  1.00  0.00     0.002 A 
HETATM   18  C4  UNK     1      30.228  -5.800  30.462  1.00  0.00     0.012 A 
HETATM   19  C13 UNK     1      28.195 -10.001  28.507  1.00  0.00     0.001 A 
HETATM   20  C11 UNK     1      29.520  -9.983  28.080  1.00  0.00     0.001 A 
ENDBRANCH   2  11
TORSDOF 2
ENDMDL
MODEL 5
REMARK VINA RESULT:      -7.3     30.385     32.437
REMARK  2 active torsions:
REMARK  status: ('A' for Active; 'I' for Inactive)
REMARK    1  A    between atoms: C2_3  and  C7_8 
REMARK    2  A    between atoms: C10_11  and  C12_13 
ROOT
HETATM    1  N1  UNK     1      35.179  -6.242  29.320  1.00  0.00    -0.191 NA
HETATM    2  C7  UNK     1      31.953  -7.395  28.860  1.00  0.00     0.036 C 
HETATM    3  C10 UNK     1      33.008  -7.608  29.680  1.00  0.00     0.055 C 
HETATM    4  C19 UNK     1      34.205  -6.853  29.480  1.00  0.00     0.100 C 
ENDROOT
BRANCH   3   5
HETATM    5  C12 UNK     1      32.978  -8.587  30.784  1.00  0.00    -0.015 A 
HETATM    6  C14 UNK     1      32.539  -8.182  32.034  1.00  0.00     0.013 A 
HETATM    7  C16 UNK     1      32.510  -9.107  33.078  1.00  0.00     0.001 A 
HETATM    8  C18 UNK     1      32.919 -10.422  32.857  1.00  0.00     0.000 A 
HETATM    9  C17 UNK     1      33.358 -10.812  31.592  1.00  0.00     0.001 A 
HETATM   10  C15 UNK     1      33.387  -9.888  30.548  1.00  0.00     0.013 A 
ENDBRANCH   3   5
BRANCH   2  11
HETATM   11  C2  UNK     1      30.664  -8.084  28.899  1.00  0.00    -0.024 A 
HETATM   12  C1  UNK     1      29.569  -7.613  29.641  1.00  0.00    -0.016 A 
HETATM   13  C3  UNK     1      28.356  -8.341  29.623  1.00  0.00    -0.025 A 
HETATM   14  C5  UNK     1      29.652  -6.434  30.401  1.00  0.00     0.013 A 
HETATM   15  C6  UNK     1      28.273  -9.519  28.864  1.00  0.00     0.012 A 
HETATM   16  C8  UNK     1      27.262  -7.870  30.366  1.00  0.00     0.012 A 
HETATM   17  C9  UNK     1      29.371  -9.973  28.131  1.00  0.00     0.002 A 
HETATM   18  C4  UNK     1      30.564  -9.257  28.149  1.00  0.00     0.012 A 
HETATM   19  C13 UNK     1      27.361  -6.698  31.116  1.00  0.00     0.001 A 
HETATM   20  C11 UNK     1      28.554  -5.980  31.132  1.00  0.00     0.001 A 
ENDBRANCH   2  11
TORSDOF 2
ENDMDL
MODEL 6
REMARK VINA RESULT:      -7.1     34.159     36.852
REMARK  2 active torsions:
REMARK  status: ('A' for Active; 'I' for Inactive)
REMARK    1  A    between atoms: C2_3  and  C7_8 
REMARK    2  A    between atoms: C10_11  and  C12_13 
ROOT
HETATM    1  N1  UNK     1      29.545  -3.874  39.808  1.00  0.00    -0.191 NA
HETATM    2  C7  UNK     1      30.967  -4.762  36.784  1.00  0.00     0.036 C 
HETATM    3  C10 UNK     1      30.455  -5.356  37.887  1.00  0.00     0.055 C 
HETATM    4  C19 UNK     1      29.953  -4.536  38.946  1.00  0.00     0.100 C 
ENDROOT
BRANCH   3   5
HETATM    5  C12 UNK     1      30.383  -6.821  38.047  1.00  0.00    -0.015 A 
HETATM    6  C14 UNK     1      29.148  -7.446  38.005  1.00  0.00     0.013 A 
HETATM    7  C16 UNK     1      29.080  -8.831  38.155  1.00  0.00     0.001 A 
HETATM    8  C18 UNK     1      30.247  -9.571  38.343  1.00  0.00     0.000 A 
HETATM    9  C17 UNK     1      31.483  -8.925  38.382  1.00  0.00     0.001 A 
HETATM   10  C15 UNK     1      31.551  -7.540  38.232  1.00  0.00     0.013 A 
ENDBRANCH   3   5
BRANCH   2  11
HETATM   11  C2  UNK     1      31.542  -5.432  35.619  1.00  0.00    -0.024 A 
HETATM   12  C1  UNK     1      32.915  -5.690  35.489  1.00  0.00    -0.016 A 
HETATM   13  C3  UNK     1      33.390  -6.344  34.327  1.00  0.00    -0.025 A 
HETATM   14  C5  UNK     1      33.830  -5.312  36.486  1.00  0.00     0.013 A 
HETATM   15  C6  UNK     1      32.476  -6.721  33.330  1.00  0.00     0.012 A 
HETATM   16  C8  UNK     1      34.764  -6.602  34.196  1.00  0.00     0.012 A 
HETATM   17  C9  UNK     1      31.113  -6.458  33.476  1.00  0.00     0.002 A 
HETATM   18  C4  UNK     1      30.647  -5.814  34.619  1.00  0.00     0.012 A 
HETATM   19  C13 UNK     1      35.659  -6.219  35.196  1.00  0.00     0.001 A 
HETATM   20  C11 UNK     1      35.192  -5.576  36.340  1.00  0.00     0.001 A 
ENDBRANCH   2  11
TORSDOF 2
ENDMDL
MODEL 7
REMARK VINA RESULT:      -7.0     33.650     36.239
REMARK  2 active torsions:
REMARK  status: ('A' for Active; 'I' for Inactive)
REMARK    1  A    between atoms: C2_3  and  C7_8 
REMARK    2  A    between atoms: C10_11  and  C12_13 
ROOT
HETATM    1  N1  UNK     1      25.607 -10.686  36.559  1.00  0.00    -0.191 NA
HETATM    2  C7  UNK     1      28.468  -9.126  37.713  1.00  0.00     0.036 C 
HETATM    3  C10 UNK     1      27.806  -9.316  36.548  1.00  0.00     0.055 C 
HETATM    4  C19 UNK     1      26.593 -10.073  36.556  1.00  0.00     0.100 C 
ENDROOT
BRANCH   3   5
HETATM    5  C12 UNK     1      28.277  -8.769  35.262  1.00  0.00    -0.015 A 
HETATM    6  C14 UNK     1      28.943  -9.601  34.377  1.00  0.00     0.013 A 
HETATM    7  C16 UNK     1      29.388  -9.084  33.160  1.00  0.00     0.001 A 
HETATM    8  C18 UNK     1      29.161  -7.745  32.846  1.00  0.00     0.000 A 
HETATM    9  C17 UNK     1      28.489  -6.921  33.749  1.00  0.00     0.001 A 
HETATM   10  C15 UNK     1      28.044  -7.437  34.966  1.00  0.00     0.013 A 
ENDBRANCH   3   5
BRANCH   2  11
HETATM   11  C2  UNK     1      29.726  -8.404  37.895  1.00  0.00    -0.024 A 
HETATM   12  C1  UNK     1      29.783  -7.035  38.201  1.00  0.00    -0.016 A 
HETATM   13  C3  UNK     1      31.044  -6.413  38.360  1.00  0.00    -0.025 A 
HETATM   14  C5  UNK     1      28.615  -6.269  38.352  1.00  0.00     0.013 A 
HETATM   15  C6  UNK     1      32.212  -7.179  38.209  1.00  0.00     0.012 A 
HETATM   16  C8  UNK     1      31.101  -5.044  38.666  1.00  0.00     0.012 A 
HETATM   17  C9  UNK     1      32.137  -8.539  37.906  1.00  0.00     0.002 A 
HETATM   18  C4  UNK     1      30.897  -9.151  37.748  1.00  0.00     0.012 A 
HETATM   19  C13 UNK     1      29.931  -4.298  38.811  1.00  0.00     0.001 A 
HETATM   20  C11 UNK     1      28.690  -4.910  38.656  1.00  0.00     0.001 A 
ENDBRANCH   2  11
TORSDOF 2
ENDMDL
MODEL 8
REMARK VINA RESULT:      -7.0     34.152     36.634
REMARK  2 active torsions:
REMARK  status: ('A' for Active; 'I' for Inactive)
REMARK    1  A    between atoms: C2_3  and  C7_8 
REMARK    2  A    between atoms: C10_11  and  C12_13 
ROOT
HETATM    1  N1  UNK     1      35.721  -5.765  36.343  1.00  0.00    -0.191 NA
HETATM    2  C7  UNK     1      32.610  -5.795  37.848  1.00  0.00     0.036 C 
HETATM    3  C10 UNK     1      33.148  -5.906  36.612  1.00  0.00     0.055 C 
HETATM    4  C19 UNK     1      34.569  -5.828  36.465  1.00  0.00     0.100 C 
ENDROOT
BRANCH   3   5
HETATM    5  C12 UNK     1      32.333  -6.110  35.400  1.00  0.00    -0.015 A 
HETATM    6  C14 UNK     1      31.862  -5.007  34.707  1.00  0.00     0.013 A 
HETATM    7  C16 UNK     1      31.093  -5.200  33.559  1.00  0.00     0.001 A 
HETATM    8  C18 UNK     1      30.805  -6.493  33.122  1.00  0.00     0.000 A 
HETATM    9  C17 UNK     1      31.287  -7.593  33.832  1.00  0.00     0.001 A 
HETATM   10  C15 UNK     1      32.057  -7.400  34.979  1.00  0.00     0.013 A 
ENDBRANCH   3   5
BRANCH   2  11
HETATM   11  C2  UNK     1      31.188  -5.828  38.187  1.00  0.00    -0.024 A 
HETATM   12  C1  UNK     1      30.464  -7.023  38.325  1.00  0.00    -0.016 A 
HETATM   13  C3  UNK     1      29.089  -6.965  38.655  1.00  0.00    -0.025 A 
HETATM   14  C5  UNK     1      31.074  -8.275  38.142  1.00  0.00     0.013 A 
HETATM   15  C6  UNK     1      28.478  -5.713  38.838  1.00  0.00     0.012 A 
HETATM   16  C8  UNK     1      28.365  -8.160  38.793  1.00  0.00     0.012 A 
HETATM   17  C9  UNK     1      29.214  -4.535  38.699  1.00  0.00     0.002 A 
HETATM   18  C4  UNK     1      30.566  -4.593  38.373  1.00  0.00     0.012 A 
HETATM   19  C13 UNK     1      28.986  -9.395  38.606  1.00  0.00     0.001 A 
HETATM   20  C11 UNK     1      30.339  -9.452  38.282  1.00  0.00     0.001 A 
ENDBRANCH   2  11
TORSDOF 2
ENDMDL
MODEL 9
REMARK VINA RESULT:      -6.9     29.876     31.565
REMARK  2 active torsions:
REMARK  status: ('A' for Active; 'I' for Inactive)
REMARK    1  A    between atoms: C2_3  and  C7_8 
REMARK    2  A    between atoms: C10_11  and  C12_13 
ROOT
HETATM    1  N1  UNK     1      30.341  -2.111  31.362  1.00  0.00    -0.191 NA
HETATM    2  C7  UNK     1      29.124  -5.127  30.192  1.00  0.00     0.036 C 
HETATM    3  C10 UNK     1      29.694  -4.619  31.309  1.00  0.00     0.055 C 
HETATM    4  C19 UNK     1      30.051  -3.235  31.336  1.00  0.00     0.100 C 
ENDROOT
BRANCH   3   5
HETATM    5  C12 UNK     1      29.961  -5.431  32.511  1.00  0.00    -0.015 A 
HETATM    6  C14 UNK     1      28.901  -5.821  33.313  1.00  0.00     0.013 A 
HETATM    7  C16 UNK     1      29.152  -6.590  34.449  1.00  0.00     0.001 A 
HETATM    8  C18 UNK     1      30.459  -6.958  34.767  1.00  0.00     0.000 A 
HETATM    9  C17 UNK     1      31.516  -6.556  33.949  1.00  0.00     0.001 A 
HETATM   10  C15 UNK     1      31.264  -5.787  32.812  1.00  0.00     0.013 A 
ENDBRANCH   3   5
BRANCH   2  11
HETATM   11  C2  UNK     1      28.716  -6.514  29.973  1.00  0.00    -0.024 A 
HETATM   12  C1  UNK     1      29.557  -7.473  29.386  1.00  0.00    -0.016 A 
HETATM   13  C3  UNK     1      29.083  -8.795  29.211  1.00  0.00    -0.025 A 
HETATM   14  C5  UNK     1      30.859  -7.149  28.969  1.00  0.00     0.013 A 
HETATM   15  C6  UNK     1      27.782  -9.119  29.628  1.00  0.00     0.012 A 
HETATM   16  C8  UNK     1      29.924  -9.754  28.624  1.00  0.00     0.012 A 
HETATM   17  C9  UNK     1      26.959  -8.153  30.211  1.00  0.00     0.002 A 
HETATM   18  C4  UNK     1      27.426  -6.853  30.382  1.00  0.00     0.012 A 
HETATM   19  C13 UNK     1      31.214  -9.415  28.214  1.00  0.00     0.001 A 
HETATM   20  C11 UNK     1      31.681  -8.115  28.388  1.00  0.00     0.001 A 
ENDBRANCH   2  11
TORSDOF 2
ENDMDL
MODEL 10
REMARK VINA RESULT:      -6.9     33.743     36.215
REMARK  2 active torsions:
REMARK  status: ('A' for Active; 'I' for Inactive)
REMARK    1  A    between atoms: C2_3  and  C7_8 
REMARK    2  A    between atoms: C10_11  and  C12_13 
ROOT
HETATM    1  N1  UNK     1      29.517  -3.626  39.912  1.00  0.00    -0.191 NA
HETATM    2  C7  UNK     1      29.588  -6.611  38.170  1.00  0.00     0.036 C 
HETATM    3  C10 UNK     1      30.324  -5.483  38.296  1.00  0.00     0.055 C 
HETATM    4  C19 UNK     1      29.877  -4.459  39.188  1.00  0.00     0.100 C 
ENDROOT
BRANCH   3   5
HETATM    5  C12 UNK     1      31.579  -5.259  37.553  1.00  0.00    -0.015 A 
HETATM    6  C14 UNK     1      31.559  -4.477  36.410  1.00  0.00     0.013 A 
HETATM    7  C16 UNK     1      32.746  -4.265  35.709  1.00  0.00     0.001 A 
HETATM    8  C18 UNK     1      33.935  -4.838  36.160  1.00  0.00     0.000 A 
HETATM    9  C17 UNK     1      33.937  -5.623  37.313  1.00  0.00     0.001 A 
HETATM   10  C15 UNK     1      32.751  -5.835  38.015  1.00  0.00     0.013 A 
ENDBRANCH   3   5
BRANCH   2  11
HETATM   11  C2  UNK     1      29.874  -7.747  37.296  1.00  0.00    -0.024 A 
HETATM   12  C1  UNK     1      29.429  -7.817  35.966  1.00  0.00    -0.016 A 
HETATM   13  C3  UNK     1      29.751  -8.955  35.188  1.00  0.00    -0.025 A 
HETATM   14  C5  UNK     1      28.672  -6.783  35.391  1.00  0.00     0.013 A 
HETATM   15  C6  UNK     1      30.508  -9.989  35.762  1.00  0.00     0.012 A 
HETATM   16  C8  UNK     1      29.306  -9.025  33.858  1.00  0.00     0.012 A 
HETATM   17  C9  UNK     1      30.943  -9.902  37.086  1.00  0.00     0.002 A 
HETATM   18  C4  UNK     1      30.626  -8.784  37.851  1.00  0.00     0.012 A 
HETATM   19  C13 UNK     1      28.553  -7.989  33.303  1.00  0.00     0.001 A 
HETATM   20  C11 UNK     1      28.238  -6.870  34.068  1.00  0.00     0.001 A 
ENDBRANCH   2  11
TORSDOF 2
ENDMDL
