MODEL 1
REMARK VINA RESULT:      -7.6      0.000      0.000
REMARK  5 active torsions:
REMARK  status: ('A' for Active; 'I' for Inactive)
REMARK    1  A    between atoms: C10_17  and  O3_3 
REMARK    2  A    between atoms: C19_26  and  O3_3 
REMARK    3  A    between atoms: C7_14  and  N1_6 
REMARK    4  A    between atoms: C1_8  and  C5_12 
REMARK    5  A    between atoms: C10_17  and  C3_10 
ROOT
HETATM    1  O1  UNK     1      13.028   9.528   9.700  1.00  0.00    -0.292 OA
HETATM    2  O2  UNK     1      14.370   5.566   9.806  1.00  0.00    -0.274 OA
HETATM    3  O4  UNK     1      12.214   4.829   9.725  1.00  0.00    -0.259 OA
HETATM    4  C1  UNK     1      11.050   7.454   9.515  1.00  0.00     0.105 C 
HETATM    5  C2  UNK     1      12.537   7.183   9.648  1.00  0.00     0.066 A 
HETATM    6  C3  UNK     1      10.724   8.923   9.731  1.00  0.00     0.081 C 
HETATM    7  C4  UNK     1      13.412   8.197   9.719  1.00  0.00     0.104 A 
HETATM    8  C6  UNK     1      14.848   7.951   9.814  1.00  0.00     0.033 A 
HETATM    9  C7  UNK     1      11.679   9.875   9.804  1.00  0.00     0.155 C 
HETATM   10  C8  UNK     1      12.998   5.772   9.729  1.00  0.00     0.298 A 
HETATM   11  C9  UNK     1      15.289   6.631   9.850  1.00  0.00     0.092 A 
HETATM   12  C13 UNK     1      15.808   8.969   9.868  1.00  0.00     0.017 A 
HETATM   13  C14 UNK     1      16.642   6.303   9.935  1.00  0.00     0.038 A 
HETATM   14  C15 UNK     1      17.169   8.656   9.954  1.00  0.00     0.001 A 
HETATM   15  C17 UNK     1      17.585   7.325   9.986  1.00  0.00     0.003 A 
ENDROOT
BRANCH   4  16
HETATM   16  C5  UNK     1      10.556   7.006   8.171  1.00  0.00    -0.027 A 
HETATM   17  C11 UNK     1      11.184   7.429   7.012  1.00  0.00     0.011 A 
HETATM   18  C16 UNK     1      10.704   6.996   5.782  1.00  0.00     0.020 A 
HETATM   19  C18 UNK     1       9.607   6.149   5.774  1.00  0.00     0.116 A 
HETATM   20  N2  UNK     1       8.976   5.720   6.891  1.00  0.00    -0.273 NA
HETATM   21  C12 UNK     1       9.470   6.162   8.068  1.00  0.00     0.124 A 
ENDBRANCH   4  16
BRANCH   6  22
HETATM   22  C10 UNK     1       9.299   9.261   9.889  1.00  0.00     0.294 C 
HETATM   23  O5  UNK     1       8.813  10.304   9.493  1.00  0.00    -0.259 OA
BRANCH  22  24
HETATM   24  O3  UNK     1       8.685   8.235  10.524  1.00  0.00    -0.318 OA
BRANCH  24  25
HETATM   25  C19 UNK     1       7.272   8.151  10.314  1.00  0.00     0.174 C 
HETATM   26  C20 UNK     1       6.809   6.744  10.623  1.00  0.00     0.034 C 
ENDBRANCH  24  25
ENDBRANCH  22  24
ENDBRANCH   6  22
BRANCH   9  27
HETATM   27  N1  UNK     1      11.478  11.214   9.980  1.00  0.00    -0.379 N 
HETATM   28  H6  UNK     1      10.885  11.711   9.327  1.00  0.00     0.158 HD
HETATM   29  H7  UNK     1      11.913  11.705  10.750  1.00  0.00     0.158 HD
ENDBRANCH   9  27
TORSDOF 5
ENDMDL
MODEL 2
REMARK VINA RESULT:      -7.4     31.251     34.502
REMARK  5 active torsions:
REMARK  status: ('A' for Active; 'I' for Inactive)
REMARK    1  A    between atoms: C10_17  and  O3_3 
REMARK    2  A    between atoms: C19_26  and  O3_3 
REMARK    3  A    between atoms: C7_14  and  N1_6 
REMARK    4  A    between atoms: C1_8  and  C5_12 
REMARK    5  A    between atoms: C10_17  and  C3_10 
ROOT
HETATM    1  O1  UNK     1      33.119 -11.320  30.915  1.00  0.00    -0.292 OA
HETATM    2  O2  UNK     1      35.965  -8.255  31.023  1.00  0.00    -0.274 OA
HETATM    3  O4  UNK     1      34.656  -6.985  29.654  1.00  0.00    -0.259 OA
HETATM    4  C1  UNK     1      32.497  -8.886  29.524  1.00  0.00     0.105 C 
HETATM    5  C2  UNK     1      33.791  -9.109  30.284  1.00  0.00     0.066 A 
HETATM    6  C3  UNK     1      31.695 -10.170  29.390  1.00  0.00     0.081 C 
HETATM    7  C4  UNK     1      34.017 -10.266  30.924  1.00  0.00     0.104 A 
HETATM    8  C6  UNK     1      35.243 -10.482  31.686  1.00  0.00     0.033 A 
HETATM    9  C7  UNK     1      32.009 -11.296  30.067  1.00  0.00     0.155 C 
HETATM   10  C8  UNK     1      34.813  -8.030  30.279  1.00  0.00     0.298 A 
HETATM   11  C9  UNK     1      36.187  -9.459  31.718  1.00  0.00     0.092 A 
HETATM   12  C13 UNK     1      35.522 -11.659  32.391  1.00  0.00     0.017 A 
HETATM   13  C14 UNK     1      37.384  -9.576  32.425  1.00  0.00     0.038 A 
HETATM   14  C15 UNK     1      36.718 -11.791  33.105  1.00  0.00     0.001 A 
HETATM   15  C17 UNK     1      37.647 -10.751  33.122  1.00  0.00     0.003 A 
ENDROOT
BRANCH   4  16
HETATM   16  C5  UNK     1      31.672  -7.828  30.195  1.00  0.00    -0.027 A 
HETATM   17  C11 UNK     1      31.328  -7.945  31.531  1.00  0.00     0.011 A 
HETATM   18  C16 UNK     1      30.564  -6.946  32.126  1.00  0.00     0.020 A 
HETATM   19  C18 UNK     1      30.181  -5.869  31.343  1.00  0.00     0.116 A 
HETATM   20  N2  UNK     1      30.505  -5.730  30.037  1.00  0.00    -0.273 NA
HETATM   21  C12 UNK     1      31.247  -6.719  29.494  1.00  0.00     0.124 A 
ENDBRANCH   4  16
BRANCH   6  22
HETATM   22  C10 UNK     1      30.559 -10.138  28.452  1.00  0.00     0.294 C 
HETATM   23  O5  UNK     1      30.682  -9.908  27.264  1.00  0.00    -0.259 OA
BRANCH  22  24
HETATM   24  O3  UNK     1      29.426 -10.403  29.145  1.00  0.00    -0.318 OA
BRANCH  24  25
HETATM   25  C19 UNK     1      28.315  -9.558  28.834  1.00  0.00     0.174 C 
HETATM   26  C20 UNK     1      27.943  -8.757  30.063  1.00  0.00     0.034 C 
ENDBRANCH  24  25
ENDBRANCH  22  24
ENDBRANCH   6  22
BRANCH   9  27
HETATM   27  N1  UNK     1      31.339 -12.484  30.019  1.00  0.00    -0.379 N 
HETATM   28  H6  UNK     1      30.466 -12.576  30.524  1.00  0.00     0.158 HD
HETATM   29  H7  UNK     1      31.707 -13.264  29.491  1.00  0.00     0.158 HD
ENDBRANCH   9  27
TORSDOF 5
ENDMDL
MODEL 3
REMARK VINA RESULT:      -7.4     32.018     35.043
REMARK  5 active torsions:
REMARK  status: ('A' for Active; 'I' for Inactive)
REMARK    1  A    between atoms: C10_17  and  O3_3 
REMARK    2  A    between atoms: C19_26  and  O3_3 
REMARK    3  A    between atoms: C7_14  and  N1_6 
REMARK    4  A    between atoms: C1_8  and  C5_12 
REMARK    5  A    between atoms: C10_17  and  C3_10 
ROOT
HETATM    1  O1  UNK     1      30.383  -5.759  33.803  1.00  0.00    -0.292 OA
HETATM    2  O2  UNK     1      28.451  -9.383  32.998  1.00  0.00    -0.274 OA
HETATM    3  O4  UNK     1      29.015 -10.149  35.071  1.00  0.00    -0.259 OA
HETATM    4  C1  UNK     1      30.294  -7.709  35.910  1.00  0.00     0.105 C 
HETATM    5  C2  UNK     1      29.683  -7.929  34.539  1.00  0.00     0.066 A 
HETATM    6  C3  UNK     1      31.150  -6.454  35.949  1.00  0.00     0.081 C 
HETATM    7  C4  UNK     1      29.749  -6.973  33.600  1.00  0.00     0.104 A 
HETATM    8  C6  UNK     1      29.136  -7.159  32.287  1.00  0.00     0.033 A 
HETATM    9  C7  UNK     1      31.161  -5.552  34.944  1.00  0.00     0.155 C 
HETATM   10  C8  UNK     1      29.037  -9.237  34.250  1.00  0.00     0.298 A 
HETATM   11  C9  UNK     1      28.495  -8.367  32.025  1.00  0.00     0.092 A 
HETATM   12  C13 UNK     1      29.155  -6.188  31.278  1.00  0.00     0.017 A 
HETATM   13  C14 UNK     1      27.879  -8.628  30.801  1.00  0.00     0.038 A 
HETATM   14  C15 UNK     1      28.541  -6.436  30.046  1.00  0.00     0.001 A 
HETATM   15  C17 UNK     1      27.904  -7.654  29.809  1.00  0.00     0.003 A 
ENDROOT
BRANCH   4  16
HETATM   16  C5  UNK     1      29.220  -7.636  36.955  1.00  0.00    -0.027 A 
HETATM   17  C11 UNK     1      29.307  -8.396  38.109  1.00  0.00     0.011 A 
HETATM   18  C16 UNK     1      28.297  -8.306  39.060  1.00  0.00     0.020 A 
HETATM   19  C18 UNK     1      27.239  -7.450  38.804  1.00  0.00     0.116 A 
HETATM   20  N2  UNK     1      27.129  -6.696  37.686  1.00  0.00    -0.273 NA
HETATM   21  C12 UNK     1      28.129  -6.809  36.785  1.00  0.00     0.124 A 
ENDBRANCH   4  16
BRANCH   6  22
HETATM   22  C10 UNK     1      32.002  -6.280  37.138  1.00  0.00     0.294 C 
HETATM   23  O5  UNK     1      32.745  -7.146  37.559  1.00  0.00    -0.259 OA
BRANCH  22  24
HETATM   24  O3  UNK     1      31.798  -5.035  37.630  1.00  0.00    -0.318 OA
BRANCH  24  25
HETATM   25  C19 UNK     1      30.883  -4.960  38.727  1.00  0.00     0.174 C 
HETATM   26  C20 UNK     1      29.761  -4.008  38.371  1.00  0.00     0.034 C 
ENDBRANCH  24  25
ENDBRANCH  22  24
ENDBRANCH   6  22
BRANCH   9  27
HETATM   27  N1  UNK     1      31.886  -4.395  34.902  1.00  0.00    -0.379 N 
HETATM   28  H6  UNK     1      32.894  -4.444  34.980  1.00  0.00     0.158 HD
HETATM   29  H7  UNK     1      31.425  -3.501  34.796  1.00  0.00     0.158 HD
ENDBRANCH   9  27
TORSDOF 5
ENDMDL
MODEL 4
REMARK VINA RESULT:      -7.4     34.056     36.232
REMARK  5 active torsions:
REMARK  status: ('A' for Active; 'I' for Inactive)
REMARK    1  A    between atoms: C10_17  and  O3_3 
REMARK    2  A    between atoms: C19_26  and  O3_3 
REMARK    3  A    between atoms: C7_14  and  N1_6 
REMARK    4  A    between atoms: C1_8  and  C5_12 
REMARK    5  A    between atoms: C10_17  and  C3_10 
ROOT
HETATM    1  O1  UNK     1      30.763  -6.616  38.192  1.00  0.00    -0.292 OA
HETATM    2  O2  UNK     1      27.414  -7.406  35.811  1.00  0.00    -0.274 OA
HETATM    3  O4  UNK     1      28.413  -6.357  34.050  1.00  0.00    -0.259 OA
HETATM    4  C1  UNK     1      30.875  -5.806  35.439  1.00  0.00     0.105 C 
HETATM    5  C2  UNK     1      29.675  -6.496  36.061  1.00  0.00     0.066 A 
HETATM    6  C3  UNK     1      31.890  -5.389  36.490  1.00  0.00     0.081 C 
HETATM    7  C4  UNK     1      29.690  -6.860  37.352  1.00  0.00     0.104 A 
HETATM    8  C6  UNK     1      28.555  -7.554  37.955  1.00  0.00     0.033 A 
HETATM    9  C7  UNK     1      31.814  -5.796  37.775  1.00  0.00     0.155 C 
HETATM   10  C8  UNK     1      28.474  -6.732  35.217  1.00  0.00     0.298 A 
HETATM   11  C9  UNK     1      27.443  -7.814  37.158  1.00  0.00     0.092 A 
HETATM   12  C13 UNK     1      28.524  -7.977  39.289  1.00  0.00     0.017 A 
HETATM   13  C14 UNK     1      26.318  -8.476  37.648  1.00  0.00     0.038 A 
HETATM   14  C15 UNK     1      27.402  -8.642  39.796  1.00  0.00     0.001 A 
HETATM   15  C17 UNK     1      26.302  -8.892  38.976  1.00  0.00     0.003 A 
ENDROOT
BRANCH   4  16
HETATM   16  C5  UNK     1      31.520  -6.698  34.420  1.00  0.00    -0.027 A 
HETATM   17  C11 UNK     1      31.650  -6.285  33.105  1.00  0.00     0.011 A 
HETATM   18  C16 UNK     1      32.254  -7.133  32.183  1.00  0.00     0.020 A 
HETATM   19  C18 UNK     1      32.703  -8.365  32.631  1.00  0.00     0.116 A 
HETATM   20  N2  UNK     1      32.589  -8.792  33.909  1.00  0.00    -0.273 NA
HETATM   21  C12 UNK     1      31.997  -7.942  34.776  1.00  0.00     0.124 A 
ENDBRANCH   4  16
BRANCH   6  22
HETATM   22  C10 UNK     1      32.962  -4.482  36.041  1.00  0.00     0.294 C 
HETATM   23  O5  UNK     1      32.778  -3.307  35.784  1.00  0.00    -0.259 OA
BRANCH  22  24
HETATM   24  O3  UNK     1      34.118  -5.185  35.980  1.00  0.00    -0.318 OA
BRANCH  24  25
HETATM   25  C19 UNK     1      34.848  -5.045  34.758  1.00  0.00     0.174 C 
HETATM   26  C20 UNK     1      35.417  -6.391  34.364  1.00  0.00     0.034 C 
ENDBRANCH  24  25
ENDBRANCH  22  24
ENDBRANCH   6  22
BRANCH   9  27
HETATM   27  N1  UNK     1      32.686  -5.484  38.778  1.00  0.00    -0.379 N 
HETATM   28  H6  UNK     1      32.321  -5.124  39.651  1.00  0.00     0.158 HD
HETATM   29  H7  UNK     1      33.683  -5.607  38.653  1.00  0.00     0.158 HD
ENDBRANCH   9  27
TORSDOF 5
ENDMDL
MODEL 5
REMARK VINA RESULT:      -7.4     32.301     35.425
REMARK  5 active torsions:
REMARK  status: ('A' for Active; 'I' for Inactive)
REMARK    1  A    between atoms: C10_17  and  O3_3 
REMARK    2  A    between atoms: C19_26  and  O3_3 
REMARK    3  A    between atoms: C7_14  and  N1_6 
REMARK    4  A    between atoms: C1_8  and  C5_12 
REMARK    5  A    between atoms: C10_17  and  C3_10 
ROOT
HETATM    1  O1  UNK     1      30.332  -5.866  33.652  1.00  0.00    -0.292 OA
HETATM    2  O2  UNK     1      29.196  -9.678  32.355  1.00  0.00    -0.274 OA
HETATM    3  O4  UNK     1      30.626 -10.621  33.860  1.00  0.00    -0.259 OA
HETATM    4  C1  UNK     1      31.476  -8.122  35.011  1.00  0.00     0.105 C 
HETATM    5  C2  UNK     1      30.494  -8.247  33.861  1.00  0.00     0.066 A 
HETATM    6  C3  UNK     1      31.954  -6.691  35.190  1.00  0.00     0.081 C 
HETATM    7  C4  UNK     1      29.986  -7.152  33.275  1.00  0.00     0.104 A 
HETATM    8  C6  UNK     1      29.015  -7.258  32.190  1.00  0.00     0.033 A 
HETATM    9  C7  UNK     1      31.386  -5.650  34.542  1.00  0.00     0.155 C 
HETATM   10  C8  UNK     1      30.132  -9.606  33.380  1.00  0.00     0.298 A 
HETATM   11  C9  UNK     1      28.641  -8.529  31.761  1.00  0.00     0.092 A 
HETATM   12  C13 UNK     1      28.435  -6.151  31.557  1.00  0.00     0.017 A 
HETATM   13  C14 UNK     1      27.717  -8.724  30.735  1.00  0.00     0.038 A 
HETATM   14  C15 UNK     1      27.507  -6.330  30.526  1.00  0.00     0.001 A 
HETATM   15  C17 UNK     1      27.148  -7.615  30.117  1.00  0.00     0.003 A 
ENDROOT
BRANCH   4  16
HETATM   16  C5  UNK     1      30.859  -8.626  36.282  1.00  0.00    -0.027 A 
HETATM   17  C11 UNK     1      29.625  -8.157  36.699  1.00  0.00     0.011 A 
HETATM   18  C16 UNK     1      29.077  -8.644  37.881  1.00  0.00     0.020 A 
HETATM   19  C18 UNK     1      29.802  -9.586  38.593  1.00  0.00     0.116 A 
HETATM   20  N2  UNK     1      31.009 -10.061  38.207  1.00  0.00    -0.273 NA
HETATM   21  C12 UNK     1      31.509  -9.565  37.054  1.00  0.00     0.124 A 
ENDBRANCH   4  16
BRANCH   6  22
HETATM   22  C10 UNK     1      33.100  -6.491  36.093  1.00  0.00     0.294 C 
HETATM   23  O5  UNK     1      34.125  -7.144  36.026  1.00  0.00    -0.259 OA
BRANCH  22  24
HETATM   24  O3  UNK     1      32.795  -5.494  36.957  1.00  0.00    -0.318 OA
BRANCH  24  25
HETATM   25  C19 UNK     1      32.231  -5.921  38.200  1.00  0.00     0.174 C 
HETATM   26  C20 UNK     1      30.953  -5.150  38.455  1.00  0.00     0.034 C 
ENDBRANCH  24  25
ENDBRANCH  22  24
ENDBRANCH   6  22
BRANCH   9  27
HETATM   27  N1  UNK     1      31.740  -4.336  34.654  1.00  0.00    -0.379 N 
HETATM   28  H6  UNK     1      32.675  -4.055  34.386  1.00  0.00     0.158 HD
HETATM   29  H7  UNK     1      31.080  -3.651  34.999  1.00  0.00     0.158 HD
ENDBRANCH   9  27
TORSDOF 5
ENDMDL
MODEL 6
REMARK VINA RESULT:      -7.3     32.481     35.574
REMARK  5 active torsions:
REMARK  status: ('A' for Active; 'I' for Inactive)
REMARK    1  A    between atoms: C10_17  and  O3_3 
REMARK    2  A    between atoms: C19_26  and  O3_3 
REMARK    3  A    between atoms: C7_14  and  N1_6 
REMARK    4  A    between atoms: C1_8  and  C5_12 
REMARK    5  A    between atoms: C10_17  and  C3_10 
ROOT
HETATM    1  O1  UNK     1      28.026  -7.012  35.424  1.00  0.00    -0.292 OA
HETATM    2  O2  UNK     1      30.277  -9.543  37.881  1.00  0.00    -0.274 OA
HETATM    3  O4  UNK     1      32.067  -9.312  36.487  1.00  0.00    -0.259 OA
HETATM    4  C1  UNK     1      30.773  -7.450  34.710  1.00  0.00     0.105 C 
HETATM    5  C2  UNK     1      30.111  -8.085  35.919  1.00  0.00     0.066 A 
HETATM    6  C3  UNK     1      29.761  -6.763  33.810  1.00  0.00     0.081 C 
HETATM    7  C4  UNK     1      28.825  -7.831  36.204  1.00  0.00     0.104 A 
HETATM    8  C6  UNK     1      28.183  -8.409  37.382  1.00  0.00     0.033 A 
HETATM    9  C7  UNK     1      28.478  -6.564  34.180  1.00  0.00     0.155 C 
HETATM   10  C8  UNK     1      30.907  -9.017  36.759  1.00  0.00     0.298 A 
HETATM   11  C9  UNK     1      28.937  -9.250  38.196  1.00  0.00     0.092 A 
HETATM   12  C13 UNK     1      26.853  -8.160  37.741  1.00  0.00     0.017 A 
HETATM   13  C14 UNK     1      28.408  -9.842  39.343  1.00  0.00     0.038 A 
HETATM   14  C15 UNK     1      26.308  -8.746  38.889  1.00  0.00     0.001 A 
HETATM   15  C17 UNK     1      27.085  -9.585  39.688  1.00  0.00     0.003 A 
ENDROOT
BRANCH   4  16
HETATM   16  C5  UNK     1      31.827  -6.475  35.145  1.00  0.00    -0.027 A 
HETATM   17  C11 UNK     1      31.506  -5.416  35.977  1.00  0.00     0.011 A 
HETATM   18  C16 UNK     1      32.505  -4.529  36.364  1.00  0.00     0.020 A 
HETATM   19  C18 UNK     1      33.789  -4.751  35.894  1.00  0.00     0.116 A 
HETATM   20  N2  UNK     1      34.129  -5.778  35.081  1.00  0.00    -0.273 NA
HETATM   21  C12 UNK     1      33.133  -6.619  34.726  1.00  0.00     0.124 A 
ENDBRANCH   4  16
BRANCH   6  22
HETATM   22  C10 UNK     1      30.244  -6.344  32.482  1.00  0.00     0.294 C 
HETATM   23  O5  UNK     1      30.651  -7.126  31.643  1.00  0.00    -0.259 OA
BRANCH  22  24
HETATM   24  O3  UNK     1      30.145  -4.997  32.398  1.00  0.00    -0.318 OA
BRANCH  24  25
HETATM   25  C19 UNK     1      29.887  -4.489  31.085  1.00  0.00     0.174 C 
HETATM   26  C20 UNK     1      30.083  -2.988  31.089  1.00  0.00     0.034 C 
ENDBRANCH  24  25
ENDBRANCH  22  24
ENDBRANCH   6  22
BRANCH   9  27
HETATM   27  N1  UNK     1      27.508  -5.945  33.444  1.00  0.00    -0.379 N 
HETATM   28  H6  UNK     1      27.155  -5.048  33.753  1.00  0.00     0.158 HD
HETATM   29  H7  UNK     1      27.144  -6.375  32.603  1.00  0.00     0.158 HD
ENDBRANCH   9  27
TORSDOF 5
ENDMDL
MODEL 7
REMARK VINA RESULT:      -7.2     31.504     34.534
REMARK  5 active torsions:
REMARK  status: ('A' for Active; 'I' for Inactive)
REMARK    1  A    between atoms: C10_17  and  O3_3 
REMARK    2  A    between atoms: C19_26  and  O3_3 
REMARK    3  A    between atoms: C7_14  and  N1_6 
REMARK    4  A    between atoms: C1_8  and  C5_12 
REMARK    5  A    between atoms: C10_17  and  C3_10 
ROOT
HETATM    1  O1  UNK     1      28.949  -7.834  35.769  1.00  0.00    -0.292 OA
HETATM    2  O2  UNK     1      31.652  -4.670  36.208  1.00  0.00    -0.274 OA
HETATM    3  O4  UNK     1      32.740  -5.332  34.316  1.00  0.00    -0.259 OA
HETATM    4  C1  UNK     1      30.939  -7.500  33.726  1.00  0.00     0.105 C 
HETATM    5  C2  UNK     1      30.825  -6.596  34.939  1.00  0.00     0.066 A 
HETATM    6  C3  UNK     1      30.044  -8.721  33.848  1.00  0.00     0.081 C 
HETATM    7  C4  UNK     1      29.865  -6.799  35.854  1.00  0.00     0.104 A 
HETATM    8  C6  UNK     1      29.723  -5.917  37.009  1.00  0.00     0.033 A 
HETATM    9  C7  UNK     1      29.110  -8.842  34.816  1.00  0.00     0.155 C 
HETATM   10  C8  UNK     1      31.817  -5.502  35.107  1.00  0.00     0.298 A 
HETATM   11  C9  UNK     1      30.625  -4.866  37.151  1.00  0.00     0.092 A 
HETATM   12  C13 UNK     1      28.727  -6.067  37.982  1.00  0.00     0.017 A 
HETATM   13  C14 UNK     1      30.561  -3.972  38.220  1.00  0.00     0.038 A 
HETATM   14  C15 UNK     1      28.650  -5.179  39.060  1.00  0.00     0.001 A 
HETATM   15  C17 UNK     1      29.566  -4.133  39.178  1.00  0.00     0.003 A 
ENDROOT
BRANCH   4  16
HETATM   16  C5  UNK     1      30.610  -6.738  32.475  1.00  0.00    -0.027 A 
HETATM   17  C11 UNK     1      29.502  -5.911  32.425  1.00  0.00     0.011 A 
HETATM   18  C16 UNK     1      29.223  -5.218  31.252  1.00  0.00     0.020 A 
HETATM   19  C18 UNK     1      30.081  -5.389  30.178  1.00  0.00     0.116 A 
HETATM   20  N2  UNK     1      31.171  -6.190  30.201  1.00  0.00    -0.273 NA
HETATM   21  C12 UNK     1      31.409  -6.848  31.357  1.00  0.00     0.124 A 
ENDBRANCH   4  16
BRANCH   6  22
HETATM   22  C10 UNK     1      30.264  -9.796  32.864  1.00  0.00     0.294 C 
HETATM   23  O5  UNK     1      31.327 -10.372  32.733  1.00  0.00    -0.259 OA
BRANCH  22  24
HETATM   24  O3  UNK     1      29.110  -9.994  32.184  1.00  0.00    -0.318 OA
BRANCH  24  25
HETATM   25  C19 UNK     1      29.137  -9.583  30.814  1.00  0.00     0.174 C 
HETATM   26  C20 UNK     1      27.943  -8.694  30.540  1.00  0.00     0.034 C 
ENDBRANCH  24  25
ENDBRANCH  22  24
ENDBRANCH   6  22
BRANCH   9  27
HETATM   27  N1  UNK     1      28.256  -9.893  34.992  1.00  0.00    -0.379 N 
HETATM   28  H6  UNK     1      27.801 -10.296  34.181  1.00  0.00     0.158 HD
HETATM   29  H7  UNK     1      28.076 -10.265  35.915  1.00  0.00     0.158 HD
ENDBRANCH   9  27
TORSDOF 5
ENDMDL
MODEL 8
REMARK VINA RESULT:      -7.1     32.147     35.367
REMARK  5 active torsions:
REMARK  status: ('A' for Active; 'I' for Inactive)
REMARK    1  A    between atoms: C10_17  and  O3_3 
REMARK    2  A    between atoms: C19_26  and  O3_3 
REMARK    3  A    between atoms: C7_14  and  N1_6 
REMARK    4  A    between atoms: C1_8  and  C5_12 
REMARK    5  A    between atoms: C10_17  and  C3_10 
ROOT
HETATM    1  O1  UNK     1      30.742 -10.178  33.532  1.00  0.00    -0.292 OA
HETATM    2  O2  UNK     1      27.989  -7.487  31.891  1.00  0.00    -0.274 OA
HETATM    3  O4  UNK     1      27.806  -6.438  33.907  1.00  0.00    -0.259 OA
HETATM    4  C1  UNK     1      29.766  -8.079  35.233  1.00  0.00     0.105 C 
HETATM    5  C2  UNK     1      29.335  -8.255  33.789  1.00  0.00     0.066 A 
HETATM    6  C3  UNK     1      30.573  -9.268  35.728  1.00  0.00     0.081 C 
HETATM    7  C4  UNK     1      29.837  -9.250  33.042  1.00  0.00     0.104 A 
HETATM    8  C6  UNK     1      29.457  -9.411  31.642  1.00  0.00     0.033 A 
HETATM    9  C7  UNK     1      31.026 -10.233  34.899  1.00  0.00     0.155 C 
HETATM   10  C8  UNK     1      28.324  -7.320  33.229  1.00  0.00     0.298 A 
HETATM   11  C9  UNK     1      28.540  -8.514  31.101  1.00  0.00     0.092 A 
HETATM   12  C13 UNK     1      29.965 -10.417  30.810  1.00  0.00     0.017 A 
HETATM   13  C14 UNK     1      28.124  -8.589  29.772  1.00  0.00     0.038 A 
HETATM   14  C15 UNK     1      29.557 -10.505  29.475  1.00  0.00     0.001 A 
HETATM   15  C17 UNK     1      28.639  -9.592  28.957  1.00  0.00     0.003 A 
ENDROOT
BRANCH   4  16
HETATM   16  C5  UNK     1      30.555  -6.814  35.392  1.00  0.00    -0.027 A 
HETATM   17  C11 UNK     1      31.625  -6.541  34.557  1.00  0.00     0.011 A 
HETATM   18  C16 UNK     1      32.337  -5.359  34.728  1.00  0.00     0.020 A 
HETATM   19  C18 UNK     1      31.935  -4.500  35.738  1.00  0.00     0.116 A 
HETATM   20  N2  UNK     1      30.894  -4.741  36.567  1.00  0.00    -0.273 NA
HETATM   21  C12 UNK     1      30.226  -5.899  36.370  1.00  0.00     0.124 A 
ENDBRANCH   4  16
BRANCH   6  22
HETATM   22  C10 UNK     1      30.818  -9.335  37.179  1.00  0.00     0.294 C 
HETATM   23  O5  UNK     1      29.941  -9.547  37.995  1.00  0.00    -0.259 OA
BRANCH  22  24
HETATM   24  O3  UNK     1      32.138  -9.125  37.399  1.00  0.00    -0.318 OA
BRANCH  24  25
HETATM   25  C19 UNK     1      32.441  -8.026  38.263  1.00  0.00     0.174 C 
HETATM   26  C20 UNK     1      33.607  -7.251  37.688  1.00  0.00     0.034 C 
ENDBRANCH  24  25
ENDBRANCH  22  24
ENDBRANCH   6  22
BRANCH   9  27
HETATM   27  N1  UNK     1      31.768 -11.324  35.253  1.00  0.00    -0.379 N 
HETATM   28  H6  UNK     1      31.320 -12.232  35.285  1.00  0.00     0.158 HD
HETATM   29  H7  UNK     1      32.748 -11.229  35.482  1.00  0.00     0.158 HD
ENDBRANCH   9  27
TORSDOF 5
ENDMDL
MODEL 9
REMARK VINA RESULT:      -7.1     31.542     34.822
REMARK  5 active torsions:
REMARK  status: ('A' for Active; 'I' for Inactive)
REMARK    1  A    between atoms: C10_17  and  O3_3 
REMARK    2  A    between atoms: C19_26  and  O3_3 
REMARK    3  A    between atoms: C7_14  and  N1_6 
REMARK    4  A    between atoms: C1_8  and  C5_12 
REMARK    5  A    between atoms: C10_17  and  C3_10 
ROOT
HETATM    1  O1  UNK     1      30.118  -8.839  33.742  1.00  0.00    -0.292 OA
HETATM    2  O2  UNK     1      30.066  -6.024  30.646  1.00  0.00    -0.274 OA
HETATM    3  O4  UNK     1      30.391  -4.348  32.159  1.00  0.00    -0.259 OA
HETATM    4  C1  UNK     1      30.591  -6.094  34.440  1.00  0.00     0.105 C 
HETATM    5  C2  UNK     1      30.326  -6.563  33.022  1.00  0.00     0.066 A 
HETATM    6  C3  UNK     1      30.340  -7.197  35.454  1.00  0.00     0.081 C 
HETATM    7  C4  UNK     1      30.123  -7.863  32.759  1.00  0.00     0.104 A 
HETATM    8  C6  UNK     1      29.900  -8.333  31.395  1.00  0.00     0.033 A 
HETATM    9  C7  UNK     1      30.130  -8.482  35.091  1.00  0.00     0.155 C 
HETATM   10  C8  UNK     1      30.267  -5.549  31.937  1.00  0.00     0.298 A 
HETATM   11  C9  UNK     1      29.884  -7.392  30.368  1.00  0.00     0.092 A 
HETATM   12  C13 UNK     1      29.705  -9.678  31.059  1.00  0.00     0.017 A 
HETATM   13  C14 UNK     1      29.682  -7.751  29.036  1.00  0.00     0.038 A 
HETATM   14  C15 UNK     1      29.502 -10.054  29.727  1.00  0.00     0.001 A 
HETATM   15  C17 UNK     1      29.492  -9.092  28.717  1.00  0.00     0.003 A 
ENDROOT
BRANCH   4  16
HETATM   16  C5  UNK     1      31.996  -5.583  34.567  1.00  0.00    -0.027 A 
HETATM   17  C11 UNK     1      32.249  -4.361  35.167  1.00  0.00     0.011 A 
HETATM   18  C16 UNK     1      33.562  -3.915  35.272  1.00  0.00     0.020 A 
HETATM   19  C18 UNK     1      34.566  -4.725  34.766  1.00  0.00     0.116 A 
HETATM   20  N2  UNK     1      34.346  -5.923  34.177  1.00  0.00    -0.273 NA
HETATM   21  C12 UNK     1      33.058  -6.323  34.093  1.00  0.00     0.124 A 
ENDBRANCH   4  16
BRANCH   6  22
HETATM   22  C10 UNK     1      30.306  -6.791  36.870  1.00  0.00     0.294 C 
HETATM   23  O5  UNK     1      29.535  -5.957  37.306  1.00  0.00    -0.259 OA
BRANCH  22  24
HETATM   24  O3  UNK     1      31.249  -7.495  37.538  1.00  0.00    -0.318 OA
BRANCH  24  25
HETATM   25  C19 UNK     1      32.281  -6.706  38.138  1.00  0.00     0.174 C 
HETATM   26  C20 UNK     1      33.626  -7.191  37.642  1.00  0.00     0.034 C 
ENDBRANCH  24  25
ENDBRANCH  22  24
ENDBRANCH   6  22
BRANCH   9  27
HETATM   27  N1  UNK     1      29.912  -9.536  35.932  1.00  0.00    -0.379 N 
HETATM   28  H6  UNK     1      30.633  -9.792  36.594  1.00  0.00     0.158 HD
HETATM   29  H7  UNK     1      29.044 -10.055  35.894  1.00  0.00     0.158 HD
ENDBRANCH   9  27
TORSDOF 5
ENDMDL
MODEL 10
REMARK VINA RESULT:      -7.0     31.949     35.050
REMARK  5 active torsions:
REMARK  status: ('A' for Active; 'I' for Inactive)
REMARK    1  A    between atoms: C10_17  and  O3_3 
REMARK    2  A    between atoms: C19_26  and  O3_3 
REMARK    3  A    between atoms: C7_14  and  N1_6 
REMARK    4  A    between atoms: C1_8  and  C5_12 
REMARK    5  A    between atoms: C10_17  and  C3_10 
ROOT
HETATM    1  O1  UNK     1      28.393  -8.574  34.241  1.00  0.00    -0.292 OA
HETATM    2  O2  UNK     1      30.582  -5.931  31.845  1.00  0.00    -0.274 OA
HETATM    3  O4  UNK     1      31.281  -4.816  33.707  1.00  0.00    -0.259 OA
HETATM    4  C1  UNK     1      29.966  -6.573  35.571  1.00  0.00     0.105 C 
HETATM    5  C2  UNK     1      29.893  -6.713  34.062  1.00  0.00     0.066 A 
HETATM    6  C3  UNK     1      28.937  -7.447  36.268  1.00  0.00     0.081 C 
HETATM    7  C4  UNK     1      29.147  -7.678  33.501  1.00  0.00     0.104 A 
HETATM    8  C6  UNK     1      29.094  -7.845  32.052  1.00  0.00     0.033 A 
HETATM    9  C7  UNK     1      28.221  -8.387  35.614  1.00  0.00     0.155 C 
HETATM   10  C8  UNK     1      30.640  -5.742  33.221  1.00  0.00     0.298 A 
HETATM   11  C9  UNK     1      29.824  -6.963  31.259  1.00  0.00     0.092 A 
HETATM   12  C13 UNK     1      28.352  -8.846  31.413  1.00  0.00     0.017 A 
HETATM   13  C14 UNK     1      29.835  -7.052  29.868  1.00  0.00     0.038 A 
HETATM   14  C15 UNK     1      28.353  -8.948  30.018  1.00  0.00     0.001 A 
HETATM   15  C17 UNK     1      29.095  -8.053  29.247  1.00  0.00     0.003 A 
ENDROOT
BRANCH   4  16
HETATM   16  C5  UNK     1      31.345  -6.904  36.060  1.00  0.00    -0.027 A 
HETATM   17  C11 UNK     1      31.904  -8.144  35.803  1.00  0.00     0.011 A 
HETATM   18  C16 UNK     1      33.185  -8.421  36.268  1.00  0.00     0.020 A 
HETATM   19  C18 UNK     1      33.848  -7.431  36.974  1.00  0.00     0.116 A 
HETATM   20  N2  UNK     1      33.325  -6.212  37.239  1.00  0.00    -0.273 NA
HETATM   21  C12 UNK     1      32.079  -5.978  36.772  1.00  0.00     0.124 A 
ENDBRANCH   4  16
BRANCH   6  22
HETATM   22  C10 UNK     1      28.733  -7.199  37.706  1.00  0.00     0.294 C 
HETATM   23  O5  UNK     1      28.829  -8.068  38.553  1.00  0.00    -0.259 OA
BRANCH  22  24
HETATM   24  O3  UNK     1      28.437  -5.889  37.876  1.00  0.00    -0.318 OA
BRANCH  24  25
HETATM   25  C19 UNK     1      28.972  -5.296  39.062  1.00  0.00     0.174 C 
HETATM   26  C20 UNK     1      29.693  -4.017  38.693  1.00  0.00     0.034 C 
ENDBRANCH  24  25
ENDBRANCH  22  24
ENDBRANCH   6  22
BRANCH   9  27
HETATM   27  N1  UNK     1      27.290  -9.223  36.160  1.00  0.00    -0.379 N 
HETATM   28  H6  UNK     1      27.601 -10.081  36.600  1.00  0.00     0.158 HD
HETATM   29  H7  UNK     1      26.306  -8.994  36.127  1.00  0.00     0.158 HD
ENDBRANCH   9  27
TORSDOF 5
ENDMDL
