MODEL 1
REMARK VINA RESULT:      -9.5      0.000      0.000
REMARK  8 active torsions:
REMARK  status: ('A' for Active; 'I' for Inactive)
REMARK    1  A    between atoms: C2_8  and  O1_1 
REMARK    2  A    between atoms: C3_9  and  O1_1 
REMARK    3  A    between atoms: C4_10  and  O2_2 
REMARK    4  A    between atoms: C9_15  and  O2_2 
REMARK    5  A    between atoms: C20_26  and  N1_5 
REMARK    6  A    between atoms: C1_7  and  C7_13 
REMARK    7  A    between atoms: C3_9  and  C4_10 
REMARK    8  A    between atoms: C6_12  and  C8_14 
ROOT
HETATM    1  N2  UNK     1      20.507   5.744  30.049  1.00  0.00    -0.191 NA
HETATM    2  C7  UNK     1      17.826   4.214  31.585  1.00  0.00     0.035 C 
HETATM    3  C8  UNK     1      18.412   5.442  31.558  1.00  0.00     0.055 C 
HETATM    4  C24 UNK     1      19.572   5.599  30.719  1.00  0.00     0.100 C 
ENDROOT
BRANCH   3   5
HETATM    5  C6  UNK     1      17.931   6.586  32.316  1.00  0.00    -0.015 A 
HETATM    6  C16 UNK     1      16.565   6.853  32.385  1.00  0.00     0.015 A 
HETATM    7  C21 UNK     1      16.104   7.949  33.114  1.00  0.00     0.037 A 
HETATM    8  C20 UNK     1      17.010   8.779  33.775  1.00  0.00     0.102 A 
HETATM    9  C22 UNK     1      18.378   8.511  33.706  1.00  0.00     0.037 A 
HETATM   10  C17 UNK     1      18.839   7.415  32.976  1.00  0.00     0.015 A 
BRANCH   8  11
HETATM   11  N1  UNK     1      16.543   9.895  34.517  1.00  0.00    -0.116 N 
HETATM   12  O3  UNK     1      15.627   9.726  35.358  1.00  0.00    -0.532 OA
HETATM   13  O4  UNK     1      17.059  11.021  34.313  1.00  0.00    -0.532 OA
ENDBRANCH   8  11
ENDBRANCH   3   5
BRANCH   2  14
HETATM   14  C1  UNK     1      18.273   3.035  30.831  1.00  0.00    -0.032 A 
HETATM   15  C5  UNK     1      19.050   2.076  31.463  1.00  0.00     0.048 A 
HETATM   16  C2  UNK     1      19.476   0.957  30.747  1.00  0.00     0.069 A 
HETATM   17  C11 UNK     1      19.118   0.810  29.407  1.00  0.00     0.037 A 
HETATM   18  C12 UNK     1      18.337   1.782  28.783  1.00  0.00     0.004 A 
HETATM   19  C10 UNK     1      17.911   2.900  29.499  1.00  0.00     0.011 A 
BRANCH  16  20
HETATM   20  O1  UNK     1      20.238   0.008  31.356  1.00  0.00    -0.349 OA
BRANCH  20  21
HETATM   21  C3  UNK     1      19.703  -1.312  31.421  1.00  0.00     0.202 C 
BRANCH  21  22
HETATM   22  C4  UNK     1      19.282  -1.606  32.848  1.00  0.00     0.202 C 
BRANCH  22  23
HETATM   23  O2  UNK     1      18.088  -0.889  33.136  1.00  0.00    -0.349 OA
BRANCH  23  24
HETATM   24  C9  UNK     1      17.975  -0.360  34.395  1.00  0.00     0.068 A 
HETATM   25  C14 UNK     1      17.649  -1.188  35.463  1.00  0.00     0.037 A 
HETATM   26  C18 UNK     1      17.534  -0.650  36.744  1.00  0.00     0.009 A 
HETATM   27  C13 UNK     1      17.744   0.714  36.950  1.00  0.00    -0.062 A 
HETATM   28  C19 UNK     1      18.071   1.538  35.873  1.00  0.00     0.009 A 
HETATM   29  C23 UNK     1      17.621   1.289  38.320  1.00  0.00     0.048 C 
HETATM   30  C15 UNK     1      18.186   1.000  34.592  1.00  0.00     0.037 A 
ENDBRANCH  23  24
ENDBRANCH  22  23
ENDBRANCH  21  22
ENDBRANCH  20  21
ENDBRANCH  16  20
ENDBRANCH   2  14
TORSDOF 8
ENDMDL
MODEL 2
REMARK VINA RESULT:      -9.3      2.842      8.231
REMARK  8 active torsions:
REMARK  status: ('A' for Active; 'I' for Inactive)
REMARK    1  A    between atoms: C2_8  and  O1_1 
REMARK    2  A    between atoms: C3_9  and  O1_1 
REMARK    3  A    between atoms: C4_10  and  O2_2 
REMARK    4  A    between atoms: C9_15  and  O2_2 
REMARK    5  A    between atoms: C20_26  and  N1_5 
REMARK    6  A    between atoms: C1_7  and  C7_13 
REMARK    7  A    between atoms: C3_9  and  C4_10 
REMARK    8  A    between atoms: C6_12  and  C8_14 
ROOT
HETATM    1  N2  UNK     1      18.258   2.047  30.882  1.00  0.00    -0.191 NA
HETATM    2  C7  UNK     1      18.154   3.951  33.754  1.00  0.00     0.035 C 
HETATM    3  C8  UNK     1      18.215   2.635  33.413  1.00  0.00     0.055 C 
HETATM    4  C24 UNK     1      18.238   2.320  32.009  1.00  0.00     0.100 C 
ENDROOT
BRANCH   3   5
HETATM    5  C6  UNK     1      18.264   1.550  34.380  1.00  0.00    -0.015 A 
HETATM    6  C16 UNK     1      18.331   0.227  33.942  1.00  0.00     0.015 A 
HETATM    7  C21 UNK     1      18.380  -0.813  34.869  1.00  0.00     0.037 A 
HETATM    8  C20 UNK     1      18.363  -0.531  36.236  1.00  0.00     0.102 A 
HETATM    9  C22 UNK     1      18.297   0.792  36.674  1.00  0.00     0.037 A 
HETATM   10  C17 UNK     1      18.247   1.833  35.746  1.00  0.00     0.015 A 
BRANCH   8  11
HETATM   11  N1  UNK     1      18.412  -1.589  37.181  1.00  0.00    -0.116 N 
HETATM   12  O3  UNK     1      18.550  -1.312  38.397  1.00  0.00    -0.532 OA
HETATM   13  O4  UNK     1      18.313  -2.773  36.776  1.00  0.00    -0.532 OA
ENDBRANCH   8  11
ENDBRANCH   3   5
BRANCH   2  14
HETATM   14  C1  UNK     1      18.110   5.078  32.813  1.00  0.00    -0.032 A 
HETATM   15  C5  UNK     1      16.901   5.712  32.563  1.00  0.00     0.048 A 
HETATM   16  C2  UNK     1      16.860   6.782  31.669  1.00  0.00     0.069 A 
HETATM   17  C11 UNK     1      18.027   7.204  31.033  1.00  0.00     0.037 A 
HETATM   18  C12 UNK     1      19.236   6.558  31.292  1.00  0.00     0.004 A 
HETATM   19  C10 UNK     1      19.278   5.490  32.187  1.00  0.00     0.011 A 
BRANCH  16  20
HETATM   20  O1  UNK     1      15.681   7.413  31.416  1.00  0.00    -0.349 OA
BRANCH  20  21
HETATM   21  C3  UNK     1      14.659   7.301  32.404  1.00  0.00     0.202 C 
BRANCH  21  22
HETATM   22  C4  UNK     1      14.526   8.626  33.131  1.00  0.00     0.202 C 
BRANCH  22  23
HETATM   23  O2  UNK     1      15.172   8.530  34.394  1.00  0.00    -0.349 OA
BRANCH  23  24
HETATM   24  C9  UNK     1      16.526   8.742  34.413  1.00  0.00     0.068 A 
HETATM   25  C14 UNK     1      17.358   7.823  35.041  1.00  0.00     0.037 A 
HETATM   26  C18 UNK     1      18.735   8.038  35.061  1.00  0.00     0.009 A 
HETATM   27  C13 UNK     1      19.272   9.172  34.452  1.00  0.00    -0.062 A 
HETATM   28  C19 UNK     1      18.432  10.090  33.824  1.00  0.00     0.009 A 
HETATM   29  C23 UNK     1      20.746   9.402  34.473  1.00  0.00     0.048 C 
HETATM   30  C15 UNK     1      17.054   9.875  33.804  1.00  0.00     0.037 A 
ENDBRANCH  23  24
ENDBRANCH  22  23
ENDBRANCH  21  22
ENDBRANCH  20  21
ENDBRANCH  16  20
ENDBRANCH   2  14
TORSDOF 8
ENDMDL
MODEL 3
REMARK VINA RESULT:      -9.2      1.969      2.856
REMARK  8 active torsions:
REMARK  status: ('A' for Active; 'I' for Inactive)
REMARK    1  A    between atoms: C2_8  and  O1_1 
REMARK    2  A    between atoms: C3_9  and  O1_1 
REMARK    3  A    between atoms: C4_10  and  O2_2 
REMARK    4  A    between atoms: C9_15  and  O2_2 
REMARK    5  A    between atoms: C20_26  and  N1_5 
REMARK    6  A    between atoms: C1_7  and  C7_13 
REMARK    7  A    between atoms: C3_9  and  C4_10 
REMARK    8  A    between atoms: C6_12  and  C8_14 
ROOT
HETATM    1  N2  UNK     1      17.808   2.246  28.070  1.00  0.00    -0.191 NA
HETATM    2  C7  UNK     1      19.473   1.919  31.072  1.00  0.00     0.035 C 
HETATM    3  C8  UNK     1      18.747   2.863  30.414  1.00  0.00     0.055 C 
HETATM    4  C24 UNK     1      18.232   2.512  29.117  1.00  0.00     0.100 C 
ENDROOT
BRANCH   3   5
HETATM    5  C6  UNK     1      18.465   4.186  30.950  1.00  0.00    -0.015 A 
HETATM    6  C16 UNK     1      17.846   4.319  32.192  1.00  0.00     0.015 A 
HETATM    7  C21 UNK     1      17.578   5.587  32.706  1.00  0.00     0.037 A 
HETATM    8  C20 UNK     1      17.929   6.724  31.977  1.00  0.00     0.102 A 
HETATM    9  C22 UNK     1      18.549   6.590  30.734  1.00  0.00     0.037 A 
HETATM   10  C17 UNK     1      18.817   5.322  30.220  1.00  0.00     0.015 A 
BRANCH   8  11
HETATM   11  N1  UNK     1      17.656   8.015  32.498  1.00  0.00    -0.116 N 
HETATM   12  O3  UNK     1      18.421   8.494  33.371  1.00  0.00    -0.532 OA
HETATM   13  O4  UNK     1      16.657   8.645  32.072  1.00  0.00    -0.532 OA
ENDBRANCH   8  11
ENDBRANCH   3   5
BRANCH   2  14
HETATM   14  C1  UNK     1      19.776   0.570  30.573  1.00  0.00    -0.032 A 
HETATM   15  C5  UNK     1      19.874  -0.483  31.470  1.00  0.00     0.048 A 
HETATM   16  C2  UNK     1      20.163  -1.763  30.995  1.00  0.00     0.069 A 
HETATM   17  C11 UNK     1      20.351  -1.974  29.629  1.00  0.00     0.037 A 
HETATM   18  C12 UNK     1      20.251  -0.906  28.738  1.00  0.00     0.004 A 
HETATM   19  C10 UNK     1      19.961   0.373  29.212  1.00  0.00     0.011 A 
BRANCH  16  20
HETATM   20  O1  UNK     1      20.260  -2.805  31.864  1.00  0.00    -0.349 OA
BRANCH  20  21
HETATM   21  C3  UNK     1      21.032  -2.597  33.045  1.00  0.00     0.202 C 
BRANCH  21  22
HETATM   22  C4  UNK     1      20.123  -2.697  34.256  1.00  0.00     0.202 C 
BRANCH  22  23
HETATM   23  O2  UNK     1      20.182  -1.475  34.982  1.00  0.00    -0.349 OA
BRANCH  23  24
HETATM   24  C9  UNK     1      18.985  -0.925  35.362  1.00  0.00     0.068 A 
HETATM   25  C14 UNK     1      18.502  -1.151  36.646  1.00  0.00     0.037 A 
HETATM   26  C18 UNK     1      17.284  -0.593  37.034  1.00  0.00     0.009 A 
HETATM   27  C13 UNK     1      16.558   0.188  36.135  1.00  0.00    -0.062 A 
HETATM   28  C19 UNK     1      17.049   0.410  34.849  1.00  0.00     0.009 A 
HETATM   29  C23 UNK     1      15.256   0.785  36.550  1.00  0.00     0.048 C 
HETATM   30  C15 UNK     1      18.267  -0.148  34.461  1.00  0.00     0.037 A 
ENDBRANCH  23  24
ENDBRANCH  22  23
ENDBRANCH  21  22
ENDBRANCH  20  21
ENDBRANCH  16  20
ENDBRANCH   2  14
TORSDOF 8
ENDMDL
MODEL 4
REMARK VINA RESULT:      -9.0      5.241     10.982
REMARK  8 active torsions:
REMARK  status: ('A' for Active; 'I' for Inactive)
REMARK    1  A    between atoms: C2_8  and  O1_1 
REMARK    2  A    between atoms: C3_9  and  O1_1 
REMARK    3  A    between atoms: C4_10  and  O2_2 
REMARK    4  A    between atoms: C9_15  and  O2_2 
REMARK    5  A    between atoms: C20_26  and  N1_5 
REMARK    6  A    between atoms: C1_7  and  C7_13 
REMARK    7  A    between atoms: C3_9  and  C4_10 
REMARK    8  A    between atoms: C6_12  and  C8_14 
ROOT
HETATM    1  N2  UNK     1      21.677  -1.648  35.557  1.00  0.00    -0.191 NA
HETATM    2  C7  UNK     1      18.577  -2.748  36.594  1.00  0.00     0.035 C 
HETATM    3  C8  UNK     1      19.806  -3.274  36.342  1.00  0.00     0.055 C 
HETATM    4  C24 UNK     1      20.835  -2.366  35.907  1.00  0.00     0.100 C 
ENDROOT
BRANCH   3   5
HETATM    5  C6  UNK     1      20.130  -4.685  36.493  1.00  0.00    -0.015 A 
HETATM    6  C16 UNK     1      20.844  -5.122  37.608  1.00  0.00     0.015 A 
HETATM    7  C21 UNK     1      21.151  -6.474  37.753  1.00  0.00     0.037 A 
HETATM    8  C20 UNK     1      20.745  -7.390  36.782  1.00  0.00     0.102 A 
HETATM    9  C22 UNK     1      20.031  -6.952  35.667  1.00  0.00     0.037 A 
HETATM   10  C17 UNK     1      19.723  -5.600  35.521  1.00  0.00     0.015 A 
BRANCH   8  11
HETATM   11  N1  UNK     1      21.059  -8.767  36.928  1.00  0.00    -0.116 N 
HETATM   12  O3  UNK     1      20.840  -9.545  35.968  1.00  0.00    -0.532 OA
HETATM   13  O4  UNK     1      21.548  -9.169  38.012  1.00  0.00    -0.532 OA
ENDBRANCH   8  11
ENDBRANCH   3   5
BRANCH   2  14
HETATM   14  C1  UNK     1      18.209  -1.332  36.462  1.00  0.00    -0.032 A 
HETATM   15  C5  UNK     1      18.160  -0.754  35.201  1.00  0.00     0.048 A 
HETATM   16  C2  UNK     1      17.811   0.591  35.077  1.00  0.00     0.069 A 
HETATM   17  C11 UNK     1      17.516   1.342  36.214  1.00  0.00     0.037 A 
HETATM   18  C12 UNK     1      17.570   0.750  37.475  1.00  0.00     0.004 A 
HETATM   19  C10 UNK     1      17.918  -0.594  37.600  1.00  0.00     0.011 A 
BRANCH  16  20
HETATM   20  O1  UNK     1      17.758   1.169  33.846  1.00  0.00    -0.349 OA
BRANCH  20  21
HETATM   21  C3  UNK     1      18.177   2.529  33.749  1.00  0.00     0.202 C 
BRANCH  21  22
HETATM   22  C4  UNK     1      18.169   2.946  32.290  1.00  0.00     0.202 C 
BRANCH  22  23
HETATM   23  O2  UNK     1      17.490   4.190  32.167  1.00  0.00    -0.349 OA
BRANCH  23  24
HETATM   24  C9  UNK     1      18.104   5.285  32.718  1.00  0.00     0.068 A 
HETATM   25  C14 UNK     1      19.385   5.634  32.307  1.00  0.00     0.037 A 
HETATM   26  C18 UNK     1      20.010   6.748  32.867  1.00  0.00     0.009 A 
HETATM   27  C13 UNK     1      19.350   7.505  33.834  1.00  0.00    -0.062 A 
HETATM   28  C19 UNK     1      18.064   7.149  34.241  1.00  0.00     0.009 A 
HETATM   29  C23 UNK     1      20.019   8.696  34.433  1.00  0.00     0.048 C 
HETATM   30  C15 UNK     1      17.439   6.035  33.681  1.00  0.00     0.037 A 
ENDBRANCH  23  24
ENDBRANCH  22  23
ENDBRANCH  21  22
ENDBRANCH  20  21
ENDBRANCH  16  20
ENDBRANCH   2  14
TORSDOF 8
ENDMDL
MODEL 5
REMARK VINA RESULT:      -8.6     15.350     17.266
REMARK  8 active torsions:
REMARK  status: ('A' for Active; 'I' for Inactive)
REMARK    1  A    between atoms: C2_8  and  O1_1 
REMARK    2  A    between atoms: C3_9  and  O1_1 
REMARK    3  A    between atoms: C4_10  and  O2_2 
REMARK    4  A    between atoms: C9_15  and  O2_2 
REMARK    5  A    between atoms: C20_26  and  N1_5 
REMARK    6  A    between atoms: C1_7  and  C7_13 
REMARK    7  A    between atoms: C3_9  and  C4_10 
REMARK    8  A    between atoms: C6_12  and  C8_14 
ROOT
HETATM    1  N2  UNK     1      34.344  -5.294  34.340  1.00  0.00    -0.191 NA
HETATM    2  C7  UNK     1      31.485  -7.164  33.869  1.00  0.00     0.035 C 
HETATM    3  C8  UNK     1      31.943  -6.212  34.727  1.00  0.00     0.055 C 
HETATM    4  C24 UNK     1      33.274  -5.711  34.504  1.00  0.00     0.100 C 
ENDROOT
BRANCH   3   5
HETATM    5  C6  UNK     1      31.166  -5.680  35.836  1.00  0.00    -0.015 A 
HETATM    6  C16 UNK     1      30.027  -6.353  36.276  1.00  0.00     0.015 A 
HETATM    7  C21 UNK     1      29.283  -5.844  37.340  1.00  0.00     0.037 A 
HETATM    8  C20 UNK     1      29.679  -4.661  37.965  1.00  0.00     0.102 A 
HETATM    9  C22 UNK     1      30.820  -3.988  37.525  1.00  0.00     0.037 A 
HETATM   10  C17 UNK     1      31.563  -4.497  36.460  1.00  0.00     0.015 A 
BRANCH   8  11
HETATM   11  N1  UNK     1      28.923  -4.141  39.048  1.00  0.00    -0.116 N 
HETATM   12  O3  UNK     1      29.529  -3.652  40.033  1.00  0.00    -0.532 OA
HETATM   13  O4  UNK     1      27.670  -4.183  38.992  1.00  0.00    -0.532 OA
ENDBRANCH   8  11
ENDBRANCH   3   5
BRANCH   2  14
HETATM   14  C1  UNK     1      32.232  -7.724  32.734  1.00  0.00    -0.032 A 
HETATM   15  C5  UNK     1      32.008  -7.227  31.458  1.00  0.00     0.048 A 
HETATM   16  C2  UNK     1      32.716  -7.760  30.381  1.00  0.00     0.069 A 
HETATM   17  C11 UNK     1      33.640  -8.783  30.592  1.00  0.00     0.037 A 
HETATM   18  C12 UNK     1      33.855  -9.274  31.879  1.00  0.00     0.004 A 
HETATM   19  C10 UNK     1      33.148  -8.741  32.956  1.00  0.00     0.011 A 
BRANCH  16  20
HETATM   20  O1  UNK     1      32.506  -7.281  29.125  1.00  0.00    -0.349 OA
BRANCH  20  21
HETATM   21  C3  UNK     1      31.172  -7.336  28.622  1.00  0.00     0.202 C 
BRANCH  21  22
HETATM   22  C4  UNK     1      30.840  -8.770  28.256  1.00  0.00     0.202 C 
BRANCH  22  23
HETATM   23  O2  UNK     1      29.530  -9.075  28.719  1.00  0.00    -0.349 OA
BRANCH  23  24
HETATM   24  C9  UNK     1      29.386  -9.290  30.065  1.00  0.00     0.068 A 
HETATM   25  C14 UNK     1      30.054 -10.350  30.667  1.00  0.00     0.037 A 
HETATM   26  C18 UNK     1      29.907 -10.570  32.037  1.00  0.00     0.009 A 
HETATM   27  C13 UNK     1      29.094  -9.729  32.795  1.00  0.00    -0.062 A 
HETATM   28  C19 UNK     1      28.427  -8.668  32.184  1.00  0.00     0.009 A 
HETATM   29  C23 UNK     1      28.937  -9.964  34.259  1.00  0.00     0.048 C 
HETATM   30  C15 UNK     1      28.573  -8.448  30.814  1.00  0.00     0.037 A 
ENDBRANCH  23  24
ENDBRANCH  22  23
ENDBRANCH  21  22
ENDBRANCH  20  21
ENDBRANCH  16  20
ENDBRANCH   2  14
TORSDOF 8
ENDMDL
MODEL 6
REMARK VINA RESULT:      -8.5     14.989     17.195
REMARK  8 active torsions:
REMARK  status: ('A' for Active; 'I' for Inactive)
REMARK    1  A    between atoms: C2_8  and  O1_1 
REMARK    2  A    between atoms: C3_9  and  O1_1 
REMARK    3  A    between atoms: C4_10  and  O2_2 
REMARK    4  A    between atoms: C9_15  and  O2_2 
REMARK    5  A    between atoms: C20_26  and  N1_5 
REMARK    6  A    between atoms: C1_7  and  C7_13 
REMARK    7  A    between atoms: C3_9  and  C4_10 
REMARK    8  A    between atoms: C6_12  and  C8_14 
ROOT
HETATM    1  N2  UNK     1      34.011  -5.912  33.876  1.00  0.00    -0.191 NA
HETATM    2  C7  UNK     1      30.697  -6.452  33.087  1.00  0.00     0.035 C 
HETATM    3  C8  UNK     1      31.432  -6.070  34.167  1.00  0.00     0.055 C 
HETATM    4  C24 UNK     1      32.859  -5.986  33.996  1.00  0.00     0.100 C 
ENDROOT
BRANCH   3   5
HETATM    5  C6  UNK     1      30.858  -5.742  35.462  1.00  0.00    -0.015 A 
HETATM    6  C16 UNK     1      31.419  -4.728  36.238  1.00  0.00     0.015 A 
HETATM    7  C21 UNK     1      30.867  -4.413  37.479  1.00  0.00     0.037 A 
HETATM    8  C20 UNK     1      29.753  -5.112  37.945  1.00  0.00     0.102 A 
HETATM    9  C22 UNK     1      29.191  -6.126  37.168  1.00  0.00     0.037 A 
HETATM   10  C17 UNK     1      29.744  -6.442  35.927  1.00  0.00     0.015 A 
BRANCH   8  11
HETATM   11  N1  UNK     1      29.190  -4.793  39.209  1.00  0.00    -0.116 N 
HETATM   12  O3  UNK     1      28.260  -5.507  39.658  1.00  0.00    -0.532 OA
HETATM   13  O4  UNK     1      29.638  -3.807  39.844  1.00  0.00    -0.532 OA
ENDBRANCH   8  11
ENDBRANCH   3   5
BRANCH   2  14
HETATM   14  C1  UNK     1      31.234  -6.785  31.761  1.00  0.00    -0.032 A 
HETATM   15  C5  UNK     1      32.117  -7.846  31.629  1.00  0.00     0.048 A 
HETATM   16  C2  UNK     1      32.627  -8.161  30.369  1.00  0.00     0.069 A 
HETATM   17  C11 UNK     1      32.249  -7.411  29.256  1.00  0.00     0.037 A 
HETATM   18  C12 UNK     1      31.361  -6.345  29.402  1.00  0.00     0.004 A 
HETATM   19  C10 UNK     1      30.850  -6.031  30.661  1.00  0.00     0.011 A 
BRANCH  16  20
HETATM   20  O1  UNK     1      33.493  -9.201  30.226  1.00  0.00    -0.349 OA
BRANCH  20  21
HETATM   21  C3  UNK     1      33.114 -10.448  30.806  1.00  0.00     0.202 C 
BRANCH  21  22
HETATM   22  C4  UNK     1      32.102 -11.127  29.903  1.00  0.00     0.202 C 
BRANCH  22  23
HETATM   23  O2  UNK     1      30.914 -11.378  30.644  1.00  0.00    -0.349 OA
BRANCH  23  24
HETATM   24  C9  UNK     1      29.941 -10.414  30.595  1.00  0.00     0.068 A 
HETATM   25  C14 UNK     1      29.541  -9.903  29.366  1.00  0.00     0.037 A 
HETATM   26  C18 UNK     1      28.552  -8.921  29.316  1.00  0.00     0.009 A 
HETATM   27  C13 UNK     1      27.969  -8.458  30.494  1.00  0.00    -0.062 A 
HETATM   28  C19 UNK     1      28.375  -8.975  31.724  1.00  0.00     0.009 A 
HETATM   29  C23 UNK     1      26.910  -7.408  30.440  1.00  0.00     0.048 C 
HETATM   30  C15 UNK     1      29.365  -9.957  31.774  1.00  0.00     0.037 A 
ENDBRANCH  23  24
ENDBRANCH  22  23
ENDBRANCH  21  22
ENDBRANCH  20  21
ENDBRANCH  16  20
ENDBRANCH   2  14
TORSDOF 8
ENDMDL
MODEL 7
REMARK VINA RESULT:      -8.4      5.011      6.892
REMARK  8 active torsions:
REMARK  status: ('A' for Active; 'I' for Inactive)
REMARK    1  A    between atoms: C2_8  and  O1_1 
REMARK    2  A    between atoms: C3_9  and  O1_1 
REMARK    3  A    between atoms: C4_10  and  O2_2 
REMARK    4  A    between atoms: C9_15  and  O2_2 
REMARK    5  A    between atoms: C20_26  and  N1_5 
REMARK    6  A    between atoms: C1_7  and  C7_13 
REMARK    7  A    between atoms: C3_9  and  C4_10 
REMARK    8  A    between atoms: C6_12  and  C8_14 
ROOT
HETATM    1  N2  UNK     1      19.993   2.786  36.664  1.00  0.00    -0.191 NA
HETATM    2  C7  UNK     1      17.956   1.113  34.441  1.00  0.00     0.035 C 
HETATM    3  C8  UNK     1      18.536   2.338  34.558  1.00  0.00     0.055 C 
HETATM    4  C24 UNK     1      19.340   2.577  35.728  1.00  0.00     0.100 C 
ENDROOT
BRANCH   3   5
HETATM    5  C6  UNK     1      18.390   3.400  33.575  1.00  0.00    -0.015 A 
HETATM    6  C16 UNK     1      18.428   4.735  33.978  1.00  0.00     0.015 A 
HETATM    7  C21 UNK     1      18.291   5.753  33.035  1.00  0.00     0.037 A 
HETATM    8  C20 UNK     1      18.115   5.437  31.687  1.00  0.00     0.102 A 
HETATM    9  C22 UNK     1      18.077   4.101  31.284  1.00  0.00     0.037 A 
HETATM   10  C17 UNK     1      18.214   3.083  32.228  1.00  0.00     0.015 A 
BRANCH   8  11
HETATM   11  N1  UNK     1      17.974   6.472  30.726  1.00  0.00    -0.116 N 
HETATM   12  O3  UNK     1      18.727   6.475  29.722  1.00  0.00    -0.532 OA
HETATM   13  O4  UNK     1      17.099   7.354  30.905  1.00  0.00    -0.532 OA
ENDBRANCH   8  11
ENDBRANCH   3   5
BRANCH   2  14
HETATM   14  C1  UNK     1      18.082   0.011  35.404  1.00  0.00    -0.032 A 
HETATM   15  C5  UNK     1      19.031  -0.978  35.191  1.00  0.00     0.048 A 
HETATM   16  C2  UNK     1      19.149  -2.024  36.105  1.00  0.00     0.069 A 
HETATM   17  C11 UNK     1      18.316  -2.071  37.223  1.00  0.00     0.037 A 
HETATM   18  C12 UNK     1      17.365  -1.071  37.426  1.00  0.00     0.004 A 
HETATM   19  C10 UNK     1      17.247  -0.024  36.512  1.00  0.00     0.011 A 
BRANCH  16  20
HETATM   20  O1  UNK     1      20.077  -3.000  35.908  1.00  0.00    -0.349 OA
BRANCH  20  21
HETATM   21  C3  UNK     1      19.858  -4.248  36.563  1.00  0.00     0.202 C 
BRANCH  21  22
HETATM   22  C4  UNK     1      20.920  -4.441  37.629  1.00  0.00     0.202 C 
BRANCH  22  23
HETATM   23  O2  UNK     1      21.686  -5.598  37.317  1.00  0.00    -0.349 OA
BRANCH  23  24
HETATM   24  C9  UNK     1      21.134  -6.810  37.641  1.00  0.00     0.068 A 
HETATM   25  C14 UNK     1      20.686  -7.036  38.937  1.00  0.00     0.037 A 
HETATM   26  C18 UNK     1      20.125  -8.269  39.269  1.00  0.00     0.009 A 
HETATM   27  C13 UNK     1      20.015  -9.267  38.302  1.00  0.00    -0.062 A 
HETATM   28  C19 UNK     1      20.467  -9.033  37.003  1.00  0.00     0.009 A 
HETATM   29  C23 UNK     1      19.415 -10.586  38.656  1.00  0.00     0.048 C 
HETATM   30  C15 UNK     1      21.028  -7.800  36.672  1.00  0.00     0.037 A 
ENDBRANCH  23  24
ENDBRANCH  22  23
ENDBRANCH  21  22
ENDBRANCH  20  21
ENDBRANCH  16  20
ENDBRANCH   2  14
TORSDOF 8
ENDMDL
MODEL 8
REMARK VINA RESULT:      -8.4      2.099      3.315
REMARK  8 active torsions:
REMARK  status: ('A' for Active; 'I' for Inactive)
REMARK    1  A    between atoms: C2_8  and  O1_1 
REMARK    2  A    between atoms: C3_9  and  O1_1 
REMARK    3  A    between atoms: C4_10  and  O2_2 
REMARK    4  A    between atoms: C9_15  and  O2_2 
REMARK    5  A    between atoms: C20_26  and  N1_5 
REMARK    6  A    between atoms: C1_7  and  C7_13 
REMARK    7  A    between atoms: C3_9  and  C4_10 
REMARK    8  A    between atoms: C6_12  and  C8_14 
ROOT
HETATM    1  N2  UNK     1      14.655   6.890  31.354  1.00  0.00    -0.191 NA
HETATM    2  C7  UNK     1      17.711   7.478  32.838  1.00  0.00     0.035 C 
HETATM    3  C8  UNK     1      16.458   8.005  32.859  1.00  0.00     0.055 C 
HETATM    4  C24 UNK     1      15.467   7.381  32.022  1.00  0.00     0.100 C 
ENDROOT
BRANCH   3   5
HETATM    5  C6  UNK     1      16.073   9.147  33.674  1.00  0.00    -0.015 A 
HETATM    6  C16 UNK     1      14.806   9.193  34.257  1.00  0.00     0.015 A 
HETATM    7  C21 UNK     1      14.439  10.286  35.040  1.00  0.00     0.037 A 
HETATM    8  C20 UNK     1      15.338  11.334  35.243  1.00  0.00     0.102 A 
HETATM    9  C22 UNK     1      16.605  11.287  34.660  1.00  0.00     0.037 A 
HETATM   10  C17 UNK     1      16.973  10.194  33.876  1.00  0.00     0.015 A 
BRANCH   8  11
HETATM   11  N1  UNK     1      14.964  12.448  36.040  1.00  0.00    -0.116 N 
HETATM   12  O3  UNK     1      14.239  13.340  35.536  1.00  0.00    -0.532 OA
HETATM   13  O4  UNK     1      15.369  12.510  37.226  1.00  0.00    -0.532 OA
ENDBRANCH   8  11
ENDBRANCH   3   5
BRANCH   2  14
HETATM   14  C1  UNK     1      18.142   6.324  32.036  1.00  0.00    -0.032 A 
HETATM   15  C5  UNK     1      17.768   5.046  32.424  1.00  0.00     0.048 A 
HETATM   16  C2  UNK     1      18.178   3.951  31.663  1.00  0.00     0.069 A 
HETATM   17  C11 UNK     1      18.956   4.147  30.523  1.00  0.00     0.037 A 
HETATM   18  C12 UNK     1      19.326   5.437  30.143  1.00  0.00     0.004 A 
HETATM   19  C10 UNK     1      18.916   6.532  30.904  1.00  0.00     0.011 A 
BRANCH  16  20
HETATM   20  O1  UNK     1      17.817   2.692  32.032  1.00  0.00    -0.349 OA
BRANCH  20  21
HETATM   21  C3  UNK     1      18.579   1.613  31.492  1.00  0.00     0.202 C 
BRANCH  21  22
HETATM   22  C4  UNK     1      18.893   0.625  32.600  1.00  0.00     0.202 C 
BRANCH  22  23
HETATM   23  O2  UNK     1      17.694   0.317  33.301  1.00  0.00    -0.349 OA
BRANCH  23  24
HETATM   24  C9  UNK     1      17.667   0.617  34.638  1.00  0.00     0.068 A 
HETATM   25  C14 UNK     1      18.626   1.470  35.171  1.00  0.00     0.037 A 
HETATM   26  C18 UNK     1      18.599   1.776  36.531  1.00  0.00     0.009 A 
HETATM   27  C13 UNK     1      17.613   1.226  37.350  1.00  0.00    -0.062 A 
HETATM   28  C19 UNK     1      16.654   0.371  36.808  1.00  0.00     0.009 A 
HETATM   29  C23 UNK     1      17.584   1.553  38.805  1.00  0.00     0.048 C 
HETATM   30  C15 UNK     1      16.681   0.066  35.448  1.00  0.00     0.037 A 
ENDBRANCH  23  24
ENDBRANCH  22  23
ENDBRANCH  21  22
ENDBRANCH  20  21
ENDBRANCH  16  20
ENDBRANCH   2  14
TORSDOF 8
ENDMDL
MODEL 9
REMARK VINA RESULT:      -8.4      8.769     11.920
REMARK  8 active torsions:
REMARK  status: ('A' for Active; 'I' for Inactive)
REMARK    1  A    between atoms: C2_8  and  O1_1 
REMARK    2  A    between atoms: C3_9  and  O1_1 
REMARK    3  A    between atoms: C4_10  and  O2_2 
REMARK    4  A    between atoms: C9_15  and  O2_2 
REMARK    5  A    between atoms: C20_26  and  N1_5 
REMARK    6  A    between atoms: C1_7  and  C7_13 
REMARK    7  A    between atoms: C3_9  and  C4_10 
REMARK    8  A    between atoms: C6_12  and  C8_14 
ROOT
HETATM    1  N2  UNK     1      20.165  -6.189  34.928  1.00  0.00    -0.191 NA
HETATM    2  C7  UNK     1      20.451  -4.284  37.788  1.00  0.00     0.035 C 
HETATM    3  C8  UNK     1      19.978  -4.142  36.520  1.00  0.00     0.055 C 
HETATM    4  C24 UNK     1      20.086  -5.281  35.646  1.00  0.00     0.100 C 
ENDROOT
BRANCH   3   5
HETATM    5  C6  UNK     1      19.372  -2.921  36.013  1.00  0.00    -0.015 A 
HETATM    6  C16 UNK     1      19.782  -2.395  34.788  1.00  0.00     0.015 A 
HETATM    7  C21 UNK     1      19.200  -1.225  34.302  1.00  0.00     0.037 A 
HETATM    8  C20 UNK     1      18.207  -0.580  35.041  1.00  0.00     0.102 A 
HETATM    9  C22 UNK     1      17.797  -1.106  36.266  1.00  0.00     0.037 A 
HETATM   10  C17 UNK     1      18.380  -2.276  36.753  1.00  0.00     0.015 A 
BRANCH   8  11
HETATM   11  N1  UNK     1      17.614   0.612  34.547  1.00  0.00    -0.116 N 
HETATM   12  O3  UNK     1      16.429   0.576  34.136  1.00  0.00    -0.532 OA
HETATM   13  O4  UNK     1      18.291   1.669  34.537  1.00  0.00    -0.532 OA
ENDBRANCH   8  11
ENDBRANCH   3   5
BRANCH   2  14
HETATM   14  C1  UNK     1      21.063  -5.499  38.343  1.00  0.00    -0.032 A 
HETATM   15  C5  UNK     1      22.444  -5.583  38.443  1.00  0.00     0.048 A 
HETATM   16  C2  UNK     1      23.024  -6.738  38.969  1.00  0.00     0.069 A 
HETATM   17  C11 UNK     1      22.216  -7.795  39.388  1.00  0.00     0.037 A 
HETATM   18  C12 UNK     1      20.829  -7.698  39.282  1.00  0.00     0.004 A 
HETATM   19  C10 UNK     1      20.249  -6.544  38.757  1.00  0.00     0.011 A 
BRANCH  16  20
HETATM   20  O1  UNK     1      24.377  -6.833  39.073  1.00  0.00    -0.349 OA
BRANCH  20  21
HETATM   21  C3  UNK     1      24.997  -7.968  38.473  1.00  0.00     0.202 C 
BRANCH  21  22
HETATM   22  C4  UNK     1      26.501  -7.854  38.633  1.00  0.00     0.202 C 
BRANCH  22  23
HETATM   23  O2  UNK     1      26.852  -6.480  38.751  1.00  0.00    -0.349 OA
BRANCH  23  24
HETATM   24  C9  UNK     1      28.184  -6.173  38.655  1.00  0.00     0.068 A 
HETATM   25  C14 UNK     1      28.590  -4.845  38.715  1.00  0.00     0.037 A 
HETATM   26  C18 UNK     1      29.945  -4.531  38.617  1.00  0.00     0.009 A 
HETATM   27  C13 UNK     1      30.886  -5.548  38.458  1.00  0.00    -0.062 A 
HETATM   28  C19 UNK     1      30.472  -6.878  38.399  1.00  0.00     0.009 A 
HETATM   29  C23 UNK     1      32.335  -5.213  38.353  1.00  0.00     0.048 C 
HETATM   30  C15 UNK     1      29.117  -7.192  38.497  1.00  0.00     0.037 A 
ENDBRANCH  23  24
ENDBRANCH  22  23
ENDBRANCH  21  22
ENDBRANCH  20  21
ENDBRANCH  16  20
ENDBRANCH   2  14
TORSDOF 8
ENDMDL
MODEL 10
REMARK VINA RESULT:      -8.4     14.746     17.359
REMARK  8 active torsions:
REMARK  status: ('A' for Active; 'I' for Inactive)
REMARK    1  A    between atoms: C2_8  and  O1_1 
REMARK    2  A    between atoms: C3_9  and  O1_1 
REMARK    3  A    between atoms: C4_10  and  O2_2 
REMARK    4  A    between atoms: C9_15  and  O2_2 
REMARK    5  A    between atoms: C20_26  and  N1_5 
REMARK    6  A    between atoms: C1_7  and  C7_13 
REMARK    7  A    between atoms: C3_9  and  C4_10 
REMARK    8  A    between atoms: C6_12  and  C8_14 
ROOT
HETATM    1  N2  UNK     1      34.005  -7.906  35.392  1.00  0.00    -0.191 NA
HETATM    2  C7  UNK     1      31.092  -7.252  33.667  1.00  0.00     0.035 C 
HETATM    3  C8  UNK     1      31.611  -7.019  34.903  1.00  0.00     0.055 C 
HETATM    4  C24 UNK     1      32.937  -7.514  35.164  1.00  0.00     0.100 C 
ENDROOT
BRANCH   3   5
HETATM    5  C6  UNK     1      30.907  -6.302  35.954  1.00  0.00    -0.015 A 
HETATM    6  C16 UNK     1      29.675  -6.768  36.413  1.00  0.00     0.015 A 
HETATM    7  C21 UNK     1      29.002  -6.081  37.423  1.00  0.00     0.037 A 
HETATM    8  C20 UNK     1      29.560  -4.928  37.975  1.00  0.00     0.102 A 
HETATM    9  C22 UNK     1      30.794  -4.462  37.516  1.00  0.00     0.037 A 
HETATM   10  C17 UNK     1      31.467  -5.149  36.506  1.00  0.00     0.015 A 
BRANCH   8  11
HETATM   11  N1  UNK     1      28.876  -4.227  39.002  1.00  0.00    -0.116 N 
HETATM   12  O3  UNK     1      29.544  -3.672  39.909  1.00  0.00    -0.532 OA
HETATM   13  O4  UNK     1      27.622  -4.180  38.976  1.00  0.00    -0.532 OA
ENDBRANCH   8  11
ENDBRANCH   3   5
BRANCH   2  14
HETATM   14  C1  UNK     1      31.769  -7.965  32.574  1.00  0.00    -0.032 A 
HETATM   15  C5  UNK     1      31.445  -9.289  32.320  1.00  0.00     0.048 A 
HETATM   16  C2  UNK     1      32.089  -9.965  31.284  1.00  0.00     0.069 A 
HETATM   17  C11 UNK     1      33.049  -9.309  30.514  1.00  0.00     0.037 A 
HETATM   18  C12 UNK     1      33.366  -7.977  30.780  1.00  0.00     0.004 A 
HETATM   19  C10 UNK     1      32.722  -7.301  31.815  1.00  0.00     0.011 A 
BRANCH  16  20
HETATM   20  O1  UNK     1      31.780 -11.265  31.023  1.00  0.00    -0.349 OA
BRANCH  20  21
HETATM   21  C3  UNK     1      30.427 -11.555  30.677  1.00  0.00     0.202 C 
BRANCH  21  22
HETATM   22  C4  UNK     1      30.208 -11.223  29.213  1.00  0.00     0.202 C 
BRANCH  22  23
HETATM   23  O2  UNK     1      29.027 -10.442  29.086  1.00  0.00    -0.349 OA
BRANCH  23  24
HETATM   24  C9  UNK     1      29.097  -9.141  29.514  1.00  0.00     0.068 A 
HETATM   25  C14 UNK     1      29.972  -8.259  28.890  1.00  0.00     0.037 A 
HETATM   26  C18 UNK     1      30.045  -6.936  29.325  1.00  0.00     0.009 A 
HETATM   27  C13 UNK     1      29.243  -6.504  30.380  1.00  0.00    -0.062 A 
HETATM   28  C19 UNK     1      28.368  -7.395  31.001  1.00  0.00     0.009 A 
HETATM   29  C23 UNK     1      29.321  -5.089  30.845  1.00  0.00     0.048 C 
HETATM   30  C15 UNK     1      28.295  -8.718  30.567  1.00  0.00     0.037 A 
ENDBRANCH  23  24
ENDBRANCH  22  23
ENDBRANCH  21  22
ENDBRANCH  20  21
ENDBRANCH  16  20
ENDBRANCH   2  14
TORSDOF 8
ENDMDL
