MODEL 1
REMARK VINA RESULT:      -7.5      0.000      0.000
REMARK  4 active torsions:
REMARK  status: ('A' for Active; 'I' for Inactive)
REMARK    1  A    between atoms: C5_8  and  N1_3 
REMARK    2  A    between atoms: C11_14  and  C8_11 
REMARK    3  A    between atoms: C12_15  and  C13_16 
REMARK    4  A    between atoms: C13_16  and  C14_17 
ROOT
HETATM    1  C5  UNK     1      11.860   5.980   8.277  1.00  0.00     0.030 A 
HETATM    2  C6  UNK     1      12.873   6.382   7.409  1.00  0.00     0.030 A 
HETATM    3  C7  UNK     1      12.181   5.456   9.530  1.00  0.00     0.030 A 
HETATM    4  C8  UNK     1      14.531   5.740   9.045  1.00  0.00    -0.036 A 
HETATM    5  C9  UNK     1      14.209   6.262   7.792  1.00  0.00     0.013 A 
HETATM    6  C10 UNK     1      13.517   5.337   9.913  1.00  0.00     0.013 A 
ENDROOT
BRANCH   4   7
HETATM    7  C11 UNK     1      15.924   5.616   9.445  1.00  0.00     0.015 C 
HETATM    8  C12 UNK     1      16.608   6.523  10.176  1.00  0.00     0.056 C 
BRANCH   8   9
HETATM    9  C13 UNK     1      15.943   7.772  10.641  1.00  0.00     0.182 C 
HETATM   10  O2  UNK     1      15.290   7.826  11.677  1.00  0.00    -0.288 OA
BRANCH   9  11
HETATM   11  C14 UNK     1      16.116   8.992   9.817  1.00  0.00     0.014 A 
HETATM   12  C15 UNK     1      15.045   9.491   9.073  1.00  0.00     0.015 A 
HETATM   13  C17 UNK     1      15.209  10.639   8.298  1.00  0.00     0.001 A 
HETATM   14  C19 UNK     1      16.443  11.288   8.265  1.00  0.00     0.000 A 
HETATM   15  C18 UNK     1      17.512  10.790   9.008  1.00  0.00     0.001 A 
HETATM   16  C16 UNK     1      17.349   9.642   9.784  1.00  0.00     0.015 A 
ENDBRANCH   9  11
ENDBRANCH   8   9
ENDBRANCH   4   7
BRANCH   1  17
HETATM   17  N1  UNK     1      10.520   6.099   7.892  1.00  0.00    -0.377 N 
HETATM   18  C1  UNK     1       9.468   6.170   8.912  1.00  0.00     0.149 C 
HETATM   19  C3  UNK     1       8.124   5.800   8.295  1.00  0.00     0.187 C 
HETATM   20  O1  UNK     1       7.858   6.615   7.153  1.00  0.00    -0.388 OA
HETATM   21  C4  UNK     1       8.837   6.394   6.139  1.00  0.00     0.187 C 
HETATM   22  C2  UNK     1      10.220   6.799   6.635  1.00  0.00     0.149 C 
ENDBRANCH   1  17
TORSDOF 4
ENDMDL
MODEL 2
REMARK VINA RESULT:      -7.2     22.926     25.428
REMARK  4 active torsions:
REMARK  status: ('A' for Active; 'I' for Inactive)
REMARK    1  A    between atoms: C5_8  and  N1_3 
REMARK    2  A    between atoms: C11_14  and  C8_11 
REMARK    3  A    between atoms: C12_15  and  C13_16 
REMARK    4  A    between atoms: C13_16  and  C14_17 
ROOT
HETATM    1  C5  UNK     1      16.967  11.958  33.979  1.00  0.00     0.030 A 
HETATM    2  C6  UNK     1      17.912  10.942  34.104  1.00  0.00     0.030 A 
HETATM    3  C7  UNK     1      15.616  11.642  33.833  1.00  0.00     0.030 A 
HETATM    4  C8  UNK     1      16.158   9.289  33.937  1.00  0.00    -0.036 A 
HETATM    5  C9  UNK     1      17.508   9.606  34.082  1.00  0.00     0.013 A 
HETATM    6  C10 UNK     1      15.212  10.307  33.812  1.00  0.00     0.013 A 
ENDROOT
BRANCH   4   7
HETATM    7  C11 UNK     1      15.736   7.897  33.915  1.00  0.00     0.015 C 
HETATM    8  C12 UNK     1      15.978   7.026  32.910  1.00  0.00     0.056 C 
BRANCH   8   9
HETATM    9  C13 UNK     1      16.732   7.461  31.702  1.00  0.00     0.182 C 
HETATM   10  O2  UNK     1      16.291   8.285  30.909  1.00  0.00    -0.288 OA
BRANCH   9  11
HETATM   11  C14 UNK     1      18.081   6.883  31.487  1.00  0.00     0.014 A 
HETATM   12  C15 UNK     1      18.442   6.403  30.228  1.00  0.00     0.015 A 
HETATM   13  C17 UNK     1      19.711   5.859  30.026  1.00  0.00     0.001 A 
HETATM   14  C19 UNK     1      20.618   5.794  31.084  1.00  0.00     0.000 A 
HETATM   15  C18 UNK     1      20.257   6.274  32.342  1.00  0.00     0.001 A 
HETATM   16  C16 UNK     1      18.988   6.818  32.544  1.00  0.00     0.015 A 
ENDBRANCH   9  11
ENDBRANCH   8   9
ENDBRANCH   4   7
BRANCH   1  17
HETATM   17  N1  UNK     1      17.373  13.297  33.999  1.00  0.00    -0.377 N 
HETATM   18  C1  UNK     1      18.519  13.726  33.192  1.00  0.00     0.149 C 
HETATM   19  C3  UNK     1      19.069  15.041  33.733  1.00  0.00     0.187 C 
HETATM   20  O1  UNK     1      18.034  16.022  33.808  1.00  0.00    -0.388 OA
HETATM   21  C4  UNK     1      17.016  15.610  34.720  1.00  0.00     0.187 C 
HETATM   22  C2  UNK     1      16.351  14.327  34.232  1.00  0.00     0.149 C 
ENDBRANCH   1  17
TORSDOF 4
ENDMDL
MODEL 3
REMARK VINA RESULT:      -7.2     22.922     25.398
REMARK  4 active torsions:
REMARK  status: ('A' for Active; 'I' for Inactive)
REMARK    1  A    between atoms: C5_8  and  N1_3 
REMARK    2  A    between atoms: C11_14  and  C8_11 
REMARK    3  A    between atoms: C12_15  and  C13_16 
REMARK    4  A    between atoms: C13_16  and  C14_17 
ROOT
HETATM    1  C5  UNK     1      16.612  11.735  34.030  1.00  0.00     0.030 A 
HETATM    2  C6  UNK     1      15.297  11.392  33.716  1.00  0.00     0.030 A 
HETATM    3  C7  UNK     1      17.569  10.736  34.214  1.00  0.00     0.030 A 
HETATM    4  C8  UNK     1      15.895   9.052  33.768  1.00  0.00    -0.036 A 
HETATM    5  C9  UNK     1      14.939  10.050  33.585  1.00  0.00     0.013 A 
HETATM    6  C10 UNK     1      17.210   9.395  34.082  1.00  0.00     0.013 A 
ENDROOT
BRANCH   4   7
HETATM    7  C11 UNK     1      15.521   7.652  33.632  1.00  0.00     0.015 C 
HETATM    8  C12 UNK     1      15.896   6.841  32.618  1.00  0.00     0.056 C 
BRANCH   8   9
HETATM    9  C13 UNK     1      16.762   7.358  31.522  1.00  0.00     0.182 C 
HETATM   10  O2  UNK     1      16.384   8.213  30.727  1.00  0.00    -0.288 OA
BRANCH   9  11
HETATM   11  C14 UNK     1      18.142   6.825  31.425  1.00  0.00     0.014 A 
HETATM   12  C15 UNK     1      18.975   6.834  32.544  1.00  0.00     0.015 A 
HETATM   13  C17 UNK     1      20.274   6.334  32.453  1.00  0.00     0.001 A 
HETATM   14  C19 UNK     1      20.740   5.823  31.241  1.00  0.00     0.000 A 
HETATM   15  C18 UNK     1      19.908   5.814  30.123  1.00  0.00     0.001 A 
HETATM   16  C16 UNK     1      18.609   6.314  30.214  1.00  0.00     0.015 A 
ENDBRANCH   9  11
ENDBRANCH   8   9
ENDBRANCH   4   7
BRANCH   1  17
HETATM   17  N1  UNK     1      16.971  13.081  34.162  1.00  0.00    -0.377 N 
HETATM   18  C1  UNK     1      18.141  13.599  33.446  1.00  0.00     0.149 C 
HETATM   19  C3  UNK     1      18.618  14.890  34.103  1.00  0.00     0.187 C 
HETATM   20  O1  UNK     1      17.549  15.831  34.190  1.00  0.00    -0.388 OA
HETATM   21  C4  UNK     1      16.501  15.326  35.018  1.00  0.00     0.187 C 
HETATM   22  C2  UNK     1      15.905  14.061  34.410  1.00  0.00     0.149 C 
ENDBRANCH   1  17
TORSDOF 4
ENDMDL
MODEL 4
REMARK VINA RESULT:      -7.1      2.709      5.000
REMARK  4 active torsions:
REMARK  status: ('A' for Active; 'I' for Inactive)
REMARK    1  A    between atoms: C5_8  and  N1_3 
REMARK    2  A    between atoms: C11_14  and  C8_11 
REMARK    3  A    between atoms: C12_15  and  C13_16 
REMARK    4  A    between atoms: C13_16  and  C14_17 
ROOT
HETATM    1  C5  UNK     1       7.953   6.774   9.299  1.00  0.00     0.030 A 
HETATM    2  C6  UNK     1       9.017   7.667   9.403  1.00  0.00     0.030 A 
HETATM    3  C7  UNK     1       7.885   5.890   8.221  1.00  0.00     0.030 A 
HETATM    4  C8  UNK     1       9.950   6.795   7.352  1.00  0.00    -0.036 A 
HETATM    5  C9  UNK     1      10.017   7.679   8.429  1.00  0.00     0.013 A 
HETATM    6  C10 UNK     1       8.885   5.902   7.248  1.00  0.00     0.013 A 
ENDROOT
BRANCH   4   7
HETATM    7  C11 UNK     1      10.992   6.807   6.337  1.00  0.00     0.015 C 
HETATM    8  C12 UNK     1      12.196   6.202   6.449  1.00  0.00     0.056 C 
BRANCH   8   9
HETATM    9  C13 UNK     1      12.546   5.447   7.683  1.00  0.00     0.182 C 
HETATM   10  O2  UNK     1      12.001   4.392   7.991  1.00  0.00    -0.288 OA
BRANCH   9  11
HETATM   11  C14 UNK     1      13.622   5.995   8.545  1.00  0.00     0.014 A 
HETATM   12  C15 UNK     1      13.815   7.375   8.628  1.00  0.00     0.015 A 
HETATM   13  C17 UNK     1      14.827   7.890   9.438  1.00  0.00     0.001 A 
HETATM   14  C19 UNK     1      15.647   7.026  10.164  1.00  0.00     0.000 A 
HETATM   15  C18 UNK     1      15.454   5.648  10.081  1.00  0.00     0.001 A 
HETATM   16  C16 UNK     1      14.441   5.132   9.271  1.00  0.00     0.015 A 
ENDBRANCH   9  11
ENDBRANCH   8   9
ENDBRANCH   4   7
BRANCH   1  17
HETATM   17  N1  UNK     1       6.950   6.763  10.275  1.00  0.00    -0.377 N 
HETATM   18  C1  UNK     1       5.852   7.733  10.206  1.00  0.00     0.149 C 
HETATM   19  C3  UNK     1       5.194   7.865  11.575  1.00  0.00     0.187 C 
HETATM   20  O1  UNK     1       4.785   6.586  12.058  1.00  0.00    -0.388 OA
HETATM   21  C4  UNK     1       5.916   5.734  12.240  1.00  0.00     0.187 C 
HETATM   22  C2  UNK     1       6.613   5.481  10.908  1.00  0.00     0.149 C 
ENDBRANCH   1  17
TORSDOF 4
ENDMDL
MODEL 5
REMARK VINA RESULT:      -7.1     23.174     25.327
REMARK  4 active torsions:
REMARK  status: ('A' for Active; 'I' for Inactive)
REMARK    1  A    between atoms: C5_8  and  N1_3 
REMARK    2  A    between atoms: C11_14  and  C8_11 
REMARK    3  A    between atoms: C12_15  and  C13_16 
REMARK    4  A    between atoms: C13_16  and  C14_17 
ROOT
HETATM    1  C5  UNK     1      18.444   1.537  32.943  1.00  0.00     0.030 A 
HETATM    2  C6  UNK     1      18.910   1.186  31.677  1.00  0.00     0.030 A 
HETATM    3  C7  UNK     1      18.043   2.848  33.201  1.00  0.00     0.030 A 
HETATM    4  C8  UNK     1      18.573   3.456  30.923  1.00  0.00    -0.036 A 
HETATM    5  C9  UNK     1      18.975   2.146  30.667  1.00  0.00     0.013 A 
HETATM    6  C10 UNK     1      18.108   3.807  32.190  1.00  0.00     0.013 A 
ENDROOT
BRANCH   4   7
HETATM    7  C11 UNK     1      18.641   4.457  29.870  1.00  0.00     0.015 C 
HETATM    8  C12 UNK     1      19.324   5.621  29.944  1.00  0.00     0.056 C 
BRANCH   8   9
HETATM    9  C13 UNK     1      20.090   5.967  31.173  1.00  0.00     0.182 C 
HETATM   10  O2  UNK     1      21.273   5.676  31.319  1.00  0.00    -0.288 OA
BRANCH   9  11
HETATM   11  C14 UNK     1      19.382   6.720  32.237  1.00  0.00     0.014 A 
HETATM   12  C15 UNK     1      18.160   7.334  31.963  1.00  0.00     0.015 A 
HETATM   13  C17 UNK     1      17.495   8.043  32.963  1.00  0.00     0.001 A 
HETATM   14  C19 UNK     1      18.052   8.137  34.239  1.00  0.00     0.000 A 
HETATM   15  C18 UNK     1      19.273   7.522  34.513  1.00  0.00     0.001 A 
HETATM   16  C16 UNK     1      19.938   6.814  33.512  1.00  0.00     0.015 A 
ENDBRANCH   9  11
ENDBRANCH   8   9
ENDBRANCH   4   7
BRANCH   1  17
HETATM   17  N1  UNK     1      18.381   0.574  33.956  1.00  0.00    -0.377 N 
HETATM   18  C1  UNK     1      17.451   0.751  35.077  1.00  0.00     0.149 C 
HETATM   19  C3  UNK     1      17.893  -0.110  36.255  1.00  0.00     0.187 C 
HETATM   20  O1  UNK     1      18.036  -1.472  35.852  1.00  0.00    -0.388 OA
HETATM   21  C4  UNK     1      19.055  -1.599  34.862  1.00  0.00     0.187 C 
HETATM   22  C2  UNK     1      18.677  -0.822  33.605  1.00  0.00     0.149 C 
ENDBRANCH   1  17
TORSDOF 4
ENDMDL
MODEL 6
REMARK VINA RESULT:      -7.1     32.422     34.974
REMARK  4 active torsions:
REMARK  status: ('A' for Active; 'I' for Inactive)
REMARK    1  A    between atoms: C5_8  and  N1_3 
REMARK    2  A    between atoms: C11_14  and  C8_11 
REMARK    3  A    between atoms: C12_15  and  C13_16 
REMARK    4  A    between atoms: C13_16  and  C14_17 
ROOT
HETATM    1  C5  UNK     1      24.157  -7.216  39.106  1.00  0.00     0.030 A 
HETATM    2  C6  UNK     1      23.345  -8.275  39.509  1.00  0.00     0.030 A 
HETATM    3  C7  UNK     1      23.583  -6.005  38.716  1.00  0.00     0.030 A 
HETATM    4  C8  UNK     1      21.384  -6.915  39.137  1.00  0.00    -0.036 A 
HETATM    5  C9  UNK     1      21.958  -8.125  39.525  1.00  0.00     0.013 A 
HETATM    6  C10 UNK     1      22.196  -5.856  38.733  1.00  0.00     0.013 A 
ENDROOT
BRANCH   4   7
HETATM    7  C11 UNK     1      19.938  -6.757  39.153  1.00  0.00     0.015 C 
HETATM    8  C12 UNK     1      19.131  -6.852  38.072  1.00  0.00     0.056 C 
BRANCH   8   9
HETATM    9  C13 UNK     1      19.705  -7.140  36.729  1.00  0.00     0.182 C 
HETATM   10  O2  UNK     1      19.714  -6.314  35.823  1.00  0.00    -0.288 OA
BRANCH   9  11
HETATM   11  C14 UNK     1      20.312  -8.476  36.510  1.00  0.00     0.014 A 
HETATM   12  C15 UNK     1      21.490  -8.596  35.773  1.00  0.00     0.015 A 
HETATM   13  C17 UNK     1      22.060  -9.852  35.567  1.00  0.00     0.001 A 
HETATM   14  C19 UNK     1      21.451 -10.989  36.099  1.00  0.00     0.000 A 
HETATM   15  C18 UNK     1      20.274 -10.869  36.836  1.00  0.00     0.001 A 
HETATM   16  C16 UNK     1      19.704  -9.612  37.042  1.00  0.00     0.015 A 
ENDBRANCH   9  11
ENDBRANCH   8   9
ENDBRANCH   4   7
BRANCH   1  17
HETATM   17  N1  UNK     1      25.548  -7.368  39.089  1.00  0.00    -0.377 N 
HETATM   18  C1  UNK     1      26.136  -8.704  38.944  1.00  0.00     0.149 C 
HETATM   19  C3  UNK     1      27.578  -8.688  39.440  1.00  0.00     0.187 C 
HETATM   20  O1  UNK     1      28.324  -7.669  38.775  1.00  0.00    -0.388 OA
HETATM   21  C4  UNK     1      27.788  -6.380  39.071  1.00  0.00     0.187 C 
HETATM   22  C2  UNK     1      26.358  -6.266  38.553  1.00  0.00     0.149 C 
ENDBRANCH   1  17
TORSDOF 4
ENDMDL
MODEL 7
REMARK VINA RESULT:      -7.1      2.383      7.550
REMARK  4 active torsions:
REMARK  status: ('A' for Active; 'I' for Inactive)
REMARK    1  A    between atoms: C5_8  and  N1_3 
REMARK    2  A    between atoms: C11_14  and  C8_11 
REMARK    3  A    between atoms: C12_15  and  C13_16 
REMARK    4  A    between atoms: C13_16  and  C14_17 
ROOT
HETATM    1  C5  UNK     1      13.167   6.895   8.616  1.00  0.00     0.030 A 
HETATM    2  C6  UNK     1      12.187   7.865   8.814  1.00  0.00     0.030 A 
HETATM    3  C7  UNK     1      12.875   5.748   7.876  1.00  0.00     0.030 A 
HETATM    4  C8  UNK     1      10.621   6.546   7.532  1.00  0.00    -0.036 A 
HETATM    5  C9  UNK     1      10.913   7.691   8.273  1.00  0.00     0.013 A 
HETATM    6  C10 UNK     1      11.602   5.575   7.334  1.00  0.00     0.013 A 
ENDROOT
BRANCH   4   7
HETATM    7  C11 UNK     1       9.292   6.364   6.967  1.00  0.00     0.015 C 
HETATM    8  C12 UNK     1       8.222   5.879   7.635  1.00  0.00     0.056 C 
BRANCH   8   9
HETATM    9  C13 UNK     1       8.343   5.481   9.064  1.00  0.00     0.182 C 
HETATM   10  O2  UNK     1       9.027   4.531   9.431  1.00  0.00    -0.288 OA
BRANCH   9  11
HETATM   11  C14 UNK     1       7.624   6.299  10.071  1.00  0.00     0.014 A 
HETATM   12  C15 UNK     1       6.914   5.678  11.098  1.00  0.00     0.015 A 
HETATM   13  C17 UNK     1       6.237   6.448  12.044  1.00  0.00     0.001 A 
HETATM   14  C19 UNK     1       6.271   7.840  11.962  1.00  0.00     0.000 A 
HETATM   15  C18 UNK     1       6.981   8.461  10.936  1.00  0.00     0.001 A 
HETATM   16  C16 UNK     1       7.658   7.691   9.990  1.00  0.00     0.015 A 
ENDBRANCH   9  11
ENDBRANCH   8   9
ENDBRANCH   4   7
BRANCH   1  17
HETATM   17  N1  UNK     1      14.444   7.069   9.160  1.00  0.00    -0.377 N 
HETATM   18  C1  UNK     1      14.784   8.323   9.842  1.00  0.00     0.149 C 
HETATM   19  C3  UNK     1      16.299   8.484   9.900  1.00  0.00     0.187 C 
HETATM   20  O1  UNK     1      16.901   7.337  10.500  1.00  0.00    -0.388 OA
HETATM   21  C4  UNK     1      16.654   6.172   9.712  1.00  0.00     0.187 C 
HETATM   22  C2  UNK     1      15.159   5.881   9.645  1.00  0.00     0.149 C 
ENDBRANCH   1  17
TORSDOF 4
ENDMDL
MODEL 8
REMARK VINA RESULT:      -7.0     26.937     29.169
REMARK  4 active torsions:
REMARK  status: ('A' for Active; 'I' for Inactive)
REMARK    1  A    between atoms: C5_8  and  N1_3 
REMARK    2  A    between atoms: C11_14  and  C8_11 
REMARK    3  A    between atoms: C12_15  and  C13_16 
REMARK    4  A    between atoms: C13_16  and  C14_17 
ROOT
HETATM    1  C5  UNK     1      19.601  -3.696  36.875  1.00  0.00     0.030 A 
HETATM    2  C6  UNK     1      20.584  -2.979  36.194  1.00  0.00     0.030 A 
HETATM    3  C7  UNK     1      18.367  -3.104  37.147  1.00  0.00     0.030 A 
HETATM    4  C8  UNK     1      19.101  -1.077  36.053  1.00  0.00    -0.036 A 
HETATM    5  C9  UNK     1      20.334  -1.670  35.783  1.00  0.00     0.013 A 
HETATM    6  C10 UNK     1      18.118  -1.794  36.735  1.00  0.00     0.013 A 
ENDROOT
BRANCH   4   7
HETATM    7  C11 UNK     1      18.840   0.288  35.625  1.00  0.00     0.015 C 
HETATM    8  C12 UNK     1      18.343   0.645  34.419  1.00  0.00     0.056 C 
BRANCH   8   9
HETATM    9  C13 UNK     1      18.015  -0.394  33.404  1.00  0.00     0.182 C 
HETATM   10  O2  UNK     1      16.988  -1.062  33.449  1.00  0.00    -0.288 OA
BRANCH   9  11
HETATM   11  C14 UNK     1      18.969  -0.588  32.285  1.00  0.00     0.014 A 
HETATM   12  C15 UNK     1      19.609  -1.817  32.119  1.00  0.00     0.015 A 
HETATM   13  C17 UNK     1      20.507  -1.999  31.067  1.00  0.00     0.001 A 
HETATM   14  C19 UNK     1      20.764  -0.953  30.181  1.00  0.00     0.000 A 
HETATM   15  C18 UNK     1      20.124   0.274  30.346  1.00  0.00     0.001 A 
HETATM   16  C16 UNK     1      19.226   0.457  31.399  1.00  0.00     0.015 A 
ENDBRANCH   9  11
ENDBRANCH   8   9
ENDBRANCH   4   7
BRANCH   1  17
HETATM   17  N1  UNK     1      19.852  -5.009  37.288  1.00  0.00    -0.377 N 
HETATM   18  C1  UNK     1      19.115  -6.121  36.680  1.00  0.00     0.149 C 
HETATM   19  C3  UNK     1      19.178  -7.341  37.592  1.00  0.00     0.187 C 
HETATM   20  O1  UNK     1      20.533  -7.666  37.899  1.00  0.00    -0.388 OA
HETATM   21  C4  UNK     1      21.154  -6.600  38.617  1.00  0.00     0.187 C 
HETATM   22  C2  UNK     1      21.203  -5.339  37.762  1.00  0.00     0.149 C 
ENDBRANCH   1  17
TORSDOF 4
ENDMDL
MODEL 9
REMARK VINA RESULT:      -6.9     23.195     25.534
REMARK  4 active torsions:
REMARK  status: ('A' for Active; 'I' for Inactive)
REMARK    1  A    between atoms: C5_8  and  N1_3 
REMARK    2  A    between atoms: C11_14  and  C8_11 
REMARK    3  A    between atoms: C12_15  and  C13_16 
REMARK    4  A    between atoms: C13_16  and  C14_17 
ROOT
HETATM    1  C5  UNK     1      15.403  11.700  34.182  1.00  0.00     0.030 A 
HETATM    2  C6  UNK     1      14.337  11.327  33.366  1.00  0.00     0.030 A 
HETATM    3  C7  UNK     1      16.253  10.728  34.710  1.00  0.00     0.030 A 
HETATM    4  C8  UNK     1      14.967   9.007  33.603  1.00  0.00    -0.036 A 
HETATM    5  C9  UNK     1      14.118   9.980  33.076  1.00  0.00     0.013 A 
HETATM    6  C10 UNK     1      16.034   9.381  34.420  1.00  0.00     0.013 A 
ENDROOT
BRANCH   4   7
HETATM    7  C11 UNK     1      14.740   7.602  33.301  1.00  0.00     0.015 C 
HETATM    8  C12 UNK     1      15.416   6.885  32.376  1.00  0.00     0.056 C 
BRANCH   8   9
HETATM    9  C13 UNK     1      16.492   7.523  31.568  1.00  0.00     0.182 C 
HETATM   10  O2  UNK     1      16.270   8.421  30.762  1.00  0.00    -0.288 OA
BRANCH   9  11
HETATM   11  C14 UNK     1      17.884   7.060  31.786  1.00  0.00     0.014 A 
HETATM   12  C15 UNK     1      18.555   7.393  32.963  1.00  0.00     0.015 A 
HETATM   13  C17 UNK     1      19.864   6.957  33.167  1.00  0.00     0.001 A 
HETATM   14  C19 UNK     1      20.502   6.188  32.194  1.00  0.00     0.000 A 
HETATM   15  C18 UNK     1      19.832   5.855  31.018  1.00  0.00     0.001 A 
HETATM   16  C16 UNK     1      18.522   6.291  30.814  1.00  0.00     0.015 A 
ENDBRANCH   9  11
ENDBRANCH   8   9
ENDBRANCH   4   7
BRANCH   1  17
HETATM   17  N1  UNK     1      15.621  13.052  34.474  1.00  0.00    -0.377 N 
HETATM   18  C1  UNK     1      14.592  13.823  35.180  1.00  0.00     0.149 C 
HETATM   19  C3  UNK     1      14.816  15.313  34.948  1.00  0.00     0.187 C 
HETATM   20  O1  UNK     1      16.146  15.682  35.313  1.00  0.00    -0.388 OA
HETATM   21  C4  UNK     1      17.097  15.005  34.493  1.00  0.00     0.187 C 
HETATM   22  C2  UNK     1      17.002  13.497  34.701  1.00  0.00     0.149 C 
ENDBRANCH   1  17
TORSDOF 4
ENDMDL
MODEL 10
REMARK VINA RESULT:      -6.8     35.382     37.066
REMARK  4 active torsions:
REMARK  status: ('A' for Active; 'I' for Inactive)
REMARK    1  A    between atoms: C5_8  and  N1_3 
REMARK    2  A    between atoms: C11_14  and  C8_11 
REMARK    3  A    between atoms: C12_15  and  C13_16 
REMARK    4  A    between atoms: C13_16  and  C14_17 
ROOT
HETATM    1  C5  UNK     1      34.290  -6.599  35.367  1.00  0.00     0.030 A 
HETATM    2  C6  UNK     1      34.077  -7.296  36.555  1.00  0.00     0.030 A 
HETATM    3  C7  UNK     1      33.756  -5.321  35.201  1.00  0.00     0.030 A 
HETATM    4  C8  UNK     1      32.796  -5.438  37.416  1.00  0.00    -0.036 A 
HETATM    5  C9  UNK     1      33.330  -6.715  37.580  1.00  0.00     0.013 A 
HETATM    6  C10 UNK     1      33.009  -4.741  36.227  1.00  0.00     0.013 A 
ENDROOT
BRANCH   4   7
HETATM    7  C11 UNK     1      32.017  -4.832  38.485  1.00  0.00     0.015 C 
HETATM    8  C12 UNK     1      30.685  -4.985  38.661  1.00  0.00     0.056 C 
BRANCH   8   9
HETATM    9  C13 UNK     1      29.894  -5.827  37.722  1.00  0.00     0.182 C 
HETATM   10  O2  UNK     1      29.699  -5.510  36.553  1.00  0.00    -0.288 OA
BRANCH   9  11
HETATM   11  C14 UNK     1      29.356  -7.111  38.234  1.00  0.00     0.014 A 
HETATM   12  C15 UNK     1      28.207  -7.120  39.025  1.00  0.00     0.015 A 
HETATM   13  C17 UNK     1      27.702  -8.328  39.508  1.00  0.00     0.001 A 
HETATM   14  C19 UNK     1      28.347  -9.526  39.200  1.00  0.00     0.000 A 
HETATM   15  C18 UNK     1      29.495  -9.516  38.409  1.00  0.00     0.001 A 
HETATM   16  C16 UNK     1      30.000  -8.308  37.927  1.00  0.00     0.015 A 
ENDBRANCH   9  11
ENDBRANCH   8   9
ENDBRANCH   4   7
BRANCH   1  17
HETATM   17  N1  UNK     1      35.039  -7.182  34.338  1.00  0.00    -0.377 N 
HETATM   18  C1  UNK     1      34.627  -7.004  32.942  1.00  0.00     0.149 C 
HETATM   19  C3  UNK     1      35.257  -8.090  32.076  1.00  0.00     0.187 C 
HETATM   20  O1  UNK     1      36.674  -8.106  32.247  1.00  0.00    -0.388 OA
HETATM   21  C4  UNK     1      37.013  -8.426  33.596  1.00  0.00     0.187 C 
HETATM   22  C2  UNK     1      36.483  -7.357  34.547  1.00  0.00     0.149 C 
ENDBRANCH   1  17
TORSDOF 4
ENDMDL
