MODEL 1
REMARK VINA RESULT:      -8.6      0.000      0.000
REMARK  5 active torsions:
REMARK  status: ('A' for Active; 'I' for Inactive)
REMARK    1  A    between atoms: C13_19  and  O4_4 
REMARK    2  A    between atoms: C17_23  and  O4_4 
REMARK    3  A    between atoms: C3_9  and  N1_6 
REMARK       I    between atoms: C7_13  and  N1_6 
REMARK    4  A    between atoms: C1_7  and  C3_9 
REMARK    5  A    between atoms: C7_13  and  C8_14 
ROOT
HETATM    1  O3  UNK     1      18.876   0.260  32.461  1.00  0.00    -0.271 OA
HETATM    2  O5  UNK     1      17.965   2.344  32.673  1.00  0.00    -0.259 OA
HETATM    3  C8  UNK     1      18.930   1.815  30.574  1.00  0.00     0.108 A 
HETATM    4  C9  UNK     1      19.564   0.914  29.815  1.00  0.00     0.037 A 
HETATM    5  C10 UNK     1      19.896  -0.396  30.354  1.00  0.00     0.002 A 
HETATM    6  C11 UNK     1      18.546   1.522  31.973  1.00  0.00     0.304 A 
HETATM    7  C12 UNK     1      19.544  -0.692  31.667  1.00  0.00     0.123 A 
HETATM    8  C13 UNK     1      19.832  -1.928  32.244  1.00  0.00     0.103 A 
HETATM    9  C14 UNK     1      20.558  -1.367  29.599  1.00  0.00     0.014 A 
HETATM   10  C15 UNK     1      20.492  -2.890  31.483  1.00  0.00     0.040 A 
HETATM   11  C16 UNK     1      20.855  -2.611  30.163  1.00  0.00     0.004 A 
ENDROOT
BRANCH   3  12
HETATM   12  C7  UNK     1      18.639   3.107  29.941  1.00  0.00     0.258 C 
HETATM   13  O2  UNK     1      18.163   3.161  28.808  1.00  0.00    -0.267 OA
HETATM   14  N1  UNK     1      18.956   4.185  30.747  1.00  0.00    -0.350 N 
HETATM   15  H12 UNK     1      19.421   4.030  31.637  1.00  0.00     0.163 HD
BRANCH  14  16
HETATM   16  C3  UNK     1      18.761   5.557  30.340  1.00  0.00     0.109 C 
HETATM   17  C6  UNK     1      20.044   6.120  29.741  1.00  0.00     0.035 C 
BRANCH  16  18
HETATM   18  C1  UNK     1      18.286   6.397  31.510  1.00  0.00     0.143 C 
HETATM   19  O1  UNK     1      19.402   6.733  32.353  1.00  0.00    -0.384 OA
HETATM   20  C5  UNK     1      18.990   6.606  33.722  1.00  0.00     0.168 C 
HETATM   21  C4  UNK     1      17.491   6.394  33.715  1.00  0.00     0.029 C 
HETATM   22  C2  UNK     1      17.282   5.685  32.400  1.00  0.00     0.036 C 
ENDBRANCH  16  18
ENDBRANCH  14  16
ENDBRANCH   3  12
BRANCH   8  23
HETATM   23  O4  UNK     1      19.481  -2.205  33.528  1.00  0.00    -0.349 OA
BRANCH  23  24
HETATM   24  C17 UNK     1      20.533  -2.551  34.429  1.00  0.00     0.171 C 
HETATM   25  C18 UNK     1      20.143  -2.124  35.828  1.00  0.00     0.034 C 
ENDBRANCH  23  24
ENDBRANCH   8  23
TORSDOF 5
ENDMDL
MODEL 2
REMARK VINA RESULT:      -8.5      1.444      1.764
REMARK  5 active torsions:
REMARK  status: ('A' for Active; 'I' for Inactive)
REMARK    1  A    between atoms: C13_19  and  O4_4 
REMARK    2  A    between atoms: C17_23  and  O4_4 
REMARK    3  A    between atoms: C3_9  and  N1_6 
REMARK       I    between atoms: C7_13  and  N1_6 
REMARK    4  A    between atoms: C1_7  and  C3_9 
REMARK    5  A    between atoms: C7_13  and  C8_14 
ROOT
HETATM    1  O3  UNK     1      18.736   0.842  32.452  1.00  0.00    -0.271 OA
HETATM    2  O5  UNK     1      17.976   2.883  33.141  1.00  0.00    -0.259 OA
HETATM    3  C8  UNK     1      18.826   2.756  30.933  1.00  0.00     0.108 A 
HETATM    4  C9  UNK     1      19.368   2.002  29.971  1.00  0.00     0.037 A 
HETATM    5  C10 UNK     1      19.631   0.591  30.206  1.00  0.00     0.002 A 
HETATM    6  C11 UNK     1      18.474   2.196  32.257  1.00  0.00     0.304 A 
HETATM    7  C12 UNK     1      19.309   0.043  31.443  1.00  0.00     0.123 A 
HETATM    8  C13 UNK     1      19.534  -1.302  31.732  1.00  0.00     0.103 A 
HETATM    9  C14 UNK     1      20.198  -0.234  29.231  1.00  0.00     0.014 A 
HETATM   10  C15 UNK     1      20.099  -2.117  30.754  1.00  0.00     0.040 A 
HETATM   11  C16 UNK     1      20.431  -1.585  29.506  1.00  0.00     0.004 A 
ENDROOT
BRANCH   3  12
HETATM   12  C7  UNK     1      18.599   4.168  30.601  1.00  0.00     0.258 C 
HETATM   13  O2  UNK     1      18.524   4.536  29.430  1.00  0.00    -0.267 OA
HETATM   14  N1  UNK     1      18.491   4.974  31.719  1.00  0.00    -0.350 N 
HETATM   15  H12 UNK     1      18.650   4.580  32.642  1.00  0.00     0.163 HD
BRANCH  14  16
HETATM   16  C3  UNK     1      18.269   6.399  31.644  1.00  0.00     0.109 C 
HETATM   17  C6  UNK     1      19.086   7.120  32.710  1.00  0.00     0.035 C 
BRANCH  16  18
HETATM   18  C1  UNK     1      16.792   6.716  31.779  1.00  0.00     0.143 C 
HETATM   19  O1  UNK     1      16.508   7.986  31.168  1.00  0.00    -0.384 OA
HETATM   20  C5  UNK     1      15.594   8.701  32.013  1.00  0.00     0.168 C 
HETATM   21  C4  UNK     1      15.128   7.733  33.079  1.00  0.00     0.029 C 
HETATM   22  C2  UNK     1      16.324   6.825  33.219  1.00  0.00     0.036 C 
ENDBRANCH  16  18
ENDBRANCH  14  16
ENDBRANCH   3  12
BRANCH   8  23
HETATM   23  O4  UNK     1      19.213  -1.824  32.946  1.00  0.00    -0.349 OA
BRANCH  23  24
HETATM   24  C17 UNK     1      20.265  -2.440  33.688  1.00  0.00     0.171 C 
HETATM   25  C18 UNK     1      20.022  -2.217  35.166  1.00  0.00     0.034 C 
ENDBRANCH  23  24
ENDBRANCH   8  23
TORSDOF 5
ENDMDL
MODEL 3
REMARK VINA RESULT:      -8.2      4.576     10.170
REMARK  5 active torsions:
REMARK  status: ('A' for Active; 'I' for Inactive)
REMARK    1  A    between atoms: C13_19  and  O4_4 
REMARK    2  A    between atoms: C17_23  and  O4_4 
REMARK    3  A    between atoms: C3_9  and  N1_6 
REMARK       I    between atoms: C7_13  and  N1_6 
REMARK    4  A    between atoms: C1_7  and  C3_9 
REMARK    5  A    between atoms: C7_13  and  C8_14 
ROOT
HETATM    1  O3  UNK     1      19.290  -0.990  34.551  1.00  0.00    -0.271 OA
HETATM    2  O5  UNK     1      20.531  -2.781  33.865  1.00  0.00    -0.259 OA
HETATM    3  C8  UNK     1      19.746  -2.826  36.101  1.00  0.00     0.108 A 
HETATM    4  C9  UNK     1      19.056  -2.215  37.070  1.00  0.00     0.037 A 
HETATM    5  C10 UNK     1      18.432  -0.925  36.824  1.00  0.00     0.002 A 
HETATM    6  C11 UNK     1      19.900  -2.225  34.757  1.00  0.00     0.304 A 
HETATM    7  C12 UNK     1      18.564  -0.342  35.568  1.00  0.00     0.123 A 
HETATM    8  C13 UNK     1      17.989   0.892  35.268  1.00  0.00     0.103 A 
HETATM    9  C14 UNK     1      17.703  -0.250  37.807  1.00  0.00     0.014 A 
HETATM   10  C15 UNK     1      17.265   1.558  36.254  1.00  0.00     0.040 A 
HETATM   11  C16 UNK     1      17.121   0.989  37.521  1.00  0.00     0.004 A 
ENDROOT
BRANCH   3  12
HETATM   12  C7  UNK     1      20.340  -4.124  36.445  1.00  0.00     0.258 C 
HETATM   13  O2  UNK     1      21.243  -4.204  37.276  1.00  0.00    -0.267 OA
HETATM   14  N1  UNK     1      19.777  -5.177  35.745  1.00  0.00    -0.350 N 
HETATM   15  H12 UNK     1      19.090  -4.990  35.020  1.00  0.00     0.163 HD
BRANCH  14  16
HETATM   16  C3  UNK     1      20.199  -6.548  35.913  1.00  0.00     0.109 C 
HETATM   17  C6  UNK     1      20.249  -7.255  34.565  1.00  0.00     0.035 C 
BRANCH  16  18
HETATM   18  C1  UNK     1      19.282  -7.272  36.879  1.00  0.00     0.143 C 
HETATM   19  O1  UNK     1      19.725  -7.055  38.229  1.00  0.00    -0.384 OA
HETATM   20  C5  UNK     1      19.617  -8.293  38.947  1.00  0.00     0.168 C 
HETATM   21  C4  UNK     1      18.867  -9.258  38.054  1.00  0.00     0.029 C 
HETATM   22  C2  UNK     1      19.258  -8.778  36.678  1.00  0.00     0.036 C 
ENDBRANCH  16  18
ENDBRANCH  14  16
ENDBRANCH   3  12
BRANCH   8  23
HETATM   23  O4  UNK     1      18.125   1.450  34.035  1.00  0.00    -0.349 OA
BRANCH  23  24
HETATM   24  C17 UNK     1      18.227   2.873  33.973  1.00  0.00     0.171 C 
HETATM   25  C18 UNK     1      18.179   3.308  32.524  1.00  0.00     0.034 C 
ENDBRANCH  23  24
ENDBRANCH   8  23
TORSDOF 5
ENDMDL
MODEL 4
REMARK VINA RESULT:      -8.2      2.342      3.821
REMARK  5 active torsions:
REMARK  status: ('A' for Active; 'I' for Inactive)
REMARK    1  A    between atoms: C13_19  and  O4_4 
REMARK    2  A    between atoms: C17_23  and  O4_4 
REMARK    3  A    between atoms: C3_9  and  N1_6 
REMARK       I    between atoms: C7_13  and  N1_6 
REMARK    4  A    between atoms: C1_7  and  C3_9 
REMARK    5  A    between atoms: C7_13  and  C8_14 
ROOT
HETATM    1  O3  UNK     1      18.731  -0.265  33.933  1.00  0.00    -0.271 OA
HETATM    2  O5  UNK     1      18.980   0.304  31.735  1.00  0.00    -0.259 OA
HETATM    3  C8  UNK     1      18.186   2.000  33.188  1.00  0.00     0.108 A 
HETATM    4  C9  UNK     1      17.840   2.355  34.430  1.00  0.00     0.037 A 
HETATM    5  C10 UNK     1      17.922   1.392  35.518  1.00  0.00     0.002 A 
HETATM    6  C11 UNK     1      18.661   0.634  32.872  1.00  0.00     0.304 A 
HETATM    7  C12 UNK     1      18.366   0.103  35.243  1.00  0.00     0.123 A 
HETATM    8  C13 UNK     1      18.469  -0.866  36.239  1.00  0.00     0.103 A 
HETATM    9  C14 UNK     1      17.569   1.718  36.829  1.00  0.00     0.014 A 
HETATM   10  C15 UNK     1      18.116  -0.532  37.545  1.00  0.00     0.040 A 
HETATM   11  C16 UNK     1      17.667   0.757  37.840  1.00  0.00     0.004 A 
ENDROOT
BRANCH   3  12
HETATM   12  C7  UNK     1      18.068   3.040  32.158  1.00  0.00     0.258 C 
HETATM   13  O2  UNK     1      17.538   2.798  31.076  1.00  0.00    -0.267 OA
HETATM   14  N1  UNK     1      18.605   4.252  32.553  1.00  0.00    -0.350 N 
HETATM   15  H12 UNK     1      19.094   4.321  33.442  1.00  0.00     0.163 HD
BRANCH  14  16
HETATM   16  C3  UNK     1      18.609   5.424  31.709  1.00  0.00     0.109 C 
HETATM   17  C6  UNK     1      19.948   5.559  30.996  1.00  0.00     0.035 C 
BRANCH  16  18
HETATM   18  C1  UNK     1      18.291   6.665  32.520  1.00  0.00     0.143 C 
HETATM   19  O1  UNK     1      19.508   7.254  33.008  1.00  0.00    -0.384 OA
HETATM   20  C5  UNK     1      19.296   7.676  34.364  1.00  0.00     0.168 C 
HETATM   21  C4  UNK     1      17.815   7.536  34.644  1.00  0.00     0.029 C 
HETATM   22  C2  UNK     1      17.435   6.387  33.743  1.00  0.00     0.036 C 
ENDBRANCH  16  18
ENDBRANCH  14  16
ENDBRANCH   3  12
BRANCH   8  23
HETATM   23  O4  UNK     1      18.906  -2.123  35.957  1.00  0.00    -0.349 OA
BRANCH  23  24
HETATM   24  C17 UNK     1      20.276  -2.413  36.234  1.00  0.00     0.171 C 
HETATM   25  C18 UNK     1      20.347  -3.515  37.270  1.00  0.00     0.034 C 
ENDBRANCH  23  24
ENDBRANCH   8  23
TORSDOF 5
ENDMDL
MODEL 5
REMARK VINA RESULT:      -8.1      4.717     10.445
REMARK  5 active torsions:
REMARK  status: ('A' for Active; 'I' for Inactive)
REMARK    1  A    between atoms: C13_19  and  O4_4 
REMARK    2  A    between atoms: C17_23  and  O4_4 
REMARK    3  A    between atoms: C3_9  and  N1_6 
REMARK       I    between atoms: C7_13  and  N1_6 
REMARK    4  A    between atoms: C1_7  and  C3_9 
REMARK    5  A    between atoms: C7_13  and  C8_14 
ROOT
HETATM    1  O3  UNK     1      19.742  -1.083  34.902  1.00  0.00    -0.271 OA
HETATM    2  O5  UNK     1      20.805  -2.925  34.069  1.00  0.00    -0.259 OA
HETATM    3  C8  UNK     1      19.667  -3.197  36.130  1.00  0.00     0.108 A 
HETATM    4  C9  UNK     1      18.924  -2.642  37.094  1.00  0.00     0.037 A 
HETATM    5  C10 UNK     1      18.542  -1.241  37.011  1.00  0.00     0.002 A 
HETATM    6  C11 UNK     1      20.124  -2.421  34.955  1.00  0.00     0.304 A 
HETATM    7  C12 UNK     1      18.960  -0.493  35.915  1.00  0.00     0.123 A 
HETATM    8  C13 UNK     1      18.627   0.853  35.774  1.00  0.00     0.103 A 
HETATM    9  C14 UNK     1      17.768  -0.620  37.995  1.00  0.00     0.014 A 
HETATM   10  C15 UNK     1      17.856   1.464  36.760  1.00  0.00     0.040 A 
HETATM   11  C16 UNK     1      17.426   0.730  37.868  1.00  0.00     0.004 A 
ENDROOT
BRANCH   3  12
HETATM   12  C7  UNK     1      20.002  -4.615  36.303  1.00  0.00     0.258 C 
HETATM   13  O2  UNK     1      20.175  -5.346  35.329  1.00  0.00    -0.267 OA
HETATM   14  N1  UNK     1      20.089  -4.990  37.632  1.00  0.00    -0.350 N 
HETATM   15  H12 UNK     1      19.848  -4.324  38.361  1.00  0.00     0.163 HD
BRANCH  14  16
HETATM   16  C3  UNK     1      20.405  -6.336  38.051  1.00  0.00     0.109 C 
HETATM   17  C6  UNK     1      19.794  -6.622  39.417  1.00  0.00     0.035 C 
BRANCH  16  18
HETATM   18  C1  UNK     1      21.906  -6.551  38.066  1.00  0.00     0.143 C 
HETATM   19  O1  UNK     1      22.257  -7.601  37.148  1.00  0.00    -0.384 OA
HETATM   20  C5  UNK     1      23.259  -8.425  37.763  1.00  0.00     0.168 C 
HETATM   21  C4  UNK     1      23.698  -7.717  39.028  1.00  0.00     0.029 C 
HETATM   22  C2  UNK     1      22.444  -6.976  39.421  1.00  0.00     0.036 C 
ENDBRANCH  16  18
ENDBRANCH  14  16
ENDBRANCH   3  12
BRANCH   8  23
HETATM   23  O4  UNK     1      19.042   1.572  34.698  1.00  0.00    -0.349 OA
BRANCH  23  24
HETATM   24  C17 UNK     1      18.035   2.043  33.802  1.00  0.00     0.171 C 
HETATM   25  C18 UNK     1      18.273   3.511  33.521  1.00  0.00     0.034 C 
ENDBRANCH  23  24
ENDBRANCH   8  23
TORSDOF 5
ENDMDL
MODEL 6
REMARK VINA RESULT:      -8.1      3.677      8.537
REMARK  5 active torsions:
REMARK  status: ('A' for Active; 'I' for Inactive)
REMARK    1  A    between atoms: C13_19  and  O4_4 
REMARK    2  A    between atoms: C17_23  and  O4_4 
REMARK    3  A    between atoms: C3_9  and  N1_6 
REMARK       I    between atoms: C7_13  and  N1_6 
REMARK    4  A    between atoms: C1_7  and  C3_9 
REMARK    5  A    between atoms: C7_13  and  C8_14 
ROOT
HETATM    1  O3  UNK     1      18.586  -0.065  33.193  1.00  0.00    -0.271 OA
HETATM    2  O5  UNK     1      17.931  -0.023  35.381  1.00  0.00    -0.259 OA
HETATM    3  C8  UNK     1      19.347  -1.809  34.730  1.00  0.00     0.108 A 
HETATM    4  C9  UNK     1      20.038  -2.407  33.754  1.00  0.00     0.037 A 
HETATM    5  C10 UNK     1      20.038  -1.851  32.409  1.00  0.00     0.002 A 
HETATM    6  C11 UNK     1      18.566  -0.575  34.489  1.00  0.00     0.304 A 
HETATM    7  C12 UNK     1      19.311  -0.692  32.160  1.00  0.00     0.123 A 
HETATM    8  C13 UNK     1      19.271  -0.108  30.895  1.00  0.00     0.103 A 
HETATM    9  C14 UNK     1      20.743  -2.443  31.359  1.00  0.00     0.014 A 
HETATM   10  C15 UNK     1      19.977  -0.705  29.854  1.00  0.00     0.040 A 
HETATM   11  C16 UNK     1      20.713  -1.869  30.084  1.00  0.00     0.004 A 
ENDROOT
BRANCH   3  12
HETATM   12  C7  UNK     1      19.407  -2.445  36.052  1.00  0.00     0.258 C 
HETATM   13  O2  UNK     1      19.187  -1.797  37.074  1.00  0.00    -0.267 OA
HETATM   14  N1  UNK     1      19.729  -3.789  35.989  1.00  0.00    -0.350 N 
HETATM   15  H12 UNK     1      19.971  -4.208  35.096  1.00  0.00     0.163 HD
BRANCH  14  16
HETATM   16  C3  UNK     1      19.849  -4.625  37.161  1.00  0.00     0.109 C 
HETATM   17  C6  UNK     1      21.276  -4.589  37.693  1.00  0.00     0.035 C 
BRANCH  16  18
HETATM   18  C1  UNK     1      19.416  -6.044  36.848  1.00  0.00     0.143 C 
HETATM   19  O1  UNK     1      20.138  -6.534  35.704  1.00  0.00    -0.384 OA
HETATM   20  C5  UNK     1      19.224  -7.262  34.870  1.00  0.00     0.168 C 
HETATM   21  C4  UNK     1      17.935  -7.410  35.650  1.00  0.00     0.029 C 
HETATM   22  C2  UNK     1      17.942  -6.166  36.503  1.00  0.00     0.036 C 
ENDBRANCH  16  18
ENDBRANCH  14  16
ENDBRANCH   3  12
BRANCH   8  23
HETATM   23  O4  UNK     1      18.557   1.026  30.666  1.00  0.00    -0.349 OA
BRANCH  23  24
HETATM   24  C17 UNK     1      18.972   1.847  29.574  1.00  0.00     0.171 C 
HETATM   25  C18 UNK     1      17.829   1.973  28.589  1.00  0.00     0.034 C 
ENDBRANCH  23  24
ENDBRANCH   8  23
TORSDOF 5
ENDMDL
MODEL 7
REMARK VINA RESULT:      -8.0      2.489      4.025
REMARK  5 active torsions:
REMARK  status: ('A' for Active; 'I' for Inactive)
REMARK    1  A    between atoms: C13_19  and  O4_4 
REMARK    2  A    between atoms: C17_23  and  O4_4 
REMARK    3  A    between atoms: C3_9  and  N1_6 
REMARK       I    between atoms: C7_13  and  N1_6 
REMARK    4  A    between atoms: C1_7  and  C3_9 
REMARK    5  A    between atoms: C7_13  and  C8_14 
ROOT
HETATM    1  O3  UNK     1      18.303   1.681  31.802  1.00  0.00    -0.271 OA
HETATM    2  O5  UNK     1      18.316   3.129  30.036  1.00  0.00    -0.259 OA
HETATM    3  C8  UNK     1      18.323   4.094  32.200  1.00  0.00     0.108 A 
HETATM    4  C9  UNK     1      18.321   3.902  33.524  1.00  0.00     0.037 A 
HETATM    5  C10 UNK     1      18.308   2.554  34.070  1.00  0.00     0.002 A 
HETATM    6  C11 UNK     1      18.314   2.959  31.250  1.00  0.00     0.304 A 
HETATM    7  C12 UNK     1      18.299   1.473  33.195  1.00  0.00     0.123 A 
HETATM    8  C13 UNK     1      18.287   0.157  33.653  1.00  0.00     0.103 A 
HETATM    9  C14 UNK     1      18.303   2.307  35.446  1.00  0.00     0.014 A 
HETATM   10  C15 UNK     1      18.283  -0.080  35.026  1.00  0.00     0.040 A 
HETATM   11  C16 UNK     1      18.291   0.992  35.921  1.00  0.00     0.004 A 
ENDROOT
BRANCH   3  12
HETATM   12  C7  UNK     1      18.336   5.489  31.746  1.00  0.00     0.258 C 
HETATM   13  O2  UNK     1      18.995   5.827  30.764  1.00  0.00    -0.267 OA
HETATM   14  N1  UNK     1      17.553   6.318  32.529  1.00  0.00    -0.350 N 
HETATM   15  H12 UNK     1      17.113   5.951  33.368  1.00  0.00     0.163 HD
BRANCH  14  16
HETATM   16  C3  UNK     1      17.411   7.734  32.279  1.00  0.00     0.109 C 
HETATM   17  C6  UNK     1      18.158   8.536  33.336  1.00  0.00     0.035 C 
BRANCH  16  18
HETATM   18  C1  UNK     1      15.946   8.121  32.230  1.00  0.00     0.143 C 
HETATM   19  O1  UNK     1      15.550   8.691  33.490  1.00  0.00    -0.384 OA
HETATM   20  C5  UNK     1      14.251   8.182  33.829  1.00  0.00     0.168 C 
HETATM   21  C4  UNK     1      13.736   7.438  32.615  1.00  0.00     0.029 C 
HETATM   22  C2  UNK     1      15.016   6.945  31.987  1.00  0.00     0.036 C 
ENDBRANCH  16  18
ENDBRANCH  14  16
ENDBRANCH   3  12
BRANCH   8  23
HETATM   23  O4  UNK     1      18.280  -0.890  32.786  1.00  0.00    -0.349 OA
BRANCH  23  24
HETATM   24  C17 UNK     1      19.485  -1.647  32.669  1.00  0.00     0.171 C 
HETATM   25  C18 UNK     1      20.023  -1.503  31.261  1.00  0.00     0.034 C 
ENDBRANCH  23  24
ENDBRANCH   8  23
TORSDOF 5
ENDMDL
MODEL 8
REMARK VINA RESULT:      -7.8      5.530      9.143
REMARK  5 active torsions:
REMARK  status: ('A' for Active; 'I' for Inactive)
REMARK    1  A    between atoms: C13_19  and  O4_4 
REMARK    2  A    between atoms: C17_23  and  O4_4 
REMARK    3  A    between atoms: C3_9  and  N1_6 
REMARK       I    between atoms: C7_13  and  N1_6 
REMARK    4  A    between atoms: C1_7  and  C3_9 
REMARK    5  A    between atoms: C7_13  and  C8_14 
ROOT
HETATM    1  O3  UNK     1      20.200  -7.282  35.900  1.00  0.00    -0.271 OA
HETATM    2  O5  UNK     1      20.238  -5.532  34.433  1.00  0.00    -0.259 OA
HETATM    3  C8  UNK     1      20.156  -4.985  36.737  1.00  0.00     0.108 A 
HETATM    4  C9  UNK     1      20.115  -5.418  38.002  1.00  0.00     0.037 A 
HETATM    5  C10 UNK     1      20.114  -6.844  38.289  1.00  0.00     0.002 A 
HETATM    6  C11 UNK     1      20.201  -5.924  35.594  1.00  0.00     0.304 A 
HETATM    7  C12 UNK     1      20.157  -7.744  37.230  1.00  0.00     0.123 A 
HETATM    8  C13 UNK     1      20.159  -9.122  37.437  1.00  0.00     0.103 A 
HETATM    9  C14 UNK     1      20.071  -7.341  39.594  1.00  0.00     0.014 A 
HETATM   10  C15 UNK     1      20.116  -9.609  38.741  1.00  0.00     0.040 A 
HETATM   11  C16 UNK     1      20.073  -8.721  39.818  1.00  0.00     0.004 A 
ENDROOT
BRANCH   3  12
HETATM   12  C7  UNK     1      20.152  -3.529  36.549  1.00  0.00     0.258 C 
HETATM   13  O2  UNK     1      21.115  -2.957  36.040  1.00  0.00    -0.267 OA
HETATM   14  N1  UNK     1      18.989  -2.930  36.997  1.00  0.00    -0.350 N 
HETATM   15  H12 UNK     1      18.287  -3.487  37.476  1.00  0.00     0.163 HD
BRANCH  14  16
HETATM   16  C3  UNK     1      18.756  -1.507  36.919  1.00  0.00     0.109 C 
HETATM   17  C6  UNK     1      17.959  -1.034  38.128  1.00  0.00     0.035 C 
BRANCH  16  18
HETATM   18  C1  UNK     1      18.050  -1.153  35.625  1.00  0.00     0.143 C 
HETATM   19  O1  UNK     1      18.852  -0.228  34.869  1.00  0.00    -0.384 OA
HETATM   20  C5  UNK     1      17.986   0.770  34.309  1.00  0.00     0.168 C 
HETATM   21  C4  UNK     1      16.565   0.309  34.552  1.00  0.00     0.029 C 
HETATM   22  C2  UNK     1      16.706  -0.476  35.832  1.00  0.00     0.036 C 
ENDBRANCH  16  18
ENDBRANCH  14  16
ENDBRANCH   3  12
BRANCH   8  23
HETATM   23  O4  UNK     1      20.202  -9.991  36.391  1.00  0.00    -0.349 OA
BRANCH  23  24
HETATM   24  C17 UNK     1      21.298 -10.904  36.349  1.00  0.00     0.171 C 
HETATM   25  C18 UNK     1      22.065 -10.695  35.060  1.00  0.00     0.034 C 
ENDBRANCH  23  24
ENDBRANCH   8  23
TORSDOF 5
ENDMDL
MODEL 9
REMARK VINA RESULT:      -7.7      6.217      9.232
REMARK  5 active torsions:
REMARK  status: ('A' for Active; 'I' for Inactive)
REMARK    1  A    between atoms: C13_19  and  O4_4 
REMARK    2  A    between atoms: C17_23  and  O4_4 
REMARK    3  A    between atoms: C3_9  and  N1_6 
REMARK       I    between atoms: C7_13  and  N1_6 
REMARK    4  A    between atoms: C1_7  and  C3_9 
REMARK    5  A    between atoms: C7_13  and  C8_14 
ROOT
HETATM    1  O3  UNK     1      19.098  -7.184  37.715  1.00  0.00    -0.271 OA
HETATM    2  O5  UNK     1      17.782  -5.957  36.308  1.00  0.00    -0.259 OA
HETATM    3  C8  UNK     1      19.932  -5.082  36.783  1.00  0.00     0.108 A 
HETATM    4  C9  UNK     1      21.094  -5.224  37.430  1.00  0.00     0.037 A 
HETATM    5  C10 UNK     1      21.325  -6.385  38.277  1.00  0.00     0.002 A 
HETATM    6  C11 UNK     1      18.848  -6.083  36.899  1.00  0.00     0.304 A 
HETATM    7  C12 UNK     1      20.319  -7.339  38.400  1.00  0.00     0.123 A 
HETATM    8  C13 UNK     1      20.477  -8.473  39.194  1.00  0.00     0.103 A 
HETATM    9  C14 UNK     1      22.522  -6.574  38.972  1.00  0.00     0.014 A 
HETATM   10  C15 UNK     1      21.674  -8.653  39.883  1.00  0.00     0.040 A 
HETATM   11  C16 UNK     1      22.695  -7.707  39.773  1.00  0.00     0.004 A 
ENDROOT
BRANCH   3  12
HETATM   12  C7  UNK     1      19.794  -3.878  35.954  1.00  0.00     0.258 C 
HETATM   13  O2  UNK     1      20.455  -3.742  34.926  1.00  0.00    -0.267 OA
HETATM   14  N1  UNK     1      18.875  -2.977  36.461  1.00  0.00    -0.350 N 
HETATM   15  H12 UNK     1      18.442  -3.153  37.363  1.00  0.00     0.163 HD
BRANCH  14  16
HETATM   16  C3  UNK     1      18.571  -1.719  35.821  1.00  0.00     0.109 C 
HETATM   17  C6  UNK     1      19.714  -0.733  36.019  1.00  0.00     0.035 C 
BRANCH  16  18
HETATM   18  C1  UNK     1      17.264  -1.157  36.346  1.00  0.00     0.143 C 
HETATM   19  O1  UNK     1      16.352  -0.941  35.256  1.00  0.00    -0.384 OA
HETATM   20  C5  UNK     1      15.682   0.312  35.467  1.00  0.00     0.168 C 
HETATM   21  C4  UNK     1      16.042   0.777  36.861  1.00  0.00     0.029 C 
HETATM   22  C2  UNK     1      17.418   0.185  37.042  1.00  0.00     0.036 C 
ENDBRANCH  16  18
ENDBRANCH  14  16
ENDBRANCH   3  12
BRANCH   8  23
HETATM   23  O4  UNK     1      19.487  -9.398  39.304  1.00  0.00    -0.349 OA
BRANCH  23  24
HETATM   24  C17 UNK     1      19.757 -10.705  38.797  1.00  0.00     0.171 C 
HETATM   25  C18 UNK     1      19.514 -10.713  37.302  1.00  0.00     0.034 C 
ENDBRANCH  23  24
ENDBRANCH   8  23
TORSDOF 5
ENDMDL
MODEL 10
REMARK VINA RESULT:      -7.6     10.246     13.462
REMARK  5 active torsions:
REMARK  status: ('A' for Active; 'I' for Inactive)
REMARK    1  A    between atoms: C13_19  and  O4_4 
REMARK    2  A    between atoms: C17_23  and  O4_4 
REMARK    3  A    between atoms: C3_9  and  N1_6 
REMARK       I    between atoms: C7_13  and  N1_6 
REMARK    4  A    between atoms: C1_7  and  C3_9 
REMARK    5  A    between atoms: C7_13  and  C8_14 
ROOT
HETATM    1  O3  UNK     1      25.552  -5.632  38.823  1.00  0.00    -0.271 OA
HETATM    2  O5  UNK     1      23.302  -5.240  38.866  1.00  0.00    -0.259 OA
HETATM    3  C8  UNK     1      23.984  -7.510  38.848  1.00  0.00     0.108 A 
HETATM    4  C9  UNK     1      24.993  -8.388  38.827  1.00  0.00     0.037 A 
HETATM    5  C10 UNK     1      26.371  -7.921  38.801  1.00  0.00     0.002 A 
HETATM    6  C11 UNK     1      24.223  -6.049  38.847  1.00  0.00     0.304 A 
HETATM    7  C12 UNK     1      26.618  -6.552  38.800  1.00  0.00     0.123 A 
HETATM    8  C13 UNK     1      27.914  -6.041  38.776  1.00  0.00     0.103 A 
HETATM    9  C14 UNK     1      27.455  -8.802  38.777  1.00  0.00     0.014 A 
HETATM   10  C15 UNK     1      28.989  -6.926  38.752  1.00  0.00     0.040 A 
HETATM   11  C16 UNK     1      28.761  -8.304  38.753  1.00  0.00     0.004 A 
ENDROOT
BRANCH   3  12
HETATM   12  C7  UNK     1      22.630  -8.076  38.873  1.00  0.00     0.258 C 
HETATM   13  O2  UNK     1      21.987  -8.128  39.920  1.00  0.00    -0.267 OA
HETATM   14  N1  UNK     1      22.208  -8.517  37.632  1.00  0.00    -0.350 N 
HETATM   15  H12 UNK     1      22.851  -8.501  36.845  1.00  0.00     0.163 HD
BRANCH  14  16
HETATM   16  C3  UNK     1      20.912  -9.115  37.408  1.00  0.00     0.109 C 
HETATM   17  C6  UNK     1      21.039 -10.629  37.295  1.00  0.00     0.035 C 
BRANCH  16  18
HETATM   18  C1  UNK     1      20.261  -8.525  36.172  1.00  0.00     0.143 C 
HETATM   19  O1  UNK     1      20.857  -7.253  35.865  1.00  0.00    -0.384 OA
HETATM   20  C5  UNK     1      19.814  -6.344  35.481  1.00  0.00     0.168 C 
HETATM   21  C4  UNK     1      18.548  -7.161  35.335  1.00  0.00     0.029 C 
HETATM   22  C2  UNK     1      18.773  -8.267  36.335  1.00  0.00     0.036 C 
ENDBRANCH  16  18
ENDBRANCH  14  16
ENDBRANCH   3  12
BRANCH   8  23
HETATM   23  O4  UNK     1      28.142  -4.700  38.776  1.00  0.00    -0.349 OA
BRANCH  23  24
HETATM   24  C17 UNK     1      29.470  -4.265  39.066  1.00  0.00     0.171 C 
HETATM   25  C18 UNK     1      30.137  -3.827  37.779  1.00  0.00     0.034 C 
ENDBRANCH  23  24
ENDBRANCH   8  23
TORSDOF 5
ENDMDL
