MODEL 1
REMARK VINA RESULT:      -8.9      0.000      0.000
REMARK  5 active torsions:
REMARK  status: ('A' for Active; 'I' for Inactive)
REMARK    1  A    between atoms: C14_20  and  O3_3 
REMARK    2  A    between atoms: C18_24  and  O3_3 
REMARK    3  A    between atoms: C6_12  and  N1_5 
REMARK    4  A    between atoms: C1_7  and  N2_6 
REMARK       I    between atoms: C8_14  and  N2_6 
REMARK    5  A    between atoms: C8_14  and  C9_15 
ROOT
HETATM    1  O2  UNK     1      18.793  -0.558  34.107  1.00  0.00    -0.271 OA
HETATM    2  O4  UNK     1      19.019   0.036  31.912  1.00  0.00    -0.259 OA
HETATM    3  C9  UNK     1      18.155   1.686  33.377  1.00  0.00     0.108 A 
HETATM    4  C10 UNK     1      17.794   2.019  34.622  1.00  0.00     0.037 A 
HETATM    5  C11 UNK     1      18.687   0.344  33.052  1.00  0.00     0.304 A 
HETATM    6  C12 UNK     1      17.916   1.052  35.702  1.00  0.00     0.002 A 
HETATM    7  C13 UNK     1      18.414  -0.216  35.420  1.00  0.00     0.123 A 
HETATM    8  C14 UNK     1      18.556  -1.187  36.409  1.00  0.00     0.103 A 
HETATM    9  C15 UNK     1      17.549   1.354  37.016  1.00  0.00     0.014 A 
HETATM   10  C16 UNK     1      18.189  -0.877  37.716  1.00  0.00     0.040 A 
HETATM   11  C17 UNK     1      17.686   0.390  38.020  1.00  0.00     0.004 A 
ENDROOT
BRANCH   3  12
HETATM   12  C8  UNK     1      17.994   2.733  32.351  1.00  0.00     0.258 C 
HETATM   13  O1  UNK     1      17.680   2.439  31.202  1.00  0.00    -0.267 OA
HETATM   14  N2  UNK     1      18.232   4.002  32.842  1.00  0.00    -0.352 N 
HETATM   15  H12 UNK     1      18.499   4.125  33.813  1.00  0.00     0.163 HD
BRANCH  14  16
HETATM   16  C1  UNK     1      18.138   5.190  32.023  1.00  0.00     0.088 C 
HETATM   17  C2  UNK     1      19.503   5.863  31.869  1.00  0.00     0.055 C 
HETATM   18  C4  UNK     1      19.949   6.564  33.156  1.00  0.00     0.274 C 
HETATM   19  N1  UNK     1      18.939   7.529  33.611  1.00  0.00     0.088 N 
HETATM   20  C5  UNK     1      17.650   6.871  33.865  1.00  0.00     0.274 C 
HETATM   21  C3  UNK     1      17.125   6.180  32.602  1.00  0.00     0.055 C 
BRANCH  19  22
HETATM   22  C6  UNK     1      19.401   8.227  34.810  1.00  0.00     0.268 C 
HETATM   23  C7  UNK     1      20.366   9.343  34.466  1.00  0.00     0.037 C 
ENDBRANCH  19  22
ENDBRANCH  14  16
ENDBRANCH   3  12
BRANCH   8  24
HETATM   24  O3  UNK     1      19.045  -2.421  36.118  1.00  0.00    -0.349 OA
BRANCH  24  25
HETATM   25  C18 UNK     1      20.400  -2.687  36.479  1.00  0.00     0.171 C 
HETATM   26  C19 UNK     1      20.451  -3.954  37.306  1.00  0.00     0.034 C 
ENDBRANCH  24  25
ENDBRANCH   8  24
TORSDOF 5
ENDMDL
MODEL 2
REMARK VINA RESULT:      -8.2      4.872      9.996
REMARK  5 active torsions:
REMARK  status: ('A' for Active; 'I' for Inactive)
REMARK    1  A    between atoms: C14_20  and  O3_3 
REMARK    2  A    between atoms: C18_24  and  O3_3 
REMARK    3  A    between atoms: C6_12  and  N1_5 
REMARK    4  A    between atoms: C1_7  and  N2_6 
REMARK       I    between atoms: C8_14  and  N2_6 
REMARK    5  A    between atoms: C8_14  and  C9_15 
ROOT
HETATM    1  O2  UNK     1      18.812  -0.365  33.501  1.00  0.00    -0.271 OA
HETATM    2  O4  UNK     1      18.275  -0.473  35.719  1.00  0.00    -0.259 OA
HETATM    3  C9  UNK     1      19.628  -2.221  34.867  1.00  0.00     0.108 A 
HETATM    4  C10 UNK     1      20.258  -2.755  33.814  1.00  0.00     0.037 A 
HETATM    5  C11 UNK     1      18.854  -0.965  34.757  1.00  0.00     0.304 A 
HETATM    6  C12 UNK     1      20.194  -2.104  32.515  1.00  0.00     0.002 A 
HETATM    7  C13 UNK     1      19.471  -0.922  32.388  1.00  0.00     0.123 A 
HETATM    8  C14 UNK     1      19.371  -0.249  31.172  1.00  0.00     0.103 A 
HETATM    9  C15 UNK     1      20.833  -2.626  31.387  1.00  0.00     0.014 A 
HETATM   10  C16 UNK     1      20.013  -0.776  30.054  1.00  0.00     0.040 A 
HETATM   11  C17 UNK     1      20.742  -1.962  30.161  1.00  0.00     0.004 A 
ENDROOT
BRANCH   3  12
HETATM   12  C8  UNK     1      19.751  -2.955  36.140  1.00  0.00     0.258 C 
HETATM   13  O1  UNK     1      20.263  -2.424  37.120  1.00  0.00    -0.267 OA
HETATM   14  N2  UNK     1      19.241  -4.237  36.068  1.00  0.00    -0.352 N 
HETATM   15  H12 UNK     1      18.851  -4.576  35.195  1.00  0.00     0.163 HD
BRANCH  14  16
HETATM   16  C1  UNK     1      19.252  -5.148  37.190  1.00  0.00     0.088 C 
HETATM   17  C2  UNK     1      20.671  -5.636  37.492  1.00  0.00     0.055 C 
HETATM   18  C4  UNK     1      21.174  -6.632  36.443  1.00  0.00     0.274 C 
HETATM   19  N1  UNK     1      20.251  -7.766  36.304  1.00  0.00     0.088 N 
HETATM   20  C5  UNK     1      18.909  -7.316  35.909  1.00  0.00     0.274 C 
HETATM   21  C3  UNK     1      18.328  -6.343  36.940  1.00  0.00     0.055 C 
BRANCH  19  22
HETATM   22  C6  UNK     1      20.771  -8.734  35.338  1.00  0.00     0.268 C 
HETATM   23  C7  UNK     1      21.968  -9.479  35.888  1.00  0.00     0.037 C 
ENDBRANCH  19  22
ENDBRANCH  14  16
ENDBRANCH   3  12
BRANCH   8  24
HETATM   24  O3  UNK     1      18.662   0.906  31.064  1.00  0.00    -0.349 OA
BRANCH  24  25
HETATM   25  C18 UNK     1      19.042   1.808  30.026  1.00  0.00     0.171 C 
HETATM   26  C19 UNK     1      17.902   1.935  29.038  1.00  0.00     0.034 C 
ENDBRANCH  24  25
ENDBRANCH   8  24
TORSDOF 5
ENDMDL
MODEL 3
REMARK VINA RESULT:      -7.9     10.682     13.539
REMARK  5 active torsions:
REMARK  status: ('A' for Active; 'I' for Inactive)
REMARK    1  A    between atoms: C14_20  and  O3_3 
REMARK    2  A    between atoms: C18_24  and  O3_3 
REMARK    3  A    between atoms: C6_12  and  N1_5 
REMARK    4  A    between atoms: C1_7  and  N2_6 
REMARK       I    between atoms: C8_14  and  N2_6 
REMARK    5  A    between atoms: C8_14  and  C9_15 
ROOT
HETATM    1  O2  UNK     1      25.841  -5.812  38.671  1.00  0.00    -0.271 OA
HETATM    2  O4  UNK     1      23.601  -5.435  38.927  1.00  0.00    -0.259 OA
HETATM    3  C9  UNK     1      24.323  -7.688  39.070  1.00  0.00     0.108 A 
HETATM    4  C10 UNK     1      25.341  -8.556  39.027  1.00  0.00     0.037 A 
HETATM    5  C11 UNK     1      24.531  -6.234  38.889  1.00  0.00     0.304 A 
HETATM    6  C12 UNK     1      26.697  -8.083  38.797  1.00  0.00     0.002 A 
HETATM    7  C13 UNK     1      26.916  -6.720  38.623  1.00  0.00     0.123 A 
HETATM    8  C14 UNK     1      28.190  -6.203  38.399  1.00  0.00     0.103 A 
HETATM    9  C15 UNK     1      27.790  -8.953  38.742  1.00  0.00     0.014 A 
HETATM   10  C16 UNK     1      29.274  -7.077  38.347  1.00  0.00     0.040 A 
HETATM   11  C17 UNK     1      29.074  -8.449  38.518  1.00  0.00     0.004 A 
ENDROOT
BRANCH   3  12
HETATM   12  C8  UNK     1      22.987  -8.262  39.308  1.00  0.00     0.258 C 
HETATM   13  O1  UNK     1      22.492  -8.250  40.431  1.00  0.00    -0.267 OA
HETATM   14  N2  UNK     1      22.417  -8.780  38.161  1.00  0.00    -0.352 N 
HETATM   15  H12 UNK     1      22.928  -8.746  37.285  1.00  0.00     0.163 HD
BRANCH  14  16
HETATM   16  C1  UNK     1      21.110  -9.398  38.146  1.00  0.00     0.088 C 
HETATM   17  C2  UNK     1      20.812 -10.024  36.781  1.00  0.00     0.055 C 
HETATM   18  C4  UNK     1      20.525  -8.966  35.712  1.00  0.00     0.274 C 
HETATM   19  N1  UNK     1      19.434  -8.075  36.127  1.00  0.00     0.088 N 
HETATM   20  C5  UNK     1      19.758  -7.387  37.384  1.00  0.00     0.274 C 
HETATM   21  C3  UNK     1      20.018  -8.391  38.512  1.00  0.00     0.055 C 
BRANCH  19  22
HETATM   22  C6  UNK     1      19.137  -7.104  35.074  1.00  0.00     0.268 C 
HETATM   23  C7  UNK     1      20.326  -6.896  34.159  1.00  0.00     0.037 C 
ENDBRANCH  19  22
ENDBRANCH  14  16
ENDBRANCH   3  12
BRANCH   8  24
HETATM   24  O3  UNK     1      28.389  -4.869  38.233  1.00  0.00    -0.349 OA
BRANCH  24  25
HETATM   25  C18 UNK     1      29.575  -4.312  38.799  1.00  0.00     0.171 C 
HETATM   26  C19 UNK     1      30.429  -3.737  37.689  1.00  0.00     0.034 C 
ENDBRANCH  24  25
ENDBRANCH   8  24
TORSDOF 5
ENDMDL
MODEL 4
REMARK VINA RESULT:      -7.9     10.954     13.562
REMARK  5 active torsions:
REMARK  status: ('A' for Active; 'I' for Inactive)
REMARK    1  A    between atoms: C14_20  and  O3_3 
REMARK    2  A    between atoms: C18_24  and  O3_3 
REMARK    3  A    between atoms: C6_12  and  N1_5 
REMARK    4  A    between atoms: C1_7  and  N2_6 
REMARK       I    between atoms: C8_14  and  N2_6 
REMARK    5  A    between atoms: C8_14  and  C9_15 
ROOT
HETATM    1  O2  UNK     1      20.508  -9.174  35.588  1.00  0.00    -0.271 OA
HETATM    2  O4  UNK     1      21.908 -10.509  34.372  1.00  0.00    -0.259 OA
HETATM    3  C9  UNK     1      22.726  -9.730  36.456  1.00  0.00     0.108 A 
HETATM    4  C10 UNK     1      22.504  -9.009  37.562  1.00  0.00     0.037 A 
HETATM    5  C11 UNK     1      21.709  -9.850  35.387  1.00  0.00     0.304 A 
HETATM    6  C12 UNK     1      21.239  -8.314  37.741  1.00  0.00     0.002 A 
HETATM    7  C13 UNK     1      20.269  -8.413  36.749  1.00  0.00     0.123 A 
HETATM    8  C14 UNK     1      19.037  -7.772  36.860  1.00  0.00     0.103 A 
HETATM    9  C15 UNK     1      20.965  -7.549  38.877  1.00  0.00     0.014 A 
HETATM   10  C16 UNK     1      18.771  -7.012  37.997  1.00  0.00     0.040 A 
HETATM   11  C17 UNK     1      19.733  -6.900  39.003  1.00  0.00     0.004 A 
ENDROOT
BRANCH   3  12
HETATM   12  C8  UNK     1      24.037 -10.397  36.365  1.00  0.00     0.258 C 
HETATM   13  O1  UNK     1      24.149 -11.483  35.805  1.00  0.00    -0.267 OA
HETATM   14  N2  UNK     1      25.048  -9.669  36.962  1.00  0.00    -0.352 N 
HETATM   15  H12 UNK     1      24.835  -8.783  37.410  1.00  0.00     0.163 HD
BRANCH  14  16
HETATM   16  C1  UNK     1      26.421 -10.120  37.003  1.00  0.00     0.088 C 
HETATM   17  C2  UNK     1      26.879 -10.366  38.442  1.00  0.00     0.055 C 
HETATM   18  C4  UNK     1      27.094  -9.059  39.210  1.00  0.00     0.274 C 
HETATM   19  N1  UNK     1      28.037  -8.179  38.505  1.00  0.00     0.088 N 
HETATM   20  C5  UNK     1      27.552  -7.851  37.157  1.00  0.00     0.274 C 
HETATM   21  C3  UNK     1      27.352  -9.117  36.319  1.00  0.00     0.055 C 
BRANCH  19  22
HETATM   22  C6  UNK     1      28.273  -6.959  39.275  1.00  0.00     0.268 C 
HETATM   23  C7  UNK     1      29.445  -6.173  38.726  1.00  0.00     0.037 C 
ENDBRANCH  19  22
ENDBRANCH  14  16
ENDBRANCH   3  12
BRANCH   8  24
HETATM   24  O3  UNK     1      18.098  -7.878  35.883  1.00  0.00    -0.349 OA
BRANCH  24  25
HETATM   25  C18 UNK     1      17.058  -6.900  35.870  1.00  0.00     0.171 C 
HETATM   26  C19 UNK     1      16.014  -7.302  34.851  1.00  0.00     0.034 C 
ENDBRANCH  24  25
ENDBRANCH   8  24
TORSDOF 5
ENDMDL
MODEL 5
REMARK VINA RESULT:      -7.8      2.148      3.418
REMARK  5 active torsions:
REMARK  status: ('A' for Active; 'I' for Inactive)
REMARK    1  A    between atoms: C14_20  and  O3_3 
REMARK    2  A    between atoms: C18_24  and  O3_3 
REMARK    3  A    between atoms: C6_12  and  N1_5 
REMARK    4  A    between atoms: C1_7  and  N2_6 
REMARK       I    between atoms: C8_14  and  N2_6 
REMARK    5  A    between atoms: C8_14  and  C9_15 
ROOT
HETATM    1  O2  UNK     1      18.686   1.029  31.336  1.00  0.00    -0.271 OA
HETATM    2  O4  UNK     1      18.916   2.431  29.546  1.00  0.00    -0.259 OA
HETATM    3  C9  UNK     1      18.515   3.448  31.648  1.00  0.00     0.108 A 
HETATM    4  C10 UNK     1      18.304   3.291  32.961  1.00  0.00     0.037 A 
HETATM    5  C11 UNK     1      18.722   2.291  30.749  1.00  0.00     0.304 A 
HETATM    6  C12 UNK     1      18.271   1.959  33.543  1.00  0.00     0.002 A 
HETATM    7  C13 UNK     1      18.463   0.857  32.716  1.00  0.00     0.123 A 
HETATM    8  C14 UNK     1      18.444  -0.446  33.211  1.00  0.00     0.103 A 
HETATM    9  C15 UNK     1      18.051   1.747  34.906  1.00  0.00     0.014 A 
HETATM   10  C16 UNK     1      18.225  -0.647  34.571  1.00  0.00     0.040 A 
HETATM   11  C17 UNK     1      18.029   0.446  35.418  1.00  0.00     0.004 A 
ENDROOT
BRANCH   3  12
HETATM   12  C8  UNK     1      18.531   4.837  31.152  1.00  0.00     0.258 C 
HETATM   13  O1  UNK     1      18.769   5.076  29.973  1.00  0.00    -0.267 OA
HETATM   14  N2  UNK     1      18.257   5.759  32.143  1.00  0.00    -0.352 N 
HETATM   15  H12 UNK     1      18.087   5.444  33.093  1.00  0.00     0.163 HD
BRANCH  14  16
HETATM   16  C1  UNK     1      18.218   7.184  31.899  1.00  0.00     0.088 C 
HETATM   17  C2  UNK     1      18.402   7.972  33.198  1.00  0.00     0.055 C 
HETATM   18  C4  UNK     1      17.161   7.907  34.092  1.00  0.00     0.274 C 
HETATM   19  N1  UNK     1      15.964   8.361  33.371  1.00  0.00     0.088 N 
HETATM   20  C5  UNK     1      15.718   7.539  32.178  1.00  0.00     0.274 C 
HETATM   21  C3  UNK     1      16.910   7.592  31.217  1.00  0.00     0.055 C 
BRANCH  19  22
HETATM   22  C6  UNK     1      14.797   8.343  34.254  1.00  0.00     0.268 C 
HETATM   23  C7  UNK     1      14.229   9.733  34.451  1.00  0.00     0.037 C 
ENDBRANCH  19  22
ENDBRANCH  14  16
ENDBRANCH   3  12
BRANCH   8  24
HETATM   24  O3  UNK     1      18.634  -1.513  32.390  1.00  0.00    -0.349 OA
BRANCH  24  25
HETATM   25  C18 UNK     1      19.983  -1.896  32.124  1.00  0.00     0.171 C 
HETATM   26  C19 UNK     1      20.163  -2.063  30.630  1.00  0.00     0.034 C 
ENDBRANCH  24  25
ENDBRANCH   8  24
TORSDOF 5
ENDMDL
MODEL 6
REMARK VINA RESULT:      -7.7     11.628     14.619
REMARK  5 active torsions:
REMARK  status: ('A' for Active; 'I' for Inactive)
REMARK    1  A    between atoms: C14_20  and  O3_3 
REMARK    2  A    between atoms: C18_24  and  O3_3 
REMARK    3  A    between atoms: C6_12  and  N1_5 
REMARK    4  A    between atoms: C1_7  and  N2_6 
REMARK       I    between atoms: C8_14  and  N2_6 
REMARK    5  A    between atoms: C8_14  and  C9_15 
ROOT
HETATM    1  O2  UNK     1      26.628  -7.766  38.257  1.00  0.00    -0.271 OA
HETATM    2  O4  UNK     1      24.408  -8.304  38.198  1.00  0.00    -0.259 OA
HETATM    3  C9  UNK     1      25.868  -9.682  36.941  1.00  0.00     0.108 A 
HETATM    4  C10 UNK     1      27.121  -9.945  36.550  1.00  0.00     0.037 A 
HETATM    5  C11 UNK     1      25.554  -8.548  37.838  1.00  0.00     0.304 A 
HETATM    6  C12 UNK     1      28.221  -9.108  37.004  1.00  0.00     0.002 A 
HETATM    7  C13 UNK     1      27.949  -8.037  37.848  1.00  0.00     0.123 A 
HETATM    8  C14 UNK     1      28.956  -7.197  38.319  1.00  0.00     0.103 A 
HETATM    9  C15 UNK     1      29.543  -9.343  36.620  1.00  0.00     0.014 A 
HETATM   10  C16 UNK     1      30.272  -7.440  37.932  1.00  0.00     0.040 A 
HETATM   11  C17 UNK     1      30.565  -8.511  37.084  1.00  0.00     0.004 A 
ENDROOT
BRANCH   3  12
HETATM   12  C8  UNK     1      24.822 -10.586  36.427  1.00  0.00     0.258 C 
HETATM   13  O1  UNK     1      25.105 -11.718  36.051  1.00  0.00    -0.267 OA
HETATM   14  N2  UNK     1      23.568 -10.006  36.433  1.00  0.00    -0.352 N 
HETATM   15  H12 UNK     1      23.455  -9.051  36.756  1.00  0.00     0.163 HD
BRANCH  14  16
HETATM   16  C1  UNK     1      22.384 -10.697  35.973  1.00  0.00     0.088 C 
HETATM   17  C2  UNK     1      21.767  -9.989  34.765  1.00  0.00     0.055 C 
HETATM   18  C4  UNK     1      21.074  -8.680  35.155  1.00  0.00     0.274 C 
HETATM   19  N1  UNK     1      20.066  -8.905  36.200  1.00  0.00     0.088 N 
HETATM   20  C5  UNK     1      20.670  -9.487  37.407  1.00  0.00     0.274 C 
HETATM   21  C3  UNK     1      21.349 -10.824  37.093  1.00  0.00     0.055 C 
BRANCH  19  22
HETATM   22  C6  UNK     1      19.377  -7.656  36.525  1.00  0.00     0.268 C 
HETATM   23  C7  UNK     1      18.957  -7.615  37.979  1.00  0.00     0.037 C 
ENDBRANCH  19  22
ENDBRANCH  14  16
ENDBRANCH   3  12
BRANCH   8  24
HETATM   24  O3  UNK     1      28.675  -6.154  39.144  1.00  0.00    -0.349 OA
BRANCH  24  25
HETATM   25  C18 UNK     1      28.667  -4.850  38.565  1.00  0.00     0.171 C 
HETATM   26  C19 UNK     1      29.650  -3.973  39.311  1.00  0.00     0.034 C 
ENDBRANCH  24  25
ENDBRANCH   8  24
TORSDOF 5
ENDMDL
MODEL 7
REMARK VINA RESULT:      -7.7     11.728     14.965
REMARK  5 active torsions:
REMARK  status: ('A' for Active; 'I' for Inactive)
REMARK    1  A    between atoms: C14_20  and  O3_3 
REMARK    2  A    between atoms: C18_24  and  O3_3 
REMARK    3  A    between atoms: C6_12  and  N1_5 
REMARK    4  A    between atoms: C1_7  and  N2_6 
REMARK       I    between atoms: C8_14  and  N2_6 
REMARK    5  A    between atoms: C8_14  and  C9_15 
ROOT
HETATM    1  O2  UNK     1      24.667  -8.460  37.347  1.00  0.00    -0.271 OA
HETATM    2  O4  UNK     1      26.103  -7.044  38.421  1.00  0.00    -0.259 OA
HETATM    3  C9  UNK     1      26.943  -9.189  37.863  1.00  0.00     0.108 A 
HETATM    4  C10 UNK     1      26.716 -10.384  37.306  1.00  0.00     0.037 A 
HETATM    5  C11 UNK     1      25.899  -8.141  37.911  1.00  0.00     0.304 A 
HETATM    6  C12 UNK     1      25.417 -10.687  36.726  1.00  0.00     0.002 A 
HETATM    7  C13 UNK     1      24.421  -9.717  36.760  1.00  0.00     0.123 A 
HETATM    8  C14 UNK     1      23.156  -9.944  36.222  1.00  0.00     0.103 A 
HETATM    9  C15 UNK     1      25.135 -11.922  36.136  1.00  0.00     0.014 A 
HETATM   10  C16 UNK     1      22.883 -11.177  35.635  1.00  0.00     0.040 A 
HETATM   11  C17 UNK     1      23.871 -12.164  35.592  1.00  0.00     0.004 A 
ENDROOT
BRANCH   3  12
HETATM   12  C8  UNK     1      28.290  -8.976  38.425  1.00  0.00     0.258 C 
HETATM   13  O1  UNK     1      28.778  -9.789  39.203  1.00  0.00    -0.267 OA
HETATM   14  N2  UNK     1      28.876  -7.809  37.975  1.00  0.00    -0.352 N 
HETATM   15  H12 UNK     1      28.370  -7.203  37.339  1.00  0.00     0.163 HD
BRANCH  14  16
HETATM   16  C1  UNK     1      30.195  -7.385  38.389  1.00  0.00     0.088 C 
HETATM   17  C2  UNK     1      30.319  -5.860  38.362  1.00  0.00     0.055 C 
HETATM   18  C4  UNK     1      30.391  -5.312  36.933  1.00  0.00     0.274 C 
HETATM   19  N1  UNK     1      31.486  -5.938  36.181  1.00  0.00     0.088 N 
HETATM   20  C5  UNK     1      31.319  -7.396  36.110  1.00  0.00     0.274 C 
HETATM   21  C3  UNK     1      31.279  -8.015  37.511  1.00  0.00     0.055 C 
BRANCH  19  22
HETATM   22  C6  UNK     1      31.575  -5.368  34.837  1.00  0.00     0.268 C 
HETATM   23  C7  UNK     1      32.735  -4.401  34.719  1.00  0.00     0.037 C 
ENDBRANCH  19  22
ENDBRANCH  14  16
ENDBRANCH   3  12
BRANCH   8  24
HETATM   24  O3  UNK     1      22.192  -8.985  36.262  1.00  0.00    -0.349 OA
BRANCH  24  25
HETATM   25  C18 UNK     1      21.296  -8.917  35.153  1.00  0.00     0.171 C 
HETATM   26  C19 UNK     1      20.607  -7.570  35.157  1.00  0.00     0.034 C 
ENDBRANCH  24  25
ENDBRANCH   8  24
TORSDOF 5
ENDMDL
MODEL 8
REMARK VINA RESULT:      -7.7     25.412     27.807
REMARK  5 active torsions:
REMARK  status: ('A' for Active; 'I' for Inactive)
REMARK    1  A    between atoms: C14_20  and  O3_3 
REMARK    2  A    between atoms: C18_24  and  O3_3 
REMARK    3  A    between atoms: C6_12  and  N1_5 
REMARK    4  A    between atoms: C1_7  and  N2_6 
REMARK       I    between atoms: C8_14  and  N2_6 
REMARK    5  A    between atoms: C8_14  and  C9_15 
ROOT
HETATM    1  O2  UNK     1      17.922   9.486   9.323  1.00  0.00    -0.271 OA
HETATM    2  O4  UNK     1      17.366   7.618  10.517  1.00  0.00    -0.259 OA
HETATM    3  C9  UNK     1      15.570   8.937   9.709  1.00  0.00     0.108 A 
HETATM    4  C10 UNK     1      15.177  10.020   9.028  1.00  0.00     0.037 A 
HETATM    5  C11 UNK     1      17.002   8.610   9.894  1.00  0.00     0.304 A 
HETATM    6  C12 UNK     1      16.163  10.916   8.445  1.00  0.00     0.002 A 
HETATM    7  C13 UNK     1      17.515  10.628   8.606  1.00  0.00     0.123 A 
HETATM    8  C14 UNK     1      18.509  11.445   8.073  1.00  0.00     0.103 A 
HETATM    9  C15 UNK     1      15.799  12.059   7.729  1.00  0.00     0.014 A 
HETATM   10  C16 UNK     1      18.137  12.582   7.359  1.00  0.00     0.040 A 
HETATM   11  C17 UNK     1      16.785  12.889   7.187  1.00  0.00     0.004 A 
ENDROOT
BRANCH   3  12
HETATM   12  C8  UNK     1      14.497   8.090  10.263  1.00  0.00     0.258 C 
HETATM   13  O1  UNK     1      14.132   8.226  11.426  1.00  0.00    -0.267 OA
HETATM   14  N2  UNK     1      14.003   7.187   9.342  1.00  0.00    -0.352 N 
HETATM   15  H12 UNK     1      14.394   7.156   8.406  1.00  0.00     0.163 HD
BRANCH  14  16
HETATM   16  C1  UNK     1      12.948   6.249   9.653  1.00  0.00     0.088 C 
HETATM   17  C2  UNK     1      13.001   5.031   8.728  1.00  0.00     0.055 C 
HETATM   18  C4  UNK     1      12.535   5.365   7.308  1.00  0.00     0.274 C 
HETATM   19  N1  UNK     1      11.190   5.956   7.317  1.00  0.00     0.088 N 
HETATM   20  C5  UNK     1      11.154   7.187   8.118  1.00  0.00     0.274 C 
HETATM   21  C3  UNK     1      11.573   6.915   9.566  1.00  0.00     0.055 C 
BRANCH  19  22
HETATM   22  C6  UNK     1      10.738   6.220   5.951  1.00  0.00     0.268 C 
HETATM   23  C7  UNK     1       9.233   6.379   5.885  1.00  0.00     0.037 C 
ENDBRANCH  19  22
ENDBRANCH  14  16
ENDBRANCH   3  12
BRANCH   8  24
HETATM   24  O3  UNK     1      19.826  11.151   8.237  1.00  0.00    -0.349 OA
BRANCH  24  25
HETATM   25  C18 UNK     1      20.692  12.224   8.602  1.00  0.00     0.171 C 
HETATM   26  C19 UNK     1      22.122  11.829   8.301  1.00  0.00     0.034 C 
ENDBRANCH  24  25
ENDBRANCH   8  24
TORSDOF 5
ENDMDL
MODEL 9
REMARK VINA RESULT:      -7.7     12.146     14.183
REMARK  5 active torsions:
REMARK  status: ('A' for Active; 'I' for Inactive)
REMARK    1  A    between atoms: C14_20  and  O3_3 
REMARK    2  A    between atoms: C18_24  and  O3_3 
REMARK    3  A    between atoms: C6_12  and  N1_5 
REMARK    4  A    between atoms: C1_7  and  N2_6 
REMARK       I    between atoms: C8_14  and  N2_6 
REMARK    5  A    between atoms: C8_14  and  C9_15 
ROOT
HETATM    1  O2  UNK     1      23.725  -8.110  37.663  1.00  0.00    -0.271 OA
HETATM    2  O4  UNK     1      25.635  -7.249  38.575  1.00  0.00    -0.259 OA
HETATM    3  C9  UNK     1      25.853  -9.281  37.376  1.00  0.00     0.108 A 
HETATM    4  C10 UNK     1      25.257 -10.246  36.665  1.00  0.00     0.037 A 
HETATM    5  C11 UNK     1      25.093  -8.135  37.923  1.00  0.00     0.304 A 
HETATM    6  C12 UNK     1      23.826 -10.191  36.411  1.00  0.00     0.002 A 
HETATM    7  C13 UNK     1      23.092  -9.123  36.917  1.00  0.00     0.123 A 
HETATM    8  C14 UNK     1      21.718  -9.012  36.709  1.00  0.00     0.103 A 
HETATM    9  C15 UNK     1      23.161 -11.177  35.677  1.00  0.00     0.014 A 
HETATM   10  C16 UNK     1      21.065  -9.998  35.975  1.00  0.00     0.040 A 
HETATM   11  C17 UNK     1      21.784 -11.079  35.460  1.00  0.00     0.004 A 
ENDROOT
BRANCH   3  12
HETATM   12  C8  UNK     1      27.306  -9.424  37.580  1.00  0.00     0.258 C 
HETATM   13  O1  UNK     1      27.749 -10.295  38.321  1.00  0.00    -0.267 OA
HETATM   14  N2  UNK     1      28.038  -8.498  36.864  1.00  0.00    -0.352 N 
HETATM   15  H12 UNK     1      27.560  -7.812  36.290  1.00  0.00     0.163 HD
BRANCH  14  16
HETATM   16  C1  UNK     1      29.482  -8.440  36.905  1.00  0.00     0.088 C 
HETATM   17  C2  UNK     1      29.977  -7.986  38.281  1.00  0.00     0.055 C 
HETATM   18  C4  UNK     1      29.728  -6.494  38.520  1.00  0.00     0.274 C 
HETATM   19  N1  UNK     1      30.327  -5.679  37.455  1.00  0.00     0.088 N 
HETATM   20  C5  UNK     1      29.778  -6.035  36.139  1.00  0.00     0.274 C 
HETATM   21  C3  UNK     1      30.029  -7.512  35.818  1.00  0.00     0.055 C 
BRANCH  19  22
HETATM   22  C6  UNK     1      30.126  -4.255  37.725  1.00  0.00     0.268 C 
HETATM   23  C7  UNK     1      29.564  -4.028  39.113  1.00  0.00     0.037 C 
ENDBRANCH  19  22
ENDBRANCH  14  16
ENDBRANCH   3  12
BRANCH   8  24
HETATM   24  O3  UNK     1      21.014  -7.961  37.208  1.00  0.00    -0.349 OA
BRANCH  24  25
HETATM   25  C18 UNK     1      19.944  -8.262  38.102  1.00  0.00     0.171 C 
HETATM   26  C19 UNK     1      20.233  -7.633  39.449  1.00  0.00     0.034 C 
ENDBRANCH  24  25
ENDBRANCH   8  24
TORSDOF 5
ENDMDL
MODEL 10
REMARK VINA RESULT:      -7.6     24.718     26.643
REMARK  5 active torsions:
REMARK  status: ('A' for Active; 'I' for Inactive)
REMARK    1  A    between atoms: C14_20  and  O3_3 
REMARK    2  A    between atoms: C18_24  and  O3_3 
REMARK    3  A    between atoms: C6_12  and  N1_5 
REMARK    4  A    between atoms: C1_7  and  N2_6 
REMARK       I    between atoms: C8_14  and  N2_6 
REMARK    5  A    between atoms: C8_14  and  C9_15 
ROOT
HETATM    1  O2  UNK     1       6.541   4.086  10.854  1.00  0.00    -0.271 OA
HETATM    2  O4  UNK     1       7.510   3.740   8.814  1.00  0.00    -0.259 OA
HETATM    3  C9  UNK     1       7.484   5.970   9.613  1.00  0.00     0.108 A 
HETATM    4  C10 UNK     1       7.137   6.820  10.587  1.00  0.00     0.037 A 
HETATM    5  C11 UNK     1       7.194   4.522   9.704  1.00  0.00     0.304 A 
HETATM    6  C12 UNK     1       6.455   6.333  11.776  1.00  0.00     0.002 A 
HETATM    7  C13 UNK     1       6.172   4.975  11.882  1.00  0.00     0.123 A 
HETATM    8  C14 UNK     1       5.521   4.445  12.994  1.00  0.00     0.103 A 
HETATM    9  C15 UNK     1       6.072   7.184  12.816  1.00  0.00     0.014 A 
HETATM   10  C16 UNK     1       5.144   5.300  14.027  1.00  0.00     0.040 A 
HETATM   11  C17 UNK     1       5.418   6.667  13.938  1.00  0.00     0.004 A 
ENDROOT
BRANCH   3  12
HETATM   12  C8  UNK     1       8.171   6.559   8.449  1.00  0.00     0.258 C 
HETATM   13  O1  UNK     1       7.528   7.070   7.538  1.00  0.00    -0.267 OA
HETATM   14  N2  UNK     1       9.545   6.454   8.532  1.00  0.00    -0.352 N 
HETATM   15  H12 UNK     1       9.969   5.996   9.332  1.00  0.00     0.163 HD
BRANCH  14  16
HETATM   16  C1  UNK     1      10.433   6.957   7.508  1.00  0.00     0.088 C 
HETATM   17  C2  UNK     1      11.129   5.810   6.770  1.00  0.00     0.055 C 
HETATM   18  C4  UNK     1      12.204   5.140   7.629  1.00  0.00     0.274 C 
HETATM   19  N1  UNK     1      13.185   6.121   8.113  1.00  0.00     0.088 N 
HETATM   20  C5  UNK     1      12.539   7.169   8.914  1.00  0.00     0.274 C 
HETATM   21  C3  UNK     1      11.475   7.910   8.098  1.00  0.00     0.055 C 
BRANCH  19  22
HETATM   22  C6  UNK     1      14.233   5.457   8.887  1.00  0.00     0.268 C 
HETATM   23  C7  UNK     1      15.159   6.461   9.543  1.00  0.00     0.037 C 
ENDBRANCH  19  22
ENDBRANCH  14  16
ENDBRANCH   3  12
BRANCH   8  24
HETATM   24  O3  UNK     1       5.253   3.115  13.084  1.00  0.00    -0.349 OA
BRANCH  24  25
HETATM   25  C18 UNK     1       5.454   2.495  14.354  1.00  0.00     0.171 C 
HETATM   26  C19 UNK     1       4.127   1.975  14.865  1.00  0.00     0.034 C 
ENDBRANCH  24  25
ENDBRANCH   8  24
TORSDOF 5
ENDMDL
