MODEL 1
REMARK VINA RESULT:      -9.9      0.000      0.000
REMARK  2 active torsions:
REMARK  status: ('A' for Active; 'I' for Inactive)
REMARK    1  A    between atoms: C1_5  and  N1_4 
REMARK       I    between atoms: C9_13  and  N1_4 
REMARK    2  A    between atoms: C5_9  and  C9_13 
ROOT
HETATM    1  O2  UNK     1      17.920   3.611  33.399  1.00  0.00    -0.265 OA
HETATM    2  N1  UNK     1      18.539   5.243  31.817  1.00  0.00    -0.320 N 
HETATM    3  C9  UNK     1      18.286   3.955  32.274  1.00  0.00     0.280 C 
HETATM    4  H1  UNK     1      18.516   5.355  30.806  1.00  0.00     0.169 HD
ENDROOT
BRANCH   3   5
HETATM    5  C5  UNK     1      18.503   2.944  31.237  1.00  0.00     0.147 A 
HETATM    6  C14 UNK     1      17.977   3.180  30.028  1.00  0.00     0.098 A 
HETATM    7  C13 UNK     1      18.180   2.177  28.962  1.00  0.00     0.187 A 
HETATM    8  O3  UNK     1      17.723   2.339  27.840  1.00  0.00    -0.287 OA
HETATM    9  C4  UNK     1      18.960   0.983  29.331  1.00  0.00     0.048 A 
HETATM   10  C15 UNK     1      19.208  -0.024  28.396  1.00  0.00     0.018 A 
HETATM   11  C6  UNK     1      19.449   0.872  30.634  1.00  0.00     0.090 A 
HETATM   12  C17 UNK     1      19.951  -1.143  28.773  1.00  0.00     0.001 A 
HETATM   13  C18 UNK     1      20.441  -1.256  30.074  1.00  0.00     0.003 A 
HETATM   14  C16 UNK     1      20.190  -0.249  31.007  1.00  0.00     0.038 A 
HETATM   15  O1  UNK     1      19.235   1.831  31.592  1.00  0.00    -0.304 OA
ENDBRANCH   3   5
BRANCH   2  16
HETATM   16  C1  UNK     1      18.433   6.455  32.541  1.00  0.00     0.047 A 
HETATM   17  C2  UNK     1      19.566   7.019  33.126  1.00  0.00    -0.035 A 
HETATM   18  C11 UNK     1      20.906   6.367  33.008  1.00  0.00     0.050 C 
HETATM   19  C7  UNK     1      19.462   8.213  33.839  1.00  0.00     0.009 A 
HETATM   20  C10 UNK     1      18.224   8.844  33.967  1.00  0.00     0.001 A 
HETATM   21  C8  UNK     1      17.091   8.280  33.381  1.00  0.00     0.009 A 
HETATM   22  C3  UNK     1      17.196   7.086  32.668  1.00  0.00    -0.035 A 
HETATM   23  C12 UNK     1      15.963   6.507  32.052  1.00  0.00     0.050 C 
ENDBRANCH   2  16
TORSDOF 2
ENDMDL
MODEL 2
REMARK VINA RESULT:      -8.7      1.798      2.722
REMARK  2 active torsions:
REMARK  status: ('A' for Active; 'I' for Inactive)
REMARK    1  A    between atoms: C1_5  and  N1_4 
REMARK       I    between atoms: C9_13  and  N1_4 
REMARK    2  A    between atoms: C5_9  and  C9_13 
ROOT
HETATM    1  O2  UNK     1      17.053   2.706  30.538  1.00  0.00    -0.265 OA
HETATM    2  N1  UNK     1      18.981   3.403  31.698  1.00  0.00    -0.320 N 
HETATM    3  C9  UNK     1      18.194   2.523  30.965  1.00  0.00     0.280 C 
HETATM    4  H1  UNK     1      19.980   3.208  31.681  1.00  0.00     0.169 HD
ENDROOT
BRANCH   3   5
HETATM    5  C5  UNK     1      18.873   1.251  30.709  1.00  0.00     0.147 A 
HETATM    6  C14 UNK     1      19.215   0.979  29.443  1.00  0.00     0.098 A 
HETATM    7  C13 UNK     1      19.901  -0.297  29.156  1.00  0.00     0.187 A 
HETATM    8  O3  UNK     1      20.236  -0.599  28.019  1.00  0.00    -0.287 OA
HETATM    9  C4  UNK     1      20.154  -1.175  30.311  1.00  0.00     0.048 A 
HETATM   10  C15 UNK     1      20.796  -2.404  30.146  1.00  0.00     0.018 A 
HETATM   11  C6  UNK     1      19.741  -0.760  31.578  1.00  0.00     0.090 A 
HETATM   12  C17 UNK     1      21.025  -3.215  31.259  1.00  0.00     0.001 A 
HETATM   13  C18 UNK     1      20.613  -2.802  32.526  1.00  0.00     0.003 A 
HETATM   14  C16 UNK     1      19.970  -1.573  32.688  1.00  0.00     0.038 A 
HETATM   15  O1  UNK     1      19.106   0.437  31.797  1.00  0.00    -0.304 OA
ENDBRANCH   3   5
BRANCH   2  16
HETATM   16  C1  UNK     1      18.650   4.712  32.124  1.00  0.00     0.047 A 
HETATM   17  C2  UNK     1      18.717   5.775  31.224  1.00  0.00    -0.035 A 
HETATM   18  C11 UNK     1      19.135   5.565  29.804  1.00  0.00     0.050 C 
HETATM   19  C7  UNK     1      18.392   7.066  31.643  1.00  0.00     0.009 A 
HETATM   20  C10 UNK     1      18.000   7.292  32.963  1.00  0.00     0.001 A 
HETATM   21  C8  UNK     1      17.932   6.228  33.862  1.00  0.00     0.009 A 
HETATM   22  C3  UNK     1      18.257   4.938  33.443  1.00  0.00    -0.035 A 
HETATM   23  C12 UNK     1      18.175   3.820  34.431  1.00  0.00     0.050 C 
ENDBRANCH   2  16
TORSDOF 2
ENDMDL
MODEL 3
REMARK VINA RESULT:      -8.6      4.008      6.671
REMARK  2 active torsions:
REMARK  status: ('A' for Active; 'I' for Inactive)
REMARK    1  A    between atoms: C1_5  and  N1_4 
REMARK       I    between atoms: C9_13  and  N1_4 
REMARK    2  A    between atoms: C5_9  and  C9_13 
ROOT
HETATM    1  O2  UNK     1      16.430   0.805  34.074  1.00  0.00    -0.265 OA
HETATM    2  N1  UNK     1      18.694   0.688  34.715  1.00  0.00    -0.320 N 
HETATM    3  C9  UNK     1      17.616   1.117  33.950  1.00  0.00     0.280 C 
HETATM    4  H1  UNK     1      19.518   1.284  34.674  1.00  0.00     0.169 HD
ENDROOT
BRANCH   3   5
HETATM    5  C5  UNK     1      18.019   2.048  32.894  1.00  0.00     0.147 A 
HETATM    6  C14 UNK     1      18.442   1.521  31.737  1.00  0.00     0.098 A 
HETATM    7  C13 UNK     1      18.855   2.435  30.654  1.00  0.00     0.187 A 
HETATM    8  O3  UNK     1      19.250   2.011  29.577  1.00  0.00    -0.287 OA
HETATM    9  C4  UNK     1      18.764   3.876  30.947  1.00  0.00     0.048 A 
HETATM   10  C15 UNK     1      19.131   4.824  29.989  1.00  0.00     0.018 A 
HETATM   11  C6  UNK     1      18.303   4.281  32.200  1.00  0.00     0.090 A 
HETATM   12  C17 UNK     1      19.032   6.182  30.294  1.00  0.00     0.001 A 
HETATM   13  C18 UNK     1      18.572   6.590  31.546  1.00  0.00     0.003 A 
HETATM   14  C16 UNK     1      18.207   5.640  32.502  1.00  0.00     0.038 A 
HETATM   15  O1  UNK     1      17.929   3.393  33.178  1.00  0.00    -0.304 OA
ENDBRANCH   3   5
BRANCH   2  16
HETATM   16  C1  UNK     1      18.676  -0.206  35.813  1.00  0.00     0.047 A 
HETATM   17  C2  UNK     1      19.184  -1.497  35.668  1.00  0.00    -0.035 A 
HETATM   18  C11 UNK     1      19.754  -1.966  34.368  1.00  0.00     0.050 C 
HETATM   19  C7  UNK     1      19.166  -2.379  36.749  1.00  0.00     0.009 A 
HETATM   20  C10 UNK     1      18.640  -1.969  37.975  1.00  0.00     0.001 A 
HETATM   21  C8  UNK     1      18.132  -0.678  38.119  1.00  0.00     0.009 A 
HETATM   22  C3  UNK     1      18.150   0.203  37.038  1.00  0.00    -0.035 A 
HETATM   23  C12 UNK     1      17.599   1.580  37.224  1.00  0.00     0.050 C 
ENDBRANCH   2  16
TORSDOF 2
ENDMDL
MODEL 4
REMARK VINA RESULT:      -8.5     13.293     17.721
REMARK  2 active torsions:
REMARK  status: ('A' for Active; 'I' for Inactive)
REMARK    1  A    between atoms: C1_5  and  N1_4 
REMARK       I    between atoms: C9_13  and  N1_4 
REMARK    2  A    between atoms: C5_9  and  C9_13 
ROOT
HETATM    1  O2  UNK     1      17.449  -2.509  15.804  1.00  0.00    -0.265 OA
HETATM    2  N1  UNK     1      19.637  -2.137  15.013  1.00  0.00    -0.320 N 
HETATM    3  C9  UNK     1      18.529  -1.916  15.823  1.00  0.00     0.280 C 
HETATM    4  H1  UNK     1      20.519  -1.785  15.380  1.00  0.00     0.169 HD
ENDROOT
BRANCH   3   5
HETATM    5  C5  UNK     1      18.752  -0.836  16.786  1.00  0.00     0.147 A 
HETATM    6  C14 UNK     1      18.654  -1.141  18.086  1.00  0.00     0.098 A 
HETATM    7  C13 UNK     1      18.874  -0.071  19.081  1.00  0.00     0.187 A 
HETATM    8  O3  UNK     1      18.797  -0.290  20.281  1.00  0.00    -0.287 OA
HETATM    9  C4  UNK     1      19.187   1.264  18.543  1.00  0.00     0.048 A 
HETATM   10  C15 UNK     1      19.412   2.344  19.399  1.00  0.00     0.018 A 
HETATM   11  C6  UNK     1      19.257   1.435  17.159  1.00  0.00     0.090 A 
HETATM   12  C17 UNK     1      19.709   3.597  18.862  1.00  0.00     0.001 A 
HETATM   13  C18 UNK     1      19.779   3.770  17.479  1.00  0.00     0.003 A 
HETATM   14  C16 UNK     1      19.553   2.689  16.625  1.00  0.00     0.038 A 
HETATM   15  O1  UNK     1      19.045   0.409  16.272  1.00  0.00    -0.304 OA
ENDBRANCH   3   5
BRANCH   2  16
HETATM   16  C1  UNK     1      19.778  -3.096  13.980  1.00  0.00     0.047 A 
HETATM   17  C2  UNK     1      20.158  -4.401  14.288  1.00  0.00    -0.035 A 
HETATM   18  C11 UNK     1      20.427  -4.820  15.698  1.00  0.00     0.050 C 
HETATM   19  C7  UNK     1      20.298  -5.346  13.270  1.00  0.00     0.009 A 
HETATM   20  C10 UNK     1      20.056  -4.983  11.945  1.00  0.00     0.001 A 
HETATM   21  C8  UNK     1      19.674  -3.677  11.638  1.00  0.00     0.009 A 
HETATM   22  C3  UNK     1      19.535  -2.734  12.656  1.00  0.00    -0.035 A 
HETATM   23  C12 UNK     1      19.124  -1.343  12.294  1.00  0.00     0.050 C 
ENDBRANCH   2  16
TORSDOF 2
ENDMDL
MODEL 5
REMARK VINA RESULT:      -8.5      4.055      6.992
REMARK  2 active torsions:
REMARK  status: ('A' for Active; 'I' for Inactive)
REMARK    1  A    between atoms: C1_5  and  N1_4 
REMARK       I    between atoms: C9_13  and  N1_4 
REMARK    2  A    between atoms: C5_9  and  C9_13 
ROOT
HETATM    1  O2  UNK     1      16.527   0.817  34.125  1.00  0.00    -0.265 OA
HETATM    2  N1  UNK     1      18.698   0.842  35.039  1.00  0.00    -0.320 N 
HETATM    3  C9  UNK     1      17.652   1.304  34.249  1.00  0.00     0.280 C 
HETATM    4  H1  UNK     1      19.414   1.532  35.256  1.00  0.00     0.169 HD
ENDROOT
BRANCH   3   5
HETATM    5  C5  UNK     1      18.008   2.516  33.508  1.00  0.00     0.147 A 
HETATM    6  C14 UNK     1      18.192   3.638  34.216  1.00  0.00     0.098 A 
HETATM    7  C13 UNK     1      18.552   4.877  33.495  1.00  0.00     0.187 A 
HETATM    8  O3  UNK     1      18.731   5.931  34.089  1.00  0.00    -0.287 OA
HETATM    9  C4  UNK     1      18.679   4.765  32.032  1.00  0.00     0.048 A 
HETATM   10  C15 UNK     1      19.016   5.878  31.258  1.00  0.00     0.018 A 
HETATM   11  C6  UNK     1      18.459   3.526  31.428  1.00  0.00     0.090 A 
HETATM   12  C17 UNK     1      19.131   5.742  29.874  1.00  0.00     0.001 A 
HETATM   13  C18 UNK     1      18.912   4.505  29.268  1.00  0.00     0.003 A 
HETATM   14  C16 UNK     1      18.574   3.394  30.044  1.00  0.00     0.038 A 
HETATM   15  O1  UNK     1      18.126   2.401  32.140  1.00  0.00    -0.304 OA
ENDBRANCH   3   5
BRANCH   2  16
HETATM   16  C1  UNK     1      18.710  -0.295  35.882  1.00  0.00     0.047 A 
HETATM   17  C2  UNK     1      18.208  -0.205  37.180  1.00  0.00    -0.035 A 
HETATM   18  C11 UNK     1      17.651   1.077  37.710  1.00  0.00     0.050 C 
HETATM   19  C7  UNK     1      18.220  -1.325  38.012  1.00  0.00     0.009 A 
HETATM   20  C10 UNK     1      18.735  -2.535  37.545  1.00  0.00     0.001 A 
HETATM   21  C8  UNK     1      19.236  -2.624  36.247  1.00  0.00     0.009 A 
HETATM   22  C3  UNK     1      19.224  -1.504  35.416  1.00  0.00    -0.035 A 
HETATM   23  C12 UNK     1      19.769  -1.632  34.030  1.00  0.00     0.050 C 
ENDBRANCH   2  16
TORSDOF 2
ENDMDL
MODEL 6
REMARK VINA RESULT:      -8.4      8.238     12.028
REMARK  2 active torsions:
REMARK  status: ('A' for Active; 'I' for Inactive)
REMARK    1  A    between atoms: C1_5  and  N1_4 
REMARK       I    between atoms: C9_13  and  N1_4 
REMARK    2  A    between atoms: C5_9  and  C9_13 
ROOT
HETATM    1  O2  UNK     1      21.895  -4.724  37.449  1.00  0.00    -0.265 OA
HETATM    2  N1  UNK     1      19.963  -5.890  36.774  1.00  0.00    -0.320 N 
HETATM    3  C9  UNK     1      20.763  -4.770  36.964  1.00  0.00     0.280 C 
HETATM    4  H1  UNK     1      19.221  -5.781  36.086  1.00  0.00     0.169 HD
ENDROOT
BRANCH   3   5
HETATM    5  C5  UNK     1      20.114  -3.539  36.509  1.00  0.00     0.147 A 
HETATM    6  C14 UNK     1      20.283  -3.192  35.227  1.00  0.00     0.098 A 
HETATM    7  C13 UNK     1      19.640  -1.955  34.739  1.00  0.00     0.187 A 
HETATM    8  O3  UNK     1      19.760  -1.588  33.579  1.00  0.00    -0.287 OA
HETATM    9  C4  UNK     1      18.852  -1.198  35.727  1.00  0.00     0.048 A 
HETATM   10  C15 UNK     1      18.203  -0.014  35.367  1.00  0.00     0.018 A 
HETATM   11  C6  UNK     1      18.762  -1.682  37.033  1.00  0.00     0.090 A 
HETATM   12  C17 UNK     1      17.462   0.681  36.324  1.00  0.00     0.001 A 
HETATM   13  C18 UNK     1      17.371   0.199  37.629  1.00  0.00     0.003 A 
HETATM   14  C16 UNK     1      18.021  -0.984  37.987  1.00  0.00     0.038 A 
HETATM   15  O1  UNK     1      19.378  -2.839  37.441  1.00  0.00    -0.304 OA
ENDBRANCH   3   5
BRANCH   2  16
HETATM   16  C1  UNK     1      20.266  -7.236  37.094  1.00  0.00     0.047 A 
HETATM   17  C2  UNK     1      20.225  -7.663  38.421  1.00  0.00    -0.035 A 
HETATM   18  C11 UNK     1      19.865  -6.723  39.528  1.00  0.00     0.050 C 
HETATM   19  C7  UNK     1      20.524  -8.988  38.738  1.00  0.00     0.009 A 
HETATM   20  C10 UNK     1      20.864  -9.887  37.726  1.00  0.00     0.001 A 
HETATM   21  C8  UNK     1      20.904  -9.459  36.399  1.00  0.00     0.009 A 
HETATM   22  C3  UNK     1      20.606  -8.134  36.083  1.00  0.00    -0.035 A 
HETATM   23  C12 UNK     1      20.658  -7.707  34.652  1.00  0.00     0.050 C 
ENDBRANCH   2  16
TORSDOF 2
ENDMDL
MODEL 7
REMARK VINA RESULT:      -8.4      7.534      9.522
REMARK  2 active torsions:
REMARK  status: ('A' for Active; 'I' for Inactive)
REMARK    1  A    between atoms: C1_5  and  N1_4 
REMARK       I    between atoms: C9_13  and  N1_4 
REMARK    2  A    between atoms: C5_9  and  C9_13 
ROOT
HETATM    1  O2  UNK     1      21.318  -2.085  35.734  1.00  0.00    -0.265 OA
HETATM    2  N1  UNK     1      18.964  -2.112  35.814  1.00  0.00    -0.320 N 
HETATM    3  C9  UNK     1      20.243  -2.620  36.009  1.00  0.00     0.280 C 
HETATM    4  H1  UNK     1      18.236  -2.542  36.382  1.00  0.00     0.169 HD
ENDROOT
BRANCH   3   5
HETATM    5  C5  UNK     1      20.225  -3.952  36.616  1.00  0.00     0.147 A 
HETATM    6  C14 UNK     1      19.140  -4.709  36.409  1.00  0.00     0.098 A 
HETATM    7  C13 UNK     1      19.095  -6.058  37.009  1.00  0.00     0.187 A 
HETATM    8  O3  UNK     1      18.130  -6.793  36.853  1.00  0.00    -0.287 OA
HETATM    9  C4  UNK     1      20.271  -6.458  37.800  1.00  0.00     0.048 A 
HETATM   10  C15 UNK     1      20.327  -7.714  38.410  1.00  0.00     0.018 A 
HETATM   11  C6  UNK     1      21.333  -5.562  37.932  1.00  0.00     0.090 A 
HETATM   12  C17 UNK     1      21.455  -8.067  39.152  1.00  0.00     0.001 A 
HETATM   13  C18 UNK     1      22.518  -7.173  39.284  1.00  0.00     0.003 A 
HETATM   14  C16 UNK     1      22.459  -5.919  38.675  1.00  0.00     0.038 A 
HETATM   15  O1  UNK     1      21.331  -4.317  37.354  1.00  0.00    -0.304 OA
ENDBRANCH   3   5
BRANCH   2  16
HETATM   16  C1  UNK     1      18.604  -0.861  35.255  1.00  0.00     0.047 A 
HETATM   17  C2  UNK     1      18.758  -0.640  33.887  1.00  0.00    -0.035 A 
HETATM   18  C11 UNK     1      19.301  -1.701  32.985  1.00  0.00     0.050 C 
HETATM   19  C7  UNK     1      18.404   0.592  33.336  1.00  0.00     0.009 A 
HETATM   20  C10 UNK     1      17.896   1.602  34.154  1.00  0.00     0.001 A 
HETATM   21  C8  UNK     1      17.742   1.379  35.522  1.00  0.00     0.009 A 
HETATM   22  C3  UNK     1      18.096   0.148  36.072  1.00  0.00    -0.035 A 
HETATM   23  C12 UNK     1      17.919  -0.060  37.542  1.00  0.00     0.050 C 
ENDBRANCH   2  16
TORSDOF 2
ENDMDL
MODEL 8
REMARK VINA RESULT:      -8.4      7.544      9.548
REMARK  2 active torsions:
REMARK  status: ('A' for Active; 'I' for Inactive)
REMARK    1  A    between atoms: C1_5  and  N1_4 
REMARK       I    between atoms: C9_13  and  N1_4 
REMARK    2  A    between atoms: C5_9  and  C9_13 
ROOT
HETATM    1  O2  UNK     1      21.309  -2.100  35.737  1.00  0.00    -0.265 OA
HETATM    2  N1  UNK     1      18.955  -2.120  35.824  1.00  0.00    -0.320 N 
HETATM    3  C9  UNK     1      20.232  -2.633  36.014  1.00  0.00     0.280 C 
HETATM    4  H1  UNK     1      18.227  -2.549  36.393  1.00  0.00     0.169 HD
ENDROOT
BRANCH   3   5
HETATM    5  C5  UNK     1      20.212  -3.966  36.618  1.00  0.00     0.147 A 
HETATM    6  C14 UNK     1      19.128  -4.722  36.405  1.00  0.00     0.098 A 
HETATM    7  C13 UNK     1      19.080  -6.072  37.002  1.00  0.00     0.187 A 
HETATM    8  O3  UNK     1      18.116  -6.807  36.842  1.00  0.00    -0.287 OA
HETATM    9  C4  UNK     1      20.253  -6.475  37.796  1.00  0.00     0.048 A 
HETATM   10  C15 UNK     1      20.307  -7.732  38.403  1.00  0.00     0.018 A 
HETATM   11  C6  UNK     1      21.315  -5.580  37.933  1.00  0.00     0.090 A 
HETATM   12  C17 UNK     1      21.433  -8.088  39.148  1.00  0.00     0.001 A 
HETATM   13  C18 UNK     1      22.495  -7.195  39.286  1.00  0.00     0.003 A 
HETATM   14  C16 UNK     1      22.439  -5.939  38.679  1.00  0.00     0.038 A 
HETATM   15  O1  UNK     1      21.316  -4.334  37.358  1.00  0.00    -0.304 OA
ENDBRANCH   3   5
BRANCH   2  16
HETATM   16  C1  UNK     1      18.598  -0.867  35.269  1.00  0.00     0.047 A 
HETATM   17  C2  UNK     1      18.091   0.140  36.090  1.00  0.00    -0.035 A 
HETATM   18  C11 UNK     1      17.912  -0.073  37.559  1.00  0.00     0.050 C 
HETATM   19  C7  UNK     1      17.738   1.374  35.544  1.00  0.00     0.009 A 
HETATM   20  C10 UNK     1      17.892   1.601  34.176  1.00  0.00     0.001 A 
HETATM   21  C8  UNK     1      18.400   0.594  33.356  1.00  0.00     0.009 A 
HETATM   22  C3  UNK     1      18.753  -0.640  33.902  1.00  0.00    -0.035 A 
HETATM   23  C12 UNK     1      19.294  -1.698  32.996  1.00  0.00     0.050 C 
ENDBRANCH   2  16
TORSDOF 2
ENDMDL
MODEL 9
REMARK VINA RESULT:      -8.2      1.905      2.699
REMARK  2 active torsions:
REMARK  status: ('A' for Active; 'I' for Inactive)
REMARK    1  A    between atoms: C1_5  and  N1_4 
REMARK       I    between atoms: C9_13  and  N1_4 
REMARK    2  A    between atoms: C5_9  and  C9_13 
ROOT
HETATM    1  O2  UNK     1      18.439   6.176  30.707  1.00  0.00    -0.265 OA
HETATM    2  N1  UNK     1      17.409   5.983  32.816  1.00  0.00    -0.320 N 
HETATM    3  C9  UNK     1      18.058   5.521  31.678  1.00  0.00     0.280 C 
HETATM    4  H1  UNK     1      17.463   5.369  33.626  1.00  0.00     0.169 HD
ENDROOT
BRANCH   3   5
HETATM    5  C5  UNK     1      18.279   4.074  31.713  1.00  0.00     0.147 A 
HETATM    6  C14 UNK     1      18.669   3.483  30.577  1.00  0.00     0.098 A 
HETATM    7  C13 UNK     1      18.900   2.024  30.583  1.00  0.00     0.187 A 
HETATM    8  O3  UNK     1      19.257   1.430  29.575  1.00  0.00    -0.287 OA
HETATM    9  C4  UNK     1      18.675   1.334  31.865  1.00  0.00     0.048 A 
HETATM   10  C15 UNK     1      18.865  -0.045  31.976  1.00  0.00     0.018 A 
HETATM   11  C6  UNK     1      18.268   2.081  32.971  1.00  0.00     0.090 A 
HETATM   12  C17 UNK     1      18.646  -0.672  33.204  1.00  0.00     0.001 A 
HETATM   13  C18 UNK     1      18.240   0.073  34.311  1.00  0.00     0.003 A 
HETATM   14  C16 UNK     1      18.049   1.452  34.196  1.00  0.00     0.038 A 
HETATM   15  O1  UNK     1      18.066   3.438  32.918  1.00  0.00    -0.304 OA
ENDBRANCH   3   5
BRANCH   2  16
HETATM   16  C1  UNK     1      17.037   7.315  33.121  1.00  0.00     0.047 A 
HETATM   17  C2  UNK     1      17.910   8.138  33.830  1.00  0.00    -0.035 A 
HETATM   18  C11 UNK     1      19.246   7.643  34.285  1.00  0.00     0.050 C 
HETATM   19  C7  UNK     1      17.544   9.450  34.131  1.00  0.00     0.009 A 
HETATM   20  C10 UNK     1      16.303   9.939  33.721  1.00  0.00     0.001 A 
HETATM   21  C8  UNK     1      15.430   9.116  33.011  1.00  0.00     0.009 A 
HETATM   22  C3  UNK     1      15.797   7.804  32.711  1.00  0.00    -0.035 A 
HETATM   23  C12 UNK     1      14.839   6.947  31.948  1.00  0.00     0.050 C 
ENDBRANCH   2  16
TORSDOF 2
ENDMDL
MODEL 10
REMARK VINA RESULT:      -8.2      1.900      3.213
REMARK  2 active torsions:
REMARK  status: ('A' for Active; 'I' for Inactive)
REMARK    1  A    between atoms: C1_5  and  N1_4 
REMARK       I    between atoms: C9_13  and  N1_4 
REMARK    2  A    between atoms: C5_9  and  C9_13 
ROOT
HETATM    1  O2  UNK     1      18.454   6.151  30.743  1.00  0.00    -0.265 OA
HETATM    2  N1  UNK     1      17.405   5.938  32.841  1.00  0.00    -0.320 N 
HETATM    3  C9  UNK     1      18.063   5.485  31.703  1.00  0.00     0.280 C 
HETATM    4  H1  UNK     1      17.451   5.314  33.644  1.00  0.00     0.169 HD
ENDROOT
BRANCH   3   5
HETATM    5  C5  UNK     1      18.280   4.038  31.725  1.00  0.00     0.147 A 
HETATM    6  C14 UNK     1      18.654   3.454  30.579  1.00  0.00     0.098 A 
HETATM    7  C13 UNK     1      18.880   1.994  30.571  1.00  0.00     0.187 A 
HETATM    8  O3  UNK     1      19.223   1.408  29.554  1.00  0.00    -0.287 OA
HETATM    9  C4  UNK     1      18.670   1.296  31.851  1.00  0.00     0.048 A 
HETATM   10  C15 UNK     1      18.857  -0.085  31.949  1.00  0.00     0.018 A 
HETATM   11  C6  UNK     1      18.279   2.036  32.967  1.00  0.00     0.090 A 
HETATM   12  C17 UNK     1      18.652  -0.720  33.175  1.00  0.00     0.001 A 
HETATM   13  C18 UNK     1      18.262   0.018  34.292  1.00  0.00     0.003 A 
HETATM   14  C16 UNK     1      18.074   1.398  34.191  1.00  0.00     0.038 A 
HETATM   15  O1  UNK     1      18.081   3.394  32.927  1.00  0.00    -0.304 OA
ENDBRANCH   3   5
BRANCH   2  16
HETATM   16  C1  UNK     1      17.033   7.267  33.156  1.00  0.00     0.047 A 
HETATM   17  C2  UNK     1      15.800   7.764  32.735  1.00  0.00    -0.035 A 
HETATM   18  C11 UNK     1      14.850   6.919  31.948  1.00  0.00     0.050 C 
HETATM   19  C7  UNK     1      15.433   9.074  33.045  1.00  0.00     0.009 A 
HETATM   20  C10 UNK     1      16.300   9.886  33.776  1.00  0.00     0.001 A 
HETATM   21  C8  UNK     1      17.533   9.388  34.198  1.00  0.00     0.009 A 
HETATM   22  C3  UNK     1      17.899   8.078  33.888  1.00  0.00    -0.035 A 
HETATM   23  C12 UNK     1      19.227   7.574  34.354  1.00  0.00     0.050 C 
ENDBRANCH   2  16
TORSDOF 2
ENDMDL
