MODEL 1
REMARK VINA RESULT:      -9.0      0.000      0.000
REMARK  1 active torsions:
REMARK  status: ('A' for Active; 'I' for Inactive)
REMARK    1  A    between atoms: C1_7  and  C2_8 
ROOT
HETATM    1 Cl1  UNK     1      18.470  -5.319  10.989  1.00  0.00    -0.081 Cl
HETATM    2 Cl2  UNK     1      22.368  -2.457   8.620  1.00  0.00    -0.084 Cl
HETATM    3  O1  UNK     1      18.552  -3.195  13.054  1.00  0.00    -0.272 OA
HETATM    4  O2  UNK     1      17.649  -2.510  15.035  1.00  0.00    -0.259 OA
HETATM    5  C1  UNK     1      19.344  -1.123  14.103  1.00  0.00     0.086 A 
HETATM    6  C4  UNK     1      20.310  -1.886  12.006  1.00  0.00     0.002 A 
HETATM    7  C6  UNK     1      20.218  -0.934  13.102  1.00  0.00     0.036 A 
HETATM    8  C7  UNK     1      19.472  -2.995  12.007  1.00  0.00     0.111 A 
HETATM    9  C8  UNK     1      18.446  -2.309  14.124  1.00  0.00     0.302 A 
HETATM   10  C9  UNK     1      21.210  -1.722  10.950  1.00  0.00     0.038 A 
HETATM   11  C12 UNK     1      19.508  -3.944  10.987  1.00  0.00     0.070 A 
HETATM   12  C13 UNK     1      21.258  -2.665   9.919  1.00  0.00     0.036 A 
HETATM   13  C14 UNK     1      20.409  -3.773   9.938  1.00  0.00     0.050 A 
ENDROOT
BRANCH   5  14
HETATM   14  C2  UNK     1      19.276  -0.165  15.161  1.00  0.00     0.145 A 
HETATM   15  N1  UNK     1      19.056  -0.640  16.424  1.00  0.00    -0.338 N 
HETATM   16  C3  UNK     1      19.025   0.434  17.277  1.00  0.00     0.062 A 
HETATM   17  H2  UNK     1      18.925  -1.605  16.697  1.00  0.00     0.167 HD
HETATM   18  C10 UNK     1      18.837   0.533  18.656  1.00  0.00     0.032 A 
HETATM   19  C5  UNK     1      19.235   1.536  16.453  1.00  0.00     0.086 A 
HETATM   20  C15 UNK     1      18.867   1.819  19.204  1.00  0.00     0.002 A 
HETATM   21  C16 UNK     1      19.076   2.944  18.403  1.00  0.00     0.002 A 
HETATM   22  C11 UNK     1      19.262   2.821  17.020  1.00  0.00     0.034 A 
HETATM   23  N2  UNK     1      19.389   1.144  15.142  1.00  0.00    -0.228 NA
ENDBRANCH   5  14
TORSDOF 1
ENDMDL
MODEL 2
REMARK VINA RESULT:      -8.9     19.127     22.415
REMARK  1 active torsions:
REMARK  status: ('A' for Active; 'I' for Inactive)
REMARK    1  A    between atoms: C1_7  and  C2_8 
ROOT
HETATM    1 Cl1  UNK     1      17.694   1.174  34.092  1.00  0.00    -0.081 Cl
HETATM    2 Cl2  UNK     1      20.212  -1.139  29.931  1.00  0.00    -0.084 Cl
HETATM    3  O1  UNK     1      18.743  -1.125  35.642  1.00  0.00    -0.272 OA
HETATM    4  O2  UNK     1      18.789  -2.089  37.709  1.00  0.00    -0.259 OA
HETATM    5  C1  UNK     1      19.973  -3.220  35.980  1.00  0.00     0.086 A 
HETATM    6  C4  UNK     1      19.887  -2.188  33.781  1.00  0.00     0.002 A 
HETATM    7  C6  UNK     1      20.321  -3.241  34.685  1.00  0.00     0.036 A 
HETATM    8  C7  UNK     1      19.108  -1.152  34.282  1.00  0.00     0.111 A 
HETATM    9  C8  UNK     1      19.132  -2.123  36.532  1.00  0.00     0.302 A 
HETATM   10  C9  UNK     1      20.228  -2.181  32.426  1.00  0.00     0.038 A 
HETATM   11  C12 UNK     1      18.660  -0.111  33.470  1.00  0.00     0.070 A 
HETATM   12  C13 UNK     1      19.787  -1.144  31.599  1.00  0.00     0.036 A 
HETATM   13  C14 UNK     1      19.005  -0.111  32.121  1.00  0.00     0.050 A 
ENDROOT
BRANCH   5  14
HETATM   14  C2  UNK     1      20.422  -4.269  36.842  1.00  0.00     0.145 A 
HETATM   15  N1  UNK     1      19.476  -5.125  37.334  1.00  0.00    -0.338 N 
HETATM   16  C3  UNK     1      20.113  -6.042  38.129  1.00  0.00     0.062 A 
HETATM   17  H2  UNK     1      18.479  -5.095  37.162  1.00  0.00     0.167 HD
HETATM   18  C10 UNK     1      19.646  -7.127  38.872  1.00  0.00     0.032 A 
HETATM   19  C5  UNK     1      21.455  -5.676  38.073  1.00  0.00     0.086 A 
HETATM   20  C15 UNK     1      20.601  -7.862  39.582  1.00  0.00     0.002 A 
HETATM   21  C16 UNK     1      21.954  -7.519  39.545  1.00  0.00     0.002 A 
HETATM   22  C11 UNK     1      22.401  -6.425  38.793  1.00  0.00     0.034 A 
HETATM   23  N2  UNK     1      21.627  -4.573  37.268  1.00  0.00    -0.228 NA
ENDBRANCH   5  14
TORSDOF 1
ENDMDL
MODEL 3
REMARK VINA RESULT:      -8.8     19.304     21.141
REMARK  1 active torsions:
REMARK  status: ('A' for Active; 'I' for Inactive)
REMARK    1  A    between atoms: C1_7  and  C2_8 
ROOT
HETATM    1 Cl1  UNK     1      18.480  -1.371  32.379  1.00  0.00    -0.081 Cl
HETATM    2 Cl2  UNK     1      18.296  -1.284  37.760  1.00  0.00    -0.084 Cl
HETATM    3  O1  UNK     1      18.374   1.582  32.607  1.00  0.00    -0.272 OA
HETATM    4  O2  UNK     1      18.323   3.525  31.412  1.00  0.00    -0.259 OA
HETATM    5  C1  UNK     1      18.261   3.733  33.783  1.00  0.00     0.086 A 
HETATM    6  C4  UNK     1      18.289   1.648  35.034  1.00  0.00     0.002 A 
HETATM    7  C6  UNK     1      18.246   3.100  34.967  1.00  0.00     0.036 A 
HETATM    8  C7  UNK     1      18.354   0.922  33.851  1.00  0.00     0.111 A 
HETATM    9  C8  UNK     1      18.322   2.970  32.506  1.00  0.00     0.302 A 
HETATM   10  C9  UNK     1      18.271   0.958  36.249  1.00  0.00     0.038 A 
HETATM   11  C12 UNK     1      18.400  -0.471  33.846  1.00  0.00     0.070 A 
HETATM   12  C13 UNK     1      18.317  -0.439  36.261  1.00  0.00     0.036 A 
HETATM   13  C14 UNK     1      18.381  -1.151  35.061  1.00  0.00     0.050 A 
ENDROOT
BRANCH   5  14
HETATM   14  C2  UNK     1      18.223   5.161  33.753  1.00  0.00     0.145 A 
HETATM   15  N1  UNK     1      19.298   5.829  34.272  1.00  0.00    -0.338 N 
HETATM   16  C3  UNK     1      19.058   7.173  34.146  1.00  0.00     0.062 A 
HETATM   17  H2  UNK     1      20.124   5.420  34.690  1.00  0.00     0.167 HD
HETATM   18  C10 UNK     1      19.803   8.297  34.502  1.00  0.00     0.032 A 
HETATM   19  C5  UNK     1      17.809   7.245  33.536  1.00  0.00     0.086 A 
HETATM   20  C15 UNK     1      19.237   9.544  34.217  1.00  0.00     0.002 A 
HETATM   21  C16 UNK     1      17.985   9.649  33.606  1.00  0.00     0.002 A 
HETATM   22  C11 UNK     1      17.254   8.506  33.257  1.00  0.00     0.034 A 
HETATM   23  N2  UNK     1      17.306   5.986  33.299  1.00  0.00    -0.228 NA
ENDBRANCH   5  14
TORSDOF 1
ENDMDL
MODEL 4
REMARK VINA RESULT:      -8.7     21.201     23.654
REMARK  1 active torsions:
REMARK  status: ('A' for Active; 'I' for Inactive)
REMARK    1  A    between atoms: C1_7  and  C2_8 
ROOT
HETATM    1 Cl1  UNK     1      18.619   0.659  33.002  1.00  0.00    -0.081 Cl
HETATM    2 Cl2  UNK     1      16.272   2.166  37.608  1.00  0.00    -0.084 Cl
HETATM    3  O1  UNK     1      19.530  -1.690  34.562  1.00  0.00    -0.272 OA
HETATM    4  O2  UNK     1      20.746  -3.619  34.454  1.00  0.00    -0.259 OA
HETATM    5  C1  UNK     1      19.749  -3.105  36.554  1.00  0.00     0.086 A 
HETATM    6  C4  UNK     1      18.481  -1.033  36.652  1.00  0.00     0.002 A 
HETATM    7  C6  UNK     1      19.007  -2.242  37.265  1.00  0.00     0.036 A 
HETATM    8  C7  UNK     1      18.755  -0.786  35.311  1.00  0.00     0.111 A 
HETATM    9  C8  UNK     1      20.058  -2.852  35.121  1.00  0.00     0.302 A 
HETATM   10  C9  UNK     1      17.709  -0.112  37.363  1.00  0.00     0.038 A 
HETATM   11  C12 UNK     1      18.280   0.353  34.663  1.00  0.00     0.070 A 
HETATM   12  C13 UNK     1      17.225   1.035  36.727  1.00  0.00     0.036 A 
HETATM   13  C14 UNK     1      17.510   1.267  35.380  1.00  0.00     0.050 A 
ENDROOT
BRANCH   5  14
HETATM   14  C2  UNK     1      20.245  -4.287  37.187  1.00  0.00     0.145 A 
HETATM   15  N1  UNK     1      19.327  -5.224  37.573  1.00  0.00    -0.338 N 
HETATM   16  C3  UNK     1      20.007  -6.264  38.152  1.00  0.00     0.062 A 
HETATM   17  H2  UNK     1      18.321  -5.171  37.469  1.00  0.00     0.167 HD
HETATM   18  C10 UNK     1      19.581  -7.467  38.716  1.00  0.00     0.032 A 
HETATM   19  C5  UNK     1      21.344  -5.884  38.082  1.00  0.00     0.086 A 
HETATM   20  C15 UNK     1      20.574  -8.310  39.225  1.00  0.00     0.002 A 
HETATM   21  C16 UNK     1      21.924  -7.957  39.169  1.00  0.00     0.002 A 
HETATM   22  C11 UNK     1      22.329  -6.744  38.599  1.00  0.00     0.034 A 
HETATM   23  N2  UNK     1      21.472  -4.654  37.479  1.00  0.00    -0.228 NA
ENDBRANCH   5  14
TORSDOF 1
ENDMDL
MODEL 5
REMARK VINA RESULT:      -8.5      2.132      3.738
REMARK  1 active torsions:
REMARK  status: ('A' for Active; 'I' for Inactive)
REMARK    1  A    between atoms: C1_7  and  C2_8 
ROOT
HETATM    1 Cl1  UNK     1      19.626  -4.847  11.066  1.00  0.00    -0.081 Cl
HETATM    2 Cl2  UNK     1      16.641  -7.958  14.293  1.00  0.00    -0.084 Cl
HETATM    3  O1  UNK     1      19.486  -2.892  13.289  1.00  0.00    -0.272 OA
HETATM    4  O2  UNK     1      20.118  -0.801  13.951  1.00  0.00    -0.259 OA
HETATM    5  C1  UNK     1      18.824  -2.062  15.501  1.00  0.00     0.086 A 
HETATM    6  C4  UNK     1      18.140  -4.275  14.763  1.00  0.00     0.002 A 
HETATM    7  C6  UNK     1      18.173  -3.209  15.751  1.00  0.00     0.036 A 
HETATM    8  C7  UNK     1      18.800  -4.092  13.554  1.00  0.00     0.111 A 
HETATM    9  C8  UNK     1      19.529  -1.846  14.208  1.00  0.00     0.302 A 
HETATM   10  C9  UNK     1      17.469  -5.480  14.990  1.00  0.00     0.038 A 
HETATM   11  C12 UNK     1      18.808  -5.075  12.566  1.00  0.00     0.070 A 
HETATM   12  C13 UNK     1      17.468  -6.475  14.009  1.00  0.00     0.036 A 
HETATM   13  C14 UNK     1      18.136  -6.273  12.799  1.00  0.00     0.050 A 
ENDROOT
BRANCH   5  14
HETATM   14  C2  UNK     1      18.842  -1.037  16.496  1.00  0.00     0.145 A 
HETATM   15  N1  UNK     1      19.106   0.239  16.079  1.00  0.00    -0.338 N 
HETATM   16  C3  UNK     1      19.076   1.055  17.180  1.00  0.00     0.062 A 
HETATM   17  H2  UNK     1      19.302   0.541  15.133  1.00  0.00     0.167 HD
HETATM   18  C10 UNK     1      19.274   2.427  17.337  1.00  0.00     0.032 A 
HETATM   19  C5  UNK     1      18.787   0.198  18.238  1.00  0.00     0.086 A 
HETATM   20  C15 UNK     1      19.166   2.934  18.636  1.00  0.00     0.002 A 
HETATM   21  C16 UNK     1      18.876   2.100  19.718  1.00  0.00     0.002 A 
HETATM   22  C11 UNK     1      18.683   0.724  19.537  1.00  0.00     0.034 A 
HETATM   23  N2  UNK     1      18.644  -1.096  17.794  1.00  0.00    -0.228 NA
ENDBRANCH   5  14
TORSDOF 1
ENDMDL
MODEL 6
REMARK VINA RESULT:      -8.3     25.359     26.626
REMARK  1 active torsions:
REMARK  status: ('A' for Active; 'I' for Inactive)
REMARK    1  A    between atoms: C1_7  and  C2_8 
ROOT
HETATM    1 Cl1  UNK     1      29.147  -4.421  39.064  1.00  0.00    -0.081 Cl
HETATM    2 Cl2  UNK     1      31.083  -9.347  38.075  1.00  0.00    -0.084 Cl
HETATM    3  O1  UNK     1      26.497  -5.743  38.937  1.00  0.00    -0.272 OA
HETATM    4  O2  UNK     1      24.247  -5.385  39.073  1.00  0.00    -0.259 OA
HETATM    5  C1  UNK     1      24.946  -7.623  38.657  1.00  0.00     0.086 A 
HETATM    6  C4  UNK     1      27.345  -7.974  38.489  1.00  0.00     0.002 A 
HETATM    7  C6  UNK     1      25.975  -8.461  38.462  1.00  0.00     0.036 A 
HETATM    8  C7  UNK     1      27.574  -6.625  38.728  1.00  0.00     0.111 A 
HETATM    9  C8  UNK     1      25.173  -6.173  38.906  1.00  0.00     0.302 A 
HETATM   10  C9  UNK     1      28.440  -8.819  38.286  1.00  0.00     0.038 A 
HETATM   11  C12 UNK     1      28.863  -6.095  38.768  1.00  0.00     0.070 A 
HETATM   12  C13 UNK     1      29.738  -8.302  38.324  1.00  0.00     0.036 A 
HETATM   13  C14 UNK     1      29.949  -6.943  38.565  1.00  0.00     0.050 A 
ENDROOT
BRANCH   5  14
HETATM   14  C2  UNK     1      23.612  -8.135  38.630  1.00  0.00     0.145 A 
HETATM   15  N1  UNK     1      23.229  -8.830  37.516  1.00  0.00    -0.338 N 
HETATM   16  C3  UNK     1      21.929  -9.227  37.695  1.00  0.00     0.062 A 
HETATM   17  H2  UNK     1      23.788  -9.017  36.694  1.00  0.00     0.167 HD
HETATM   18  C10 UNK     1      21.049  -9.952  36.891  1.00  0.00     0.032 A 
HETATM   19  C5  UNK     1      21.586  -8.732  38.950  1.00  0.00     0.086 A 
HETATM   20  C15 UNK     1      19.767 -10.176  37.403  1.00  0.00     0.002 A 
HETATM   21  C16 UNK     1      19.394  -9.693  38.659  1.00  0.00     0.002 A 
HETATM   22  C11 UNK     1      20.293  -8.966  39.449  1.00  0.00     0.034 A 
HETATM   23  N2  UNK     1      22.644  -8.057  39.515  1.00  0.00    -0.228 NA
ENDBRANCH   5  14
TORSDOF 1
ENDMDL
MODEL 7
REMARK VINA RESULT:      -8.2     19.464     23.079
REMARK  1 active torsions:
REMARK  status: ('A' for Active; 'I' for Inactive)
REMARK    1  A    between atoms: C1_7  and  C2_8 
ROOT
HETATM    1 Cl1  UNK     1      14.055  11.609  37.392  1.00  0.00    -0.081 Cl
HETATM    2 Cl2  UNK     1      11.157  12.932  33.050  1.00  0.00    -0.084 Cl
HETATM    3  O1  UNK     1      15.457   9.762  35.546  1.00  0.00    -0.272 OA
HETATM    4  O2  UNK     1      17.098   8.182  35.410  1.00  0.00    -0.259 OA
HETATM    5  C1  UNK     1      15.925   8.674  33.397  1.00  0.00     0.086 A 
HETATM    6  C4  UNK     1      14.164  10.341  33.573  1.00  0.00     0.002 A 
HETATM    7  C6  UNK     1      14.953   9.388  32.809  1.00  0.00     0.036 A 
HETATM    8  C7  UNK     1      14.436  10.506  34.926  1.00  0.00     0.111 A 
HETATM    9  C8  UNK     1      16.224   8.833  34.846  1.00  0.00     0.302 A 
HETATM   10  C9  UNK     1      13.142  11.097  32.993  1.00  0.00     0.038 A 
HETATM   11  C12 UNK     1      13.718  11.403  35.715  1.00  0.00     0.070 A 
HETATM   12  C13 UNK     1      12.413  12.001  33.771  1.00  0.00     0.036 A 
HETATM   13  C14 UNK     1      12.701  12.154  35.129  1.00  0.00     0.050 A 
ENDROOT
BRANCH   5  14
HETATM   14  C2  UNK     1      16.686   7.751  32.615  1.00  0.00     0.145 A 
HETATM   15  N1  UNK     1      16.762   6.461  33.064  1.00  0.00    -0.338 N 
HETATM   16  C3  UNK     1      17.530   5.753  32.177  1.00  0.00     0.062 A 
HETATM   17  H2  UNK     1      16.342   6.084  33.904  1.00  0.00     0.167 HD
HETATM   18  C10 UNK     1      17.932   4.417  32.141  1.00  0.00     0.032 A 
HETATM   19  C5  UNK     1      17.890   6.686  31.209  1.00  0.00     0.086 A 
HETATM   20  C15 UNK     1      18.733   4.030  31.062  1.00  0.00     0.002 A 
HETATM   21  C16 UNK     1      19.110   4.943  30.075  1.00  0.00     0.002 A 
HETATM   22  C11 UNK     1      18.696   6.280  30.132  1.00  0.00     0.034 A 
HETATM   23  N2  UNK     1      17.356   7.921  31.497  1.00  0.00    -0.228 NA
ENDBRANCH   5  14
TORSDOF 1
ENDMDL
MODEL 8
REMARK VINA RESULT:      -8.2     16.746     20.276
REMARK  1 active torsions:
REMARK  status: ('A' for Active; 'I' for Inactive)
REMARK    1  A    between atoms: C1_7  and  C2_8 
ROOT
HETATM    1 Cl1  UNK     1      19.685   9.659  34.197  1.00  0.00    -0.081 Cl
HETATM    2 Cl2  UNK     1      14.334   9.129  34.487  1.00  0.00    -0.084 Cl
HETATM    3  O1  UNK     1      19.571   7.126  32.662  1.00  0.00    -0.272 OA
HETATM    4  O2  UNK     1      20.837   5.558  31.590  1.00  0.00    -0.259 OA
HETATM    5  C1  UNK     1      18.484   5.195  31.609  1.00  0.00     0.086 A 
HETATM    6  C4  UNK     1      17.159   6.863  32.779  1.00  0.00     0.002 A 
HETATM    7  C6  UNK     1      17.282   5.635  32.011  1.00  0.00     0.036 A 
HETATM    8  C7  UNK     1      18.308   7.582  33.086  1.00  0.00     0.111 A 
HETATM    9  C8  UNK     1      19.726   5.948  31.935  1.00  0.00     0.302 A 
HETATM   10  C9  UNK     1      15.924   7.348  33.217  1.00  0.00     0.038 A 
HETATM   11  C12 UNK     1      18.260   8.768  33.817  1.00  0.00     0.070 A 
HETATM   12  C13 UNK     1      15.858   8.536  33.951  1.00  0.00     0.036 A 
HETATM   13  C14 UNK     1      17.024   9.244  34.250  1.00  0.00     0.050 A 
ENDROOT
BRANCH   5  14
HETATM   14  C2  UNK     1      18.569   3.986  30.850  1.00  0.00     0.145 A 
HETATM   15  N1  UNK     1      19.310   2.965  31.378  1.00  0.00    -0.338 N 
HETATM   16  C3  UNK     1      19.260   1.913  30.499  1.00  0.00     0.062 A 
HETATM   17  H2  UNK     1      19.820   2.972  32.252  1.00  0.00     0.167 HD
HETATM   18  C10 UNK     1      19.825   0.638  30.528  1.00  0.00     0.032 A 
HETATM   19  C5  UNK     1      18.464   2.374  29.454  1.00  0.00     0.086 A 
HETATM   20  C15 UNK     1      19.559  -0.193  29.436  1.00  0.00     0.002 A 
HETATM   21  C16 UNK     1      18.764   0.240  28.372  1.00  0.00     0.002 A 
HETATM   22  C11 UNK     1      18.206   1.525  28.364  1.00  0.00     0.034 A 
HETATM   23  N2  UNK     1      18.044   3.663  29.690  1.00  0.00    -0.228 NA
ENDBRANCH   5  14
TORSDOF 1
ENDMDL
MODEL 9
REMARK VINA RESULT:      -8.2     19.043     21.255
REMARK  1 active torsions:
REMARK  status: ('A' for Active; 'I' for Inactive)
REMARK    1  A    between atoms: C1_7  and  C2_8 
ROOT
HETATM    1 Cl1  UNK     1      18.340   5.788  29.621  1.00  0.00    -0.081 Cl
HETATM    2 Cl2  UNK     1      18.399   9.156  33.823  1.00  0.00    -0.084 Cl
HETATM    3  O1  UNK     1      18.297   3.662  31.685  1.00  0.00    -0.272 OA
HETATM    4  O2  UNK     1      18.279   1.403  32.008  1.00  0.00    -0.259 OA
HETATM    5  C1  UNK     1      18.278   2.757  33.966  1.00  0.00     0.086 A 
HETATM    6  C4  UNK     1      18.323   5.159  33.597  1.00  0.00     0.002 A 
HETATM    7  C6  UNK     1      18.297   3.999  34.473  1.00  0.00     0.036 A 
HETATM    8  C7  UNK     1      18.321   4.963  32.221  1.00  0.00     0.111 A 
HETATM    9  C8  UNK     1      18.283   2.529  32.495  1.00  0.00     0.302 A 
HETATM   10  C9  UNK     1      18.348   6.466  34.092  1.00  0.00     0.038 A 
HETATM   11  C12 UNK     1      18.343   6.032  31.328  1.00  0.00     0.070 A 
HETATM   12  C13 UNK     1      18.370   7.549  33.208  1.00  0.00     0.036 A 
HETATM   13  C14 UNK     1      18.368   7.332  31.828  1.00  0.00     0.050 A 
ENDROOT
BRANCH   5  14
HETATM   14  C2  UNK     1      18.246   1.638  34.855  1.00  0.00     0.145 A 
HETATM   15  N1  UNK     1      19.029   0.563  34.538  1.00  0.00    -0.338 N 
HETATM   16  C3  UNK     1      18.850  -0.387  35.511  1.00  0.00     0.062 A 
HETATM   17  H2  UNK     1      19.629   0.464  33.730  1.00  0.00     0.167 HD
HETATM   18  C10 UNK     1      19.391  -1.661  35.690  1.00  0.00     0.032 A 
HETATM   19  C5  UNK     1      17.938   0.187  36.391  1.00  0.00     0.086 A 
HETATM   20  C15 UNK     1      18.974  -2.368  36.822  1.00  0.00     0.002 A 
HETATM   21  C16 UNK     1      18.060  -1.818  37.724  1.00  0.00     0.002 A 
HETATM   22  C11 UNK     1      17.529  -0.538  37.524  1.00  0.00     0.034 A 
HETATM   23  N2  UNK     1      17.575   1.445  35.968  1.00  0.00    -0.228 NA
ENDBRANCH   5  14
TORSDOF 1
ENDMDL
MODEL 10
REMARK VINA RESULT:      -8.1     17.523     19.637
REMARK  1 active torsions:
REMARK  status: ('A' for Active; 'I' for Inactive)
REMARK    1  A    between atoms: C1_7  and  C2_8 
ROOT
HETATM    1 Cl1  UNK     1      19.861   0.627  29.295  1.00  0.00    -0.081 Cl
HETATM    2 Cl2  UNK     1      18.548  -1.315  34.143  1.00  0.00    -0.084 Cl
HETATM    3  O1  UNK     1      19.007   3.233  30.419  1.00  0.00    -0.272 OA
HETATM    4  O2  UNK     1      18.742   5.450  29.945  1.00  0.00    -0.259 OA
HETATM    5  C1  UNK     1      18.142   4.752  32.141  1.00  0.00     0.086 A 
HETATM    6  C4  UNK     1      18.407   2.382  32.613  1.00  0.00     0.002 A 
HETATM    7  C6  UNK     1      18.033   3.731  33.005  1.00  0.00     0.036 A 
HETATM    8  C7  UNK     1      18.888   2.165  31.327  1.00  0.00     0.111 A 
HETATM    9  C8  UNK     1      18.647   4.536  30.758  1.00  0.00     0.302 A 
HETATM   10  C9  UNK     1      18.303   1.297  33.487  1.00  0.00     0.038 A 
HETATM   11  C12 UNK     1      19.265   0.897  30.889  1.00  0.00     0.070 A 
HETATM   12  C13 UNK     1      18.678   0.019  33.062  1.00  0.00     0.036 A 
HETATM   13  C14 UNK     1      19.158  -0.181  31.766  1.00  0.00     0.050 A 
ENDROOT
BRANCH   5  14
HETATM   14  C2  UNK     1      17.771   6.067  32.560  1.00  0.00     0.145 A 
HETATM   15  N1  UNK     1      18.774   6.901  32.971  1.00  0.00    -0.338 N 
HETATM   16  C3  UNK     1      18.205   8.097  33.327  1.00  0.00     0.062 A 
HETATM   17  H2  UNK     1      19.761   6.687  33.020  1.00  0.00     0.167 HD
HETATM   18  C10 UNK     1      18.748   9.288  33.811  1.00  0.00     0.032 A 
HETATM   19  C5  UNK     1      16.844   7.912  33.105  1.00  0.00     0.086 A 
HETATM   20  C15 UNK     1      17.851  10.327  34.075  1.00  0.00     0.002 A 
HETATM   21  C16 UNK     1      16.479  10.173  33.862  1.00  0.00     0.002 A 
HETATM   22  C11 UNK     1      15.956   8.968  33.376  1.00  0.00     0.034 A 
HETATM   23  N2  UNK     1      16.593   6.646  32.629  1.00  0.00    -0.228 NA
ENDBRANCH   5  14
TORSDOF 1
ENDMDL
