MODEL 1
REMARK VINA RESULT:      -8.9      0.000      0.000
REMARK  4 active torsions:
REMARK  status: ('A' for Active; 'I' for Inactive)
REMARK       I    between atoms: C19_25  and  N1_6 
REMARK    1  A    between atoms: C1_7  and  C2_8 
REMARK    2  A    between atoms: C11_17  and  C12_18 
REMARK    3  A    between atoms: C12_18  and  C15_21 
REMARK    4  A    between atoms: C15_21  and  C19_25 
ROOT
HETATM    1  O1  UNK     1      30.482  -4.429  38.351  1.00  0.00    -0.321 OA
HETATM    2  O2  UNK     1      25.758  -5.173  38.948  1.00  0.00    -0.274 OA
HETATM    3  O5  UNK     1      23.539  -5.544  39.249  1.00  0.00    -0.259 OA
HETATM    4  C2  UNK     1      31.029  -6.561  37.885  1.00  0.00    -0.015 A 
HETATM    5  C3  UNK     1      29.627  -6.505  38.106  1.00  0.00     0.008 A 
HETATM    6  C4  UNK     1      27.250  -7.008  38.372  1.00  0.00     0.005 A 
HETATM    7  C5  UNK     1      29.343  -5.176  38.389  1.00  0.00     0.088 A 
HETATM    8  C9  UNK     1      28.567  -7.435  38.098  1.00  0.00     0.029 A 
HETATM    9  C10 UNK     1      26.087  -7.924  38.385  1.00  0.00    -0.037 A 
HETATM   10  C11 UNK     1      24.865  -7.446  38.704  1.00  0.00     0.025 A 
HETATM   11  C13 UNK     1      27.046  -5.658  38.653  1.00  0.00     0.093 A 
HETATM   12  C14 UNK     1      31.498  -5.278  38.045  1.00  0.00     0.151 A 
HETATM   13  C16 UNK     1      28.068  -4.699  38.670  1.00  0.00     0.076 A 
HETATM   14  C22 UNK     1      24.649  -6.000  38.992  1.00  0.00     0.295 A 
HETATM   15  C23 UNK     1      26.346  -9.364  38.015  1.00  0.00     0.050 C 
ENDROOT
BRANCH  10  16
HETATM   16  C12 UNK     1      23.615  -8.282  38.817  1.00  0.00     0.055 C 
BRANCH  16  17
HETATM   17  C15 UNK     1      22.887  -8.395  37.489  1.00  0.00     0.108 C 
BRANCH  17  18
HETATM   18  C19 UNK     1      21.421  -8.676  37.695  1.00  0.00     0.220 C 
HETATM   19  O4  UNK     1      21.032  -9.092  38.789  1.00  0.00    -0.273 OA
HETATM   20  N1  UNK     1      20.583  -8.436  36.608  1.00  0.00    -0.348 N 
HETATM   21  C17 UNK     1      19.145  -8.677  36.723  1.00  0.00     0.152 C 
HETATM   22  C18 UNK     1      21.026  -8.065  35.259  1.00  0.00     0.152 C 
HETATM   23  C20 UNK     1      18.363  -7.519  36.121  1.00  0.00     0.187 C 
HETATM   24  O3  UNK     1      18.778  -7.290  34.771  1.00  0.00    -0.388 OA
HETATM   25  C21 UNK     1      20.162  -6.935  34.714  1.00  0.00     0.187 C 
ENDBRANCH  17  18
ENDBRANCH  16  17
ENDBRANCH  10  16
BRANCH   4  26
HETATM   26  C1  UNK     1      31.831  -7.752  37.549  1.00  0.00    -0.021 C 
HETATM   27  C6  UNK     1      31.671  -8.179  36.047  1.00  0.00     0.019 C 
HETATM   28  C7  UNK     1      31.494  -9.056  38.364  1.00  0.00     0.019 C 
HETATM   29  C8  UNK     1      33.366  -7.528  37.790  1.00  0.00     0.019 C 
ENDBRANCH   4  26
TORSDOF 4
ENDMDL
MODEL 2
REMARK VINA RESULT:      -8.6      9.531     13.525
REMARK  4 active torsions:
REMARK  status: ('A' for Active; 'I' for Inactive)
REMARK       I    between atoms: C19_25  and  N1_6 
REMARK    1  A    between atoms: C1_7  and  C2_8 
REMARK    2  A    between atoms: C11_17  and  C12_18 
REMARK    3  A    between atoms: C12_18  and  C15_21 
REMARK    4  A    between atoms: C15_21  and  C19_25 
ROOT
HETATM    1  O1  UNK     1      18.529   5.246  30.534  1.00  0.00    -0.321 OA
HETATM    2  O2  UNK     1      18.627   0.635  31.932  1.00  0.00    -0.274 OA
HETATM    3  O5  UNK     1      18.647  -1.532  32.603  1.00  0.00    -0.259 OA
HETATM    4  C2  UNK     1      18.221   6.136  32.577  1.00  0.00    -0.015 A 
HETATM    5  C3  UNK     1      18.292   4.725  32.719  1.00  0.00     0.008 A 
HETATM    6  C4  UNK     1      18.334   2.427  33.553  1.00  0.00     0.005 A 
HETATM    7  C5  UNK     1      18.481   4.227  31.436  1.00  0.00     0.088 A 
HETATM    8  C9  UNK     1      18.216   3.813  33.792  1.00  0.00     0.029 A 
HETATM    9  C10 UNK     1      18.263   1.411  34.626  1.00  0.00    -0.037 A 
HETATM   10  C11 UNK     1      18.336   0.100  34.308  1.00  0.00     0.025 A 
HETATM   11  C13 UNK     1      18.517   2.005  32.236  1.00  0.00     0.093 A 
HETATM   12  C14 UNK     1      18.370   6.400  31.236  1.00  0.00     0.151 A 
HETATM   13  C16 UNK     1      18.599   2.874  31.140  1.00  0.00     0.076 A 
HETATM   14  C22 UNK     1      18.543  -0.347  32.902  1.00  0.00     0.295 A 
HETATM   15  C23 UNK     1      18.126   1.917  36.040  1.00  0.00     0.050 C 
ENDROOT
BRANCH  10  16
HETATM   16  C12 UNK     1      18.211  -1.034  35.295  1.00  0.00     0.055 C 
BRANCH  16  17
HETATM   17  C15 UNK     1      19.405  -1.970  35.236  1.00  0.00     0.108 C 
BRANCH  17  18
HETATM   18  C19 UNK     1      19.610  -2.674  36.554  1.00  0.00     0.220 C 
HETATM   19  O4  UNK     1      19.415  -2.059  37.605  1.00  0.00    -0.273 OA
HETATM   20  N1  UNK     1      20.010  -4.007  36.491  1.00  0.00    -0.348 N 
HETATM   21  C17 UNK     1      20.227  -4.766  37.723  1.00  0.00     0.152 C 
HETATM   22  C18 UNK     1      20.372  -4.729  35.267  1.00  0.00     0.152 C 
HETATM   23  C20 UNK     1      19.590  -6.144  37.616  1.00  0.00     0.187 C 
HETATM   24  O3  UNK     1      20.075  -6.824  36.455  1.00  0.00    -0.388 OA
HETATM   25  C21 UNK     1      19.733  -6.112  35.263  1.00  0.00     0.187 C 
ENDBRANCH  17  18
ENDBRANCH  16  17
ENDBRANCH  10  16
BRANCH   4  26
HETATM   26  C1  UNK     1      18.026   7.129  33.650  1.00  0.00    -0.021 C 
HETATM   27  C6  UNK     1      19.286   7.268  34.575  1.00  0.00     0.019 C 
HETATM   28  C7  UNK     1      16.841   6.841  34.644  1.00  0.00     0.019 C 
HETATM   29  C8  UNK     1      17.723   8.564  33.089  1.00  0.00     0.019 C 
ENDBRANCH   4  26
TORSDOF 4
ENDMDL
MODEL 3
REMARK VINA RESULT:      -8.4      6.259      9.733
REMARK  4 active torsions:
REMARK  status: ('A' for Active; 'I' for Inactive)
REMARK       I    between atoms: C19_25  and  N1_6 
REMARK    1  A    between atoms: C1_7  and  C2_8 
REMARK    2  A    between atoms: C11_17  and  C12_18 
REMARK    3  A    between atoms: C12_18  and  C15_21 
REMARK    4  A    between atoms: C15_21  and  C19_25 
ROOT
HETATM    1  O1  UNK     1      32.625  -4.703  37.706  1.00  0.00    -0.321 OA
HETATM    2  O2  UNK     1      35.150  -5.659  33.714  1.00  0.00    -0.274 OA
HETATM    3  O5  UNK     1      36.314  -6.103  31.818  1.00  0.00    -0.259 OA
HETATM    4  C2  UNK     1      30.949  -6.151  37.313  1.00  0.00    -0.015 A 
HETATM    5  C3  UNK     1      31.873  -6.245  36.238  1.00  0.00     0.008 A 
HETATM    6  C4  UNK     1      33.066  -6.825  34.185  1.00  0.00     0.005 A 
HETATM    7  C5  UNK     1      32.881  -5.335  36.527  1.00  0.00     0.088 A 
HETATM    8  C9  UNK     1      31.964  -6.999  35.050  1.00  0.00     0.029 A 
HETATM    9  C10 UNK     1      33.230  -7.577  32.921  1.00  0.00    -0.037 A 
HETATM   10  C11 UNK     1      34.289  -7.317  32.123  1.00  0.00     0.025 A 
HETATM   11  C13 UNK     1      34.035  -5.889  34.542  1.00  0.00     0.093 A 
HETATM   12  C14 UNK     1      31.452  -5.204  38.174  1.00  0.00     0.151 A 
HETATM   13  C16 UNK     1      33.986  -5.118  35.712  1.00  0.00     0.076 A 
HETATM   14  C22 UNK     1      35.329  -6.325  32.514  1.00  0.00     0.295 A 
HETATM   15  C23 UNK     1      32.189  -8.623  32.606  1.00  0.00     0.050 C 
ENDROOT
BRANCH  10  16
HETATM   16  C12 UNK     1      34.538  -7.964  30.784  1.00  0.00     0.055 C 
BRANCH  16  17
HETATM   17  C15 UNK     1      33.854  -7.212  29.655  1.00  0.00     0.108 C 
BRANCH  17  18
HETATM   18  C19 UNK     1      32.732  -8.025  29.061  1.00  0.00     0.220 C 
HETATM   19  O4  UNK     1      32.985  -9.110  28.533  1.00  0.00    -0.273 OA
HETATM   20  N1  UNK     1      31.453  -7.482  29.157  1.00  0.00    -0.348 N 
HETATM   21  C17 UNK     1      30.306  -8.207  28.612  1.00  0.00     0.152 C 
HETATM   22  C18 UNK     1      31.134  -6.142  29.663  1.00  0.00     0.152 C 
HETATM   23  C20 UNK     1      29.147  -8.187  29.598  1.00  0.00     0.187 C 
HETATM   24  O3  UNK     1      28.828  -6.840  29.959  1.00  0.00    -0.388 OA
HETATM   25  C21 UNK     1      29.936  -6.206  30.603  1.00  0.00     0.187 C 
ENDBRANCH  17  18
ENDBRANCH  16  17
ENDBRANCH  10  16
BRANCH   4  26
HETATM   26  C1  UNK     1      29.698  -6.913  37.482  1.00  0.00    -0.021 C 
HETATM   27  C6  UNK     1      29.950  -8.455  37.627  1.00  0.00     0.019 C 
HETATM   28  C7  UNK     1      28.662  -6.797  36.303  1.00  0.00     0.019 C 
HETATM   29  C8  UNK     1      28.893  -6.469  38.754  1.00  0.00     0.019 C 
ENDBRANCH   4  26
TORSDOF 4
ENDMDL
MODEL 4
REMARK VINA RESULT:      -8.4     33.011     34.925
REMARK  4 active torsions:
REMARK  status: ('A' for Active; 'I' for Inactive)
REMARK       I    between atoms: C19_25  and  N1_6 
REMARK    1  A    between atoms: C1_7  and  C2_8 
REMARK    2  A    between atoms: C11_17  and  C12_18 
REMARK    3  A    between atoms: C12_18  and  C15_21 
REMARK    4  A    between atoms: C15_21  and  C19_25 
ROOT
HETATM    1  O1  UNK     1      14.853   5.055   8.717  1.00  0.00    -0.321 OA
HETATM    2  O2  UNK     1      10.055   5.098   8.258  1.00  0.00    -0.274 OA
HETATM    3  O5  UNK     1       7.799   5.142   8.025  1.00  0.00    -0.259 OA
HETATM    4  C2  UNK     1      15.064   7.157   9.489  1.00  0.00    -0.015 A 
HETATM    5  C3  UNK     1      13.683   6.907   9.269  1.00  0.00     0.008 A 
HETATM    6  C4  UNK     1      11.250   7.049   9.090  1.00  0.00     0.005 A 
HETATM    7  C5  UNK     1      13.608   5.603   8.795  1.00  0.00     0.088 A 
HETATM    8  C9  UNK     1      12.488   7.641   9.418  1.00  0.00     0.029 A 
HETATM    9  C10 UNK     1       9.956   7.756   9.218  1.00  0.00    -0.037 A 
HETATM   10  C11 UNK     1       8.817   7.136   8.837  1.00  0.00     0.025 A 
HETATM   11  C13 UNK     1      11.258   5.738   8.616  1.00  0.00     0.093 A 
HETATM   12  C14 UNK     1      15.728   6.004   9.140  1.00  0.00     0.151 A 
HETATM   13  C16 UNK     1      12.419   4.971   8.452  1.00  0.00     0.076 A 
HETATM   14  C22 UNK     1       8.828   5.731   8.341  1.00  0.00     0.295 A 
HETATM   15  C23 UNK     1       9.990   9.149   9.794  1.00  0.00     0.050 C 
ENDROOT
BRANCH  10  16
HETATM   16  C12 UNK     1       7.447   7.765   8.854  1.00  0.00     0.055 C 
BRANCH  16  17
HETATM   17  C15 UNK     1       6.981   8.071  10.267  1.00  0.00     0.108 C 
BRANCH  17  18
HETATM   18  C19 UNK     1       6.002   7.032  10.754  1.00  0.00     0.220 C 
HETATM   19  O4  UNK     1       5.706   6.088  10.018  1.00  0.00    -0.273 OA
HETATM   20  N1  UNK     1       5.490   7.214  12.036  1.00  0.00    -0.348 N 
HETATM   21  C17 UNK     1       4.537   6.251  12.588  1.00  0.00     0.152 C 
HETATM   22  C18 UNK     1       5.720   8.388  12.885  1.00  0.00     0.152 C 
HETATM   23  C20 UNK     1       4.906   5.902  14.023  1.00  0.00     0.187 C 
HETATM   24  O3  UNK     1       5.006   7.093  14.810  1.00  0.00    -0.388 OA
HETATM   25  C21 UNK     1       6.035   7.952  14.311  1.00  0.00     0.187 C 
ENDBRANCH  17  18
ENDBRANCH  16  17
ENDBRANCH  10  16
BRANCH   4  26
HETATM   26  C1  UNK     1      15.674   8.402   9.993  1.00  0.00    -0.021 C 
HETATM   27  C6  UNK     1      17.236   8.303  10.103  1.00  0.00     0.019 C 
HETATM   28  C7  UNK     1      15.209   8.861  11.424  1.00  0.00     0.019 C 
HETATM   29  C8  UNK     1      15.368   9.635   9.070  1.00  0.00     0.019 C 
ENDBRANCH   4  26
TORSDOF 4
ENDMDL
MODEL 5
REMARK VINA RESULT:      -8.3     13.110     16.674
REMARK  4 active torsions:
REMARK  status: ('A' for Active; 'I' for Inactive)
REMARK       I    between atoms: C19_25  and  N1_6 
REMARK    1  A    between atoms: C1_7  and  C2_8 
REMARK    2  A    between atoms: C11_17  and  C12_18 
REMARK    3  A    between atoms: C12_18  and  C15_21 
REMARK    4  A    between atoms: C15_21  and  C19_25 
ROOT
HETATM    1  O1  UNK     1      18.745  -0.507  32.130  1.00  0.00    -0.321 OA
HETATM    2  O2  UNK     1      18.959   3.945  30.297  1.00  0.00    -0.274 OA
HETATM    3  O5  UNK     1      19.078   6.049  29.456  1.00  0.00    -0.259 OA
HETATM    4  C2  UNK     1      18.108   0.090  34.203  1.00  0.00    -0.015 A 
HETATM    5  C3  UNK     1      18.242   1.272  33.427  1.00  0.00     0.008 A 
HETATM    6  C4  UNK     1      18.304   3.576  32.612  1.00  0.00     0.005 A 
HETATM    7  C5  UNK     1      18.636   0.850  32.164  1.00  0.00     0.088 A 
HETATM    8  C9  UNK     1      18.075   2.654  33.656  1.00  0.00     0.029 A 
HETATM    9  C10 UNK     1      18.151   5.039  32.776  1.00  0.00    -0.037 A 
HETATM   10  C11 UNK     1      18.436   5.859  31.742  1.00  0.00     0.025 A 
HETATM   11  C13 UNK     1      18.702   3.075  31.374  1.00  0.00     0.093 A 
HETATM   12  C14 UNK     1      18.424  -0.959  33.371  1.00  0.00     0.151 A 
HETATM   13  C16 UNK     1      18.880   1.711  31.101  1.00  0.00     0.076 A 
HETATM   14  C22 UNK     1      18.850   5.319  30.416  1.00  0.00     0.295 A 
HETATM   15  C23 UNK     1      17.659   5.530  34.115  1.00  0.00     0.050 C 
ENDROOT
BRANCH  10  16
HETATM   16  C12 UNK     1      18.385   7.365  31.796  1.00  0.00     0.055 C 
BRANCH  16  17
HETATM   17  C15 UNK     1      17.019   7.871  32.225  1.00  0.00     0.108 C 
BRANCH  17  18
HETATM   18  C19 UNK     1      17.143   9.030  33.181  1.00  0.00     0.220 C 
HETATM   19  O4  UNK     1      18.262   9.472  33.453  1.00  0.00    -0.273 OA
HETATM   20  N1  UNK     1      15.955   9.537  33.700  1.00  0.00    -0.348 N 
HETATM   21  C17 UNK     1      15.984  10.665  34.632  1.00  0.00     0.152 C 
HETATM   22  C18 UNK     1      14.622   8.957  33.499  1.00  0.00     0.152 C 
HETATM   23  C20 UNK     1      14.923  11.690  34.258  1.00  0.00     0.187 C 
HETATM   24  O3  UNK     1      13.637  11.066  34.186  1.00  0.00    -0.388 OA
HETATM   25  C21 UNK     1      13.614  10.053  33.177  1.00  0.00     0.187 C 
ENDBRANCH  17  18
ENDBRANCH  16  17
ENDBRANCH  10  16
BRANCH   4  26
HETATM   26  C1  UNK     1      17.709  -0.004  35.620  1.00  0.00    -0.021 C 
HETATM   27  C6  UNK     1      16.164   0.180  35.822  1.00  0.00     0.019 C 
HETATM   28  C7  UNK     1      18.358   1.055  36.586  1.00  0.00     0.019 C 
HETATM   29  C8  UNK     1      18.082  -1.391  36.255  1.00  0.00     0.019 C 
ENDBRANCH   4  26
TORSDOF 4
ENDMDL
MODEL 6
REMARK VINA RESULT:      -8.2      2.396      3.592
REMARK  4 active torsions:
REMARK  status: ('A' for Active; 'I' for Inactive)
REMARK       I    between atoms: C19_25  and  N1_6 
REMARK    1  A    between atoms: C1_7  and  C2_8 
REMARK    2  A    between atoms: C11_17  and  C12_18 
REMARK    3  A    between atoms: C12_18  and  C15_21 
REMARK    4  A    between atoms: C15_21  and  C19_25 
ROOT
HETATM    1  O1  UNK     1      33.175  -8.545  36.893  1.00  0.00    -0.321 OA
HETATM    2  O2  UNK     1      29.016 -10.000  38.846  1.00  0.00    -0.274 OA
HETATM    3  O5  UNK     1      27.044 -10.677  39.740  1.00  0.00    -0.259 OA
HETATM    4  C2  UNK     1      32.511  -6.458  36.380  1.00  0.00    -0.015 A 
HETATM    5  C3  UNK     1      31.422  -7.126  37.000  1.00  0.00     0.008 A 
HETATM    6  C4  UNK     1      29.266  -7.741  37.974  1.00  0.00     0.005 A 
HETATM    7  C5  UNK     1      31.881  -8.403  37.294  1.00  0.00     0.088 A 
HETATM    8  C9  UNK     1      30.096  -6.789  37.342  1.00  0.00     0.029 A 
HETATM    9  C10 UNK     1      27.865  -7.463  38.362  1.00  0.00    -0.037 A 
HETATM   10  C11 UNK     1      27.121  -8.443  38.918  1.00  0.00     0.025 A 
HETATM   11  C13 UNK     1      29.799  -9.003  38.231  1.00  0.00     0.093 A 
HETATM   12  C14 UNK     1      33.548  -7.361  36.340  1.00  0.00     0.151 A 
HETATM   13  C16 UNK     1      31.109  -9.381  37.909  1.00  0.00     0.076 A 
HETATM   14  C22 UNK     1      27.697  -9.787  39.203  1.00  0.00     0.295 A 
HETATM   15  C23 UNK     1      27.352  -6.065  38.120  1.00  0.00     0.050 C 
ENDROOT
BRANCH  10  16
HETATM   16  C12 UNK     1      25.667  -8.311  39.298  1.00  0.00     0.055 C 
BRANCH  16  17
HETATM   17  C15 UNK     1      24.752  -8.453  38.094  1.00  0.00     0.108 C 
BRANCH  17  18
HETATM   18  C19 UNK     1      23.376  -7.911  38.390  1.00  0.00     0.220 C 
HETATM   19  O4  UNK     1      23.238  -7.062  39.274  1.00  0.00    -0.273 OA
HETATM   20  N1  UNK     1      22.330  -8.417  37.623  1.00  0.00    -0.348 N 
HETATM   21  C17 UNK     1      20.964  -7.943  37.841  1.00  0.00     0.152 C 
HETATM   22  C18 UNK     1      22.439  -9.516  36.656  1.00  0.00     0.152 C 
HETATM   23  C20 UNK     1      20.283  -7.654  36.511  1.00  0.00     0.187 C 
HETATM   24  O3  UNK     1      20.339  -8.808  35.667  1.00  0.00    -0.388 OA
HETATM   25  C21 UNK     1      21.692  -9.165  35.375  1.00  0.00     0.187 C 
ENDBRANCH  17  18
ENDBRANCH  16  17
ENDBRANCH  10  16
BRANCH   4  26
HETATM   26  C1  UNK     1      32.537  -5.072  35.877  1.00  0.00    -0.021 C 
HETATM   27  C6  UNK     1      33.996  -4.544  35.645  1.00  0.00     0.019 C 
HETATM   28  C7  UNK     1      31.874  -3.993  36.811  1.00  0.00     0.019 C 
HETATM   29  C8  UNK     1      31.783  -4.918  34.508  1.00  0.00     0.019 C 
ENDBRANCH   4  26
TORSDOF 4
ENDMDL
MODEL 7
REMARK VINA RESULT:      -8.2     32.767     34.457
REMARK  4 active torsions:
REMARK  status: ('A' for Active; 'I' for Inactive)
REMARK       I    between atoms: C19_25  and  N1_6 
REMARK    1  A    between atoms: C1_7  and  C2_8 
REMARK    2  A    between atoms: C11_17  and  C12_18 
REMARK    3  A    between atoms: C12_18  and  C15_21 
REMARK    4  A    between atoms: C15_21  and  C19_25 
ROOT
HETATM    1  O1  UNK     1      17.111   6.966  10.319  1.00  0.00    -0.321 OA
HETATM    2  O2  UNK     1      12.786   4.986   9.541  1.00  0.00    -0.274 OA
HETATM    3  O5  UNK     1      10.750   4.067   9.148  1.00  0.00    -0.259 OA
HETATM    4  C2  UNK     1      16.521   9.085   9.848  1.00  0.00    -0.015 A 
HETATM    5  C3  UNK     1      15.372   8.264   9.693  1.00  0.00     0.008 A 
HETATM    6  C4  UNK     1      13.131   7.382   9.278  1.00  0.00     0.005 A 
HETATM    7  C5  UNK     1      15.789   6.973   9.992  1.00  0.00     0.088 A 
HETATM    8  C9  UNK     1      14.026   8.472   9.329  1.00  0.00     0.029 A 
HETATM    9  C10 UNK     1      11.706   7.520   8.904  1.00  0.00    -0.037 A 
HETATM   10  C11 UNK     1      10.926   6.420   8.832  1.00  0.00     0.025 A 
HETATM   11  C13 UNK     1      13.626   6.116   9.588  1.00  0.00     0.093 A 
HETATM   12  C14 UNK     1      17.546   8.250  10.229  1.00  0.00     0.151 A 
HETATM   13  C16 UNK     1      14.955   5.862   9.955  1.00  0.00     0.076 A 
HETATM   14  C22 UNK     1      11.455   5.070   9.175  1.00  0.00     0.295 A 
HETATM   15  C23 UNK     1      11.200   8.917   8.638  1.00  0.00     0.050 C 
ENDROOT
BRANCH  10  16
HETATM   16  C12 UNK     1       9.480   6.416   8.401  1.00  0.00     0.055 C 
BRANCH  16  17
HETATM   17  C15 UNK     1       8.539   6.642   9.572  1.00  0.00     0.108 C 
BRANCH  17  18
HETATM   18  C19 UNK     1       7.506   5.548   9.658  1.00  0.00     0.220 C 
HETATM   19  O4  UNK     1       7.611   4.558   8.929  1.00  0.00    -0.273 OA
HETATM   20  N1  UNK     1       6.480   5.733  10.581  1.00  0.00    -0.348 N 
HETATM   21  C17 UNK     1       5.437   4.718  10.733  1.00  0.00     0.152 C 
HETATM   22  C18 UNK     1       6.254   6.950  11.369  1.00  0.00     0.152 C 
HETATM   23  C20 UNK     1       5.168   4.450  12.206  1.00  0.00     0.187 C 
HETATM   24  O3  UNK     1       4.852   5.671  12.881  1.00  0.00    -0.388 OA
HETATM   25  C21 UNK     1       5.945   6.590  12.817  1.00  0.00     0.187 C 
ENDBRANCH  17  18
ENDBRANCH  16  17
ENDBRANCH  10  16
BRANCH   4  26
HETATM   26  C1  UNK     1      16.608  10.543   9.646  1.00  0.00    -0.021 C 
HETATM   27  C6  UNK     1      15.833  11.349  10.747  1.00  0.00     0.019 C 
HETATM   28  C7  UNK     1      16.025  11.081   8.286  1.00  0.00     0.019 C 
HETATM   29  C8  UNK     1      18.089  11.064   9.668  1.00  0.00     0.019 C 
ENDBRANCH   4  26
TORSDOF 4
ENDMDL
MODEL 8
REMARK VINA RESULT:      -8.1      7.571      9.820
REMARK  4 active torsions:
REMARK  status: ('A' for Active; 'I' for Inactive)
REMARK       I    between atoms: C19_25  and  N1_6 
REMARK    1  A    between atoms: C1_7  and  C2_8 
REMARK    2  A    between atoms: C11_17  and  C12_18 
REMARK    3  A    between atoms: C12_18  and  C15_21 
REMARK    4  A    between atoms: C15_21  and  C19_25 
ROOT
HETATM    1  O1  UNK     1      34.902  -7.185  35.755  1.00  0.00    -0.321 OA
HETATM    2  O2  UNK     1      34.020  -8.181  31.123  1.00  0.00    -0.274 OA
HETATM    3  O5  UNK     1      33.602  -8.621  28.936  1.00  0.00    -0.259 OA
HETATM    4  C2  UNK     1      33.045  -5.970  36.123  1.00  0.00    -0.015 A 
HETATM    5  C3  UNK     1      33.024  -6.406  34.772  1.00  0.00     0.008 A 
HETATM    6  C4  UNK     1      32.460  -6.851  32.435  1.00  0.00     0.005 A 
HETATM    7  C5  UNK     1      34.186  -7.147  34.597  1.00  0.00     0.088 A 
HETATM    8  C9  UNK     1      32.149  -6.254  33.676  1.00  0.00     0.029 A 
HETATM    9  C10 UNK     1      31.594  -6.735  31.241  1.00  0.00    -0.037 A 
HETATM   10  C11 UNK     1      31.986  -7.294  30.076  1.00  0.00     0.025 A 
HETATM   11  C13 UNK     1      33.648  -7.575  32.338  1.00  0.00     0.093 A 
HETATM   12  C14 UNK     1      34.203  -6.468  36.674  1.00  0.00     0.151 A 
HETATM   13  C16 UNK     1      34.546  -7.752  33.399  1.00  0.00     0.076 A 
HETATM   14  C22 UNK     1      33.250  -8.077  29.978  1.00  0.00     0.295 A 
HETATM   15  C23 UNK     1      30.290  -5.995  31.410  1.00  0.00     0.050 C 
ENDROOT
BRANCH  10  16
HETATM   16  C12 UNK     1      31.230  -7.193  28.774  1.00  0.00     0.055 C 
BRANCH  16  17
HETATM   17  C15 UNK     1      29.945  -8.003  28.801  1.00  0.00     0.108 C 
BRANCH  17  18
HETATM   18  C19 UNK     1      30.226  -9.474  28.635  1.00  0.00     0.220 C 
HETATM   19  O4  UNK     1      30.629  -9.895  27.548  1.00  0.00    -0.273 OA
HETATM   20  N1  UNK     1      30.010 -10.278  29.752  1.00  0.00    -0.348 N 
HETATM   21  C17 UNK     1      30.262 -11.717  29.680  1.00  0.00     0.152 C 
HETATM   22  C18 UNK     1      29.412  -9.834  31.016  1.00  0.00     0.152 C 
HETATM   23  C20 UNK     1      31.023 -12.185  30.912  1.00  0.00     0.187 C 
HETATM   24  O3  UNK     1      30.321 -11.806  32.099  1.00  0.00    -0.388 OA
HETATM   25  C21 UNK     1      30.205 -10.384  32.195  1.00  0.00     0.187 C 
ENDBRANCH  17  18
ENDBRANCH  16  17
ENDBRANCH  10  16
BRANCH   4  26
HETATM   26  C1  UNK     1      32.032  -5.147  36.809  1.00  0.00    -0.021 C 
HETATM   27  C6  UNK     1      32.175  -5.197  38.371  1.00  0.00     0.019 C 
HETATM   28  C7  UNK     1      30.533  -5.543  36.541  1.00  0.00     0.019 C 
HETATM   29  C8  UNK     1      32.114  -3.633  36.400  1.00  0.00     0.019 C 
ENDBRANCH   4  26
TORSDOF 4
ENDMDL
MODEL 9
REMARK VINA RESULT:      -8.1      5.016      8.965
REMARK  4 active torsions:
REMARK  status: ('A' for Active; 'I' for Inactive)
REMARK       I    between atoms: C19_25  and  N1_6 
REMARK    1  A    between atoms: C1_7  and  C2_8 
REMARK    2  A    between atoms: C11_17  and  C12_18 
REMARK    3  A    between atoms: C12_18  and  C15_21 
REMARK    4  A    between atoms: C15_21  and  C19_25 
ROOT
HETATM    1  O1  UNK     1      28.893  -5.422  39.413  1.00  0.00    -0.321 OA
HETATM    2  O2  UNK     1      33.085  -5.078  37.060  1.00  0.00    -0.274 OA
HETATM    3  O5  UNK     1      35.045  -4.924  35.927  1.00  0.00    -0.259 OA
HETATM    4  C2  UNK     1      28.407  -7.526  38.783  1.00  0.00    -0.015 A 
HETATM    5  C3  UNK     1      29.653  -7.169  38.202  1.00  0.00     0.008 A 
HETATM    6  C4  UNK     1      31.766  -7.122  36.973  1.00  0.00     0.005 A 
HETATM    7  C5  UNK     1      29.905  -5.869  38.619  1.00  0.00     0.088 A 
HETATM    8  C9  UNK     1      30.595  -7.805  37.366  1.00  0.00     0.029 A 
HETATM    9  C10 UNK     1      32.798  -7.721  36.098  1.00  0.00    -0.037 A 
HETATM   10  C11 UNK     1      33.867  -6.984  35.727  1.00  0.00     0.025 A 
HETATM   11  C13 UNK     1      31.944  -5.817  37.429  1.00  0.00     0.093 A 
HETATM   12  C14 UNK     1      27.990  -6.433  39.507  1.00  0.00     0.151 A 
HETATM   13  C16 UNK     1      31.037  -5.146  38.260  1.00  0.00     0.076 A 
HETATM   14  C22 UNK     1      34.061  -5.593  36.226  1.00  0.00     0.295 A 
HETATM   15  C23 UNK     1      32.592  -9.156  35.680  1.00  0.00     0.050 C 
ENDROOT
BRANCH  10  16
HETATM   16  C12 UNK     1      34.953  -7.451  34.790  1.00  0.00     0.055 C 
BRANCH  16  17
HETATM   17  C15 UNK     1      34.696  -7.010  33.360  1.00  0.00     0.108 C 
BRANCH  17  18
HETATM   18  C19 UNK     1      34.130  -8.138  32.536  1.00  0.00     0.220 C 
HETATM   19  O4  UNK     1      34.867  -9.064  32.190  1.00  0.00    -0.273 OA
HETATM   20  N1  UNK     1      32.777  -8.056  32.217  1.00  0.00    -0.348 N 
HETATM   21  C17 UNK     1      32.145  -9.110  31.424  1.00  0.00     0.152 C 
HETATM   22  C18 UNK     1      31.904  -6.911  32.501  1.00  0.00     0.152 C 
HETATM   23  C20 UNK     1      30.806  -9.501  32.031  1.00  0.00     0.187 C 
HETATM   24  O3  UNK     1      29.974  -8.346  32.176  1.00  0.00    -0.388 OA
HETATM   25  C21 UNK     1      30.570  -7.392  33.059  1.00  0.00     0.187 C 
ENDBRANCH  17  18
ENDBRANCH  16  17
ENDBRANCH  10  16
BRANCH   4  26
HETATM   26  C1  UNK     1      27.695  -8.809  38.645  1.00  0.00    -0.021 C 
HETATM   27  C6  UNK     1      28.399  -9.974  39.427  1.00  0.00     0.019 C 
HETATM   28  C7  UNK     1      27.549  -9.356  37.177  1.00  0.00     0.019 C 
HETATM   29  C8  UNK     1      26.221  -8.737  39.182  1.00  0.00     0.019 C 
ENDBRANCH   4  26
TORSDOF 4
ENDMDL
MODEL 10
REMARK VINA RESULT:      -8.1      6.548      9.916
REMARK  4 active torsions:
REMARK  status: ('A' for Active; 'I' for Inactive)
REMARK       I    between atoms: C19_25  and  N1_6 
REMARK    1  A    between atoms: C1_7  and  C2_8 
REMARK    2  A    between atoms: C11_17  and  C12_18 
REMARK    3  A    between atoms: C12_18  and  C15_21 
REMARK    4  A    between atoms: C15_21  and  C19_25 
ROOT
HETATM    1  O1  UNK     1      27.413  -7.445  31.203  1.00  0.00    -0.321 OA
HETATM    2  O2  UNK     1      30.608  -5.516  34.252  1.00  0.00    -0.274 OA
HETATM    3  O5  UNK     1      32.129  -4.599  35.665  1.00  0.00    -0.259 OA
HETATM    4  C2  UNK     1      28.867  -8.744  30.082  1.00  0.00    -0.015 A 
HETATM    5  C3  UNK     1      29.588  -8.042  31.085  1.00  0.00     0.008 A 
HETATM    6  C4  UNK     1      31.300  -7.143  32.580  1.00  0.00     0.005 A 
HETATM    7  C5  UNK     1      28.649  -7.258  31.744  1.00  0.00     0.088 A 
HETATM    8  C9  UNK     1      30.932  -7.984  31.507  1.00  0.00     0.029 A 
HETATM    9  C10 UNK     1      32.689  -7.027  33.078  1.00  0.00    -0.037 A 
HETATM   10  C11 UNK     1      32.968  -6.163  34.078  1.00  0.00     0.025 A 
HETATM   11  C13 UNK     1      30.301  -6.384  33.187  1.00  0.00     0.093 A 
HETATM   12  C14 UNK     1      27.555  -8.346  30.197  1.00  0.00     0.151 A 
HETATM   13  C16 UNK     1      28.954  -6.410  32.802  1.00  0.00     0.076 A 
HETATM   14  C22 UNK     1      31.896  -5.361  34.732  1.00  0.00     0.295 A 
HETATM   15  C23 UNK     1      33.725  -7.913  32.432  1.00  0.00     0.050 C 
ENDROOT
BRANCH  10  16
HETATM   16  C12 UNK     1      34.347  -5.902  34.631  1.00  0.00     0.055 C 
BRANCH  16  17
HETATM   17  C15 UNK     1      34.821  -7.031  35.529  1.00  0.00     0.108 C 
BRANCH  17  18
HETATM   18  C19 UNK     1      34.144  -6.977  36.874  1.00  0.00     0.220 C 
HETATM   19  O4  UNK     1      34.542  -6.172  37.720  1.00  0.00    -0.273 OA
HETATM   20  N1  UNK     1      33.084  -7.859  37.073  1.00  0.00    -0.348 N 
HETATM   21  C17 UNK     1      32.368  -7.869  38.349  1.00  0.00     0.152 C 
HETATM   22  C18 UNK     1      32.668  -8.912  36.140  1.00  0.00     0.152 C 
HETATM   23  C20 UNK     1      30.865  -7.917  38.113  1.00  0.00     0.187 C 
HETATM   24  O3  UNK     1      30.530  -9.032  37.283  1.00  0.00    -0.388 OA
HETATM   25  C21 UNK     1      31.151  -8.921  35.999  1.00  0.00     0.187 C 
ENDBRANCH  17  18
ENDBRANCH  16  17
ENDBRANCH  10  16
BRANCH   4  26
HETATM   26  C1  UNK     1      29.409  -9.709  29.108  1.00  0.00    -0.021 C 
HETATM   27  C6  UNK     1      28.303 -10.284  28.154  1.00  0.00     0.019 C 
HETATM   28  C7  UNK     1      30.099 -10.984  29.719  1.00  0.00     0.019 C 
HETATM   29  C8  UNK     1      30.510  -9.075  28.185  1.00  0.00     0.019 C 
ENDBRANCH   4  26
TORSDOF 4
ENDMDL
