MODEL 1
REMARK VINA RESULT:      -9.3      0.000      0.000
REMARK  2 active torsions:
REMARK  status: ('A' for Active; 'I' for Inactive)
REMARK       I    between atoms: C5_11  and  N1_6 
REMARK    1  A    between atoms: C7_13  and  N1_6 
REMARK    2  A    between atoms: C2_8  and  C5_11 
ROOT
HETATM    1  O2  UNK     1      21.279  -4.308  36.944  1.00  0.00    -0.267 OA
HETATM    2  N1  UNK     1      19.043  -5.035  36.823  1.00  0.00    -0.320 N 
HETATM    3  C5  UNK     1      20.082  -4.119  36.738  1.00  0.00     0.262 C 
HETATM    4  H4  UNK     1      18.101  -4.725  36.599  1.00  0.00     0.169 HD
ENDROOT
BRANCH   3   5
HETATM    5  C2  UNK     1      19.611  -2.784  36.348  1.00  0.00     0.108 A 
HETATM    6  C4  UNK     1      18.913  -2.110  37.269  1.00  0.00     0.037 A 
HETATM    7  C1  UNK     1      18.403  -0.780  36.973  1.00  0.00    -0.001 A 
HETATM    8  C3  UNK     1      18.655  -0.225  35.723  1.00  0.00     0.089 A 
HETATM    9  C6  UNK     1      17.670  -0.040  37.905  1.00  0.00     0.014 A 
HETATM   10  O1  UNK     1      19.391  -0.940  34.758  1.00  0.00    -0.274 OA
HETATM   11  C9  UNK     1      18.194   1.045  35.378  1.00  0.00     0.038 A 
HETATM   12  C8  UNK     1      19.891  -2.213  35.010  1.00  0.00     0.304 A 
HETATM   13  O3  UNK     1      20.529  -2.829  34.164  1.00  0.00    -0.259 OA
HETATM   14  C11 UNK     1      17.464   1.776  36.311  1.00  0.00     0.003 A 
HETATM   15  C10 UNK     1      17.203   1.235  37.572  1.00  0.00     0.001 A 
ENDBRANCH   3   5
BRANCH   2  16
HETATM   16  C7  UNK     1      19.126  -6.407  37.169  1.00  0.00     0.074 A 
HETATM   17  C12 UNK     1      18.875  -7.367  36.204  1.00  0.00     0.144 A 
HETATM   18  F1  UNK     1      18.553  -7.023  34.948  1.00  0.00    -0.204 F 
HETATM   19  C14 UNK     1      18.958  -8.716  36.547  1.00  0.00     0.063 A 
HETATM   20  C16 UNK     1      19.292  -9.085  37.851  1.00  0.00     0.014 A 
HETATM   21 Br1  UNK     1      19.404 -10.914  38.315  1.00  0.00    -0.051 Br
HETATM   22  C15 UNK     1      19.542  -8.104  38.811  1.00  0.00     0.021 A 
HETATM   23  C13 UNK     1      19.458  -6.755  38.467  1.00  0.00     0.034 A 
ENDBRANCH   2  16
TORSDOF 2
ENDMDL
MODEL 2
REMARK VINA RESULT:      -9.3      8.875     11.842
REMARK  2 active torsions:
REMARK  status: ('A' for Active; 'I' for Inactive)
REMARK       I    between atoms: C5_11  and  N1_6 
REMARK    1  A    between atoms: C7_13  and  N1_6 
REMARK    2  A    between atoms: C2_8  and  C5_11 
ROOT
HETATM    1  O2  UNK     1      17.623   3.296  32.848  1.00  0.00    -0.267 OA
HETATM    2  N1  UNK     1      18.747   4.786  31.412  1.00  0.00    -0.320 N 
HETATM    3  C5  UNK     1      18.295   3.549  31.850  1.00  0.00     0.262 C 
HETATM    4  H4  UNK     1      19.279   4.831  30.547  1.00  0.00     0.169 HD
ENDROOT
BRANCH   3   5
HETATM    5  C2  UNK     1      18.710   2.461  30.956  1.00  0.00     0.108 A 
HETATM    6  C4  UNK     1      19.144   1.342  31.548  1.00  0.00     0.037 A 
HETATM    7  C1  UNK     1      19.578   0.209  30.746  1.00  0.00    -0.001 A 
HETATM    8  C3  UNK     1      19.533   0.310  29.359  1.00  0.00     0.089 A 
HETATM    9  C6  UNK     1      20.038  -0.978  31.322  1.00  0.00     0.014 A 
HETATM   10  O1  UNK     1      19.076   1.490  28.742  1.00  0.00    -0.274 OA
HETATM   11  C9  UNK     1      19.936  -0.739  28.534  1.00  0.00     0.038 A 
HETATM   12  C8  UNK     1      18.654   2.590  29.482  1.00  0.00     0.304 A 
HETATM   13  O3  UNK     1      18.259   3.614  28.936  1.00  0.00    -0.259 OA
HETATM   14  C11 UNK     1      20.394  -1.919  29.116  1.00  0.00     0.003 A 
HETATM   15  C10 UNK     1      20.444  -2.039  30.507  1.00  0.00     0.001 A 
ENDBRANCH   3   5
BRANCH   2  16
HETATM   16  C7  UNK     1      18.536   6.048  32.021  1.00  0.00     0.074 A 
HETATM   17  C12 UNK     1      19.495   6.557  32.880  1.00  0.00     0.144 A 
HETATM   18  F1  UNK     1      20.619   5.877  33.149  1.00  0.00    -0.204 F 
HETATM   19  C14 UNK     1      19.284   7.799  33.477  1.00  0.00     0.063 A 
HETATM   20  C16 UNK     1      18.117   8.515  33.206  1.00  0.00     0.014 A 
HETATM   21 Br1  UNK     1      17.832  10.199  34.016  1.00  0.00    -0.051 Br
HETATM   22  C15 UNK     1      17.162   7.988  32.337  1.00  0.00     0.021 A 
HETATM   23  C13 UNK     1      17.373   6.745  31.740  1.00  0.00     0.034 A 
ENDBRANCH   2  16
TORSDOF 2
ENDMDL
MODEL 3
REMARK VINA RESULT:      -8.9      8.228     11.597
REMARK  2 active torsions:
REMARK  status: ('A' for Active; 'I' for Inactive)
REMARK       I    between atoms: C5_11  and  N1_6 
REMARK    1  A    between atoms: C7_13  and  N1_6 
REMARK    2  A    between atoms: C2_8  and  C5_11 
ROOT
HETATM    1  O2  UNK     1      18.329   4.553  30.420  1.00  0.00    -0.267 OA
HETATM    2  N1  UNK     1      17.938   4.485  32.741  1.00  0.00    -0.320 N 
HETATM    3  C5  UNK     1      18.280   3.966  31.500  1.00  0.00     0.262 C 
HETATM    4  H4  UNK     1      17.966   3.870  33.550  1.00  0.00     0.169 HD
ENDROOT
BRANCH   3   5
HETATM    5  C2  UNK     1      18.610   2.538  31.569  1.00  0.00     0.108 A 
HETATM    6  C4  UNK     1      19.180   2.009  30.479  1.00  0.00     0.037 A 
HETATM    7  C1  UNK     1      19.542   0.601  30.453  1.00  0.00    -0.001 A 
HETATM    8  C3  UNK     1      19.288  -0.182  31.574  1.00  0.00     0.089 A 
HETATM    9  C6  UNK     1      20.139   0.007  29.337  1.00  0.00     0.014 A 
HETATM   10  O1  UNK     1      18.688   0.381  32.718  1.00  0.00    -0.274 OA
HETATM   11  C9  UNK     1      19.611  -1.537  31.612  1.00  0.00     0.038 A 
HETATM   12  C8  UNK     1      18.330   1.724  32.774  1.00  0.00     0.304 A 
HETATM   13  O3  UNK     1      17.807   2.205  33.773  1.00  0.00    -0.259 OA
HETATM   14  C11 UNK     1      20.205  -2.122  30.496  1.00  0.00     0.003 A 
HETATM   15  C10 UNK     1      20.469  -1.351  29.361  1.00  0.00     0.001 A 
ENDBRANCH   3   5
BRANCH   2  16
HETATM   16  C7  UNK     1      17.567   5.818  33.049  1.00  0.00     0.074 A 
HETATM   17  C12 UNK     1      18.400   6.589  33.841  1.00  0.00     0.144 A 
HETATM   18  F1  UNK     1      19.551   6.099  34.324  1.00  0.00    -0.204 F 
HETATM   19  C14 UNK     1      18.031   7.899  34.142  1.00  0.00     0.063 A 
HETATM   20  C16 UNK     1      16.836   8.420  33.645  1.00  0.00     0.014 A 
HETATM   21 Br1  UNK     1      16.338  10.198  34.053  1.00  0.00    -0.051 Br
HETATM   22  C15 UNK     1      16.009   7.629  32.848  1.00  0.00     0.021 A 
HETATM   23  C13 UNK     1      16.378   6.318  32.547  1.00  0.00     0.034 A 
ENDBRANCH   2  16
TORSDOF 2
ENDMDL
MODEL 4
REMARK VINA RESULT:      -8.8      3.366      7.583
REMARK  2 active torsions:
REMARK  status: ('A' for Active; 'I' for Inactive)
REMARK       I    between atoms: C5_11  and  N1_6 
REMARK    1  A    between atoms: C7_13  and  N1_6 
REMARK    2  A    between atoms: C2_8  and  C5_11 
ROOT
HETATM    1  O2  UNK     1      21.315  -4.028  37.233  1.00  0.00    -0.267 OA
HETATM    2  N1  UNK     1      19.049  -3.924  36.600  1.00  0.00    -0.320 N 
HETATM    3  C5  UNK     1      20.246  -4.549  36.921  1.00  0.00     0.262 C 
HETATM    4  H4  UNK     1      18.241  -4.502  36.383  1.00  0.00     0.169 HD
ENDROOT
BRANCH   3   5
HETATM    5  C2  UNK     1      20.139  -6.012  36.860  1.00  0.00     0.108 A 
HETATM    6  C4  UNK     1      19.987  -6.644  38.030  1.00  0.00     0.037 A 
HETATM    7  C1  UNK     1      19.874  -8.093  38.071  1.00  0.00    -0.001 A 
HETATM    8  C3  UNK     1      19.927  -8.807  36.878  1.00  0.00     0.089 A 
HETATM    9  C6  UNK     1      19.714  -8.794  39.269  1.00  0.00     0.014 A 
HETATM   10  O1  UNK     1      20.088  -8.136  35.650  1.00  0.00    -0.274 OA
HETATM   11  C9  UNK     1      19.825 -10.197  36.849  1.00  0.00     0.038 A 
HETATM   12  C8  UNK     1      20.198  -6.751  35.578  1.00  0.00     0.304 A 
HETATM   13  O3  UNK     1      20.340  -6.175  34.505  1.00  0.00    -0.259 OA
HETATM   14  C11 UNK     1      19.666 -10.888  38.048  1.00  0.00     0.003 A 
HETATM   15  C10 UNK     1      19.610 -10.188  39.255  1.00  0.00     0.001 A 
ENDBRANCH   3   5
BRANCH   2  16
HETATM   16  C7  UNK     1      18.785  -2.532  36.559  1.00  0.00     0.074 A 
HETATM   17  C12 UNK     1      19.210  -1.793  35.468  1.00  0.00     0.144 A 
HETATM   18  F1  UNK     1      19.868  -2.368  34.451  1.00  0.00    -0.204 F 
HETATM   19  C14 UNK     1      18.949  -0.424  35.430  1.00  0.00     0.063 A 
HETATM   20  C16 UNK     1      18.265   0.186  36.483  1.00  0.00     0.014 A 
HETATM   21 Br1  UNK     1      17.912   2.042  36.430  1.00  0.00    -0.051 Br
HETATM   22  C15 UNK     1      17.844  -0.574  37.574  1.00  0.00     0.021 A 
HETATM   23  C13 UNK     1      18.106  -1.944  37.611  1.00  0.00     0.034 A 
ENDBRANCH   2  16
TORSDOF 2
ENDMDL
MODEL 5
REMARK VINA RESULT:      -8.4      7.328      9.382
REMARK  2 active torsions:
REMARK  status: ('A' for Active; 'I' for Inactive)
REMARK       I    between atoms: C5_11  and  N1_6 
REMARK    1  A    between atoms: C7_13  and  N1_6 
REMARK    2  A    between atoms: C2_8  and  C5_11 
ROOT
HETATM    1  O2  UNK     1      26.102  -9.169  39.207  1.00  0.00    -0.267 OA
HETATM    2  N1  UNK     1      24.686  -7.483  38.372  1.00  0.00    -0.320 N 
HETATM    3  C5  UNK     1      25.888  -8.028  38.802  1.00  0.00     0.262 C 
HETATM    4  H4  UNK     1      24.677  -6.521  38.044  1.00  0.00     0.169 HD
ENDROOT
BRANCH   3   5
HETATM    5  C2  UNK     1      26.989  -7.060  38.733  1.00  0.00     0.108 A 
HETATM    6  C4  UNK     1      28.219  -7.572  38.598  1.00  0.00     0.037 A 
HETATM    7  C1  UNK     1      29.374  -6.692  38.522  1.00  0.00    -0.001 A 
HETATM    8  C3  UNK     1      29.179  -5.317  38.592  1.00  0.00     0.089 A 
HETATM    9  C6  UNK     1      30.675  -7.183  38.380  1.00  0.00     0.014 A 
HETATM   10  O1  UNK     1      27.883  -4.784  38.736  1.00  0.00    -0.274 OA
HETATM   11  C9  UNK     1      30.244  -4.420  38.527  1.00  0.00     0.038 A 
HETATM   12  C8  UNK     1      26.758  -5.600  38.811  1.00  0.00     0.304 A 
HETATM   13  O3  UNK     1      25.633  -5.128  38.938  1.00  0.00    -0.259 OA
HETATM   14  C11 UNK     1      31.538  -4.917  38.385  1.00  0.00     0.003 A 
HETATM   15  C10 UNK     1      31.753  -6.295  38.311  1.00  0.00     0.001 A 
ENDBRANCH   3   5
BRANCH   2  16
HETATM   16  C7  UNK     1      23.423  -8.123  38.301  1.00  0.00     0.074 A 
HETATM   17  C12 UNK     1      22.522  -7.965  39.340  1.00  0.00     0.144 A 
HETATM   18  F1  UNK     1      22.822  -7.219  40.413  1.00  0.00    -0.204 F 
HETATM   19  C14 UNK     1      21.281  -8.597  39.267  1.00  0.00     0.063 A 
HETATM   20  C16 UNK     1      20.958  -9.376  38.155  1.00  0.00     0.014 A 
HETATM   21 Br1  UNK     1      19.275 -10.230  38.057  1.00  0.00    -0.051 Br
HETATM   22  C15 UNK     1      21.878  -9.524  37.117  1.00  0.00     0.021 A 
HETATM   23  C13 UNK     1      23.120  -8.893  37.191  1.00  0.00     0.034 A 
ENDBRANCH   2  16
TORSDOF 2
ENDMDL
MODEL 6
REMARK VINA RESULT:      -8.4     19.963     21.332
REMARK  2 active torsions:
REMARK  status: ('A' for Active; 'I' for Inactive)
REMARK       I    between atoms: C5_11  and  N1_6 
REMARK    1  A    between atoms: C7_13  and  N1_6 
REMARK    2  A    between atoms: C2_8  and  C5_11 
ROOT
HETATM    1  O2  UNK     1      17.752  -3.201  15.525  1.00  0.00    -0.267 OA
HETATM    2  N1  UNK     1      20.044  -3.107  14.993  1.00  0.00    -0.320 N 
HETATM    3  C5  UNK     1      18.835  -2.622  15.473  1.00  0.00     0.262 C 
HETATM    4  H4  UNK     1      20.863  -2.506  15.040  1.00  0.00     0.169 HD
ENDROOT
BRANCH   3   5
HETATM    5  C2  UNK     1      18.948  -1.243  15.963  1.00  0.00     0.108 A 
HETATM    6  C4  UNK     1      18.736  -1.061  17.272  1.00  0.00     0.037 A 
HETATM    7  C1  UNK     1      18.825   0.271  17.850  1.00  0.00    -0.001 A 
HETATM    8  C3  UNK     1      19.132   1.345  17.022  1.00  0.00     0.089 A 
HETATM    9  C6  UNK     1      18.612   0.507  19.210  1.00  0.00     0.014 A 
HETATM   10  O1  UNK     1      19.354   1.147  15.645  1.00  0.00    -0.274 OA
HETATM   11  C9  UNK     1      19.231   2.646  17.513  1.00  0.00     0.038 A 
HETATM   12  C8  UNK     1      19.276  -0.114  15.063  1.00  0.00     0.304 A 
HETATM   13  O3  UNK     1      19.469  -0.278  13.863  1.00  0.00    -0.259 OA
HETATM   14  C11 UNK     1      19.017   2.874  18.871  1.00  0.00     0.003 A 
HETATM   15  C10 UNK     1      18.709   1.806  19.718  1.00  0.00     0.001 A 
ENDBRANCH   3   5
BRANCH   2  16
HETATM   16  C7  UNK     1      20.306  -4.390  14.450  1.00  0.00     0.074 A 
HETATM   17  C12 UNK     1      19.990  -4.644  13.126  1.00  0.00     0.144 A 
HETATM   18  F1  UNK     1      19.440  -3.699  12.349  1.00  0.00    -0.204 F 
HETATM   19  C14 UNK     1      20.249  -5.906  12.595  1.00  0.00     0.063 A 
HETATM   20  C16 UNK     1      20.821  -6.897  13.394  1.00  0.00     0.014 A 
HETATM   21 Br1  UNK     1      21.171  -8.608  12.672  1.00  0.00    -0.051 Br
HETATM   22  C15 UNK     1      21.133  -6.623  14.725  1.00  0.00     0.021 A 
HETATM   23  C13 UNK     1      20.873  -5.360  15.257  1.00  0.00     0.034 A 
ENDBRANCH   2  16
TORSDOF 2
ENDMDL
MODEL 7
REMARK VINA RESULT:      -8.3     19.674     21.026
REMARK  2 active torsions:
REMARK  status: ('A' for Active; 'I' for Inactive)
REMARK       I    between atoms: C5_11  and  N1_6 
REMARK    1  A    between atoms: C7_13  and  N1_6 
REMARK    2  A    between atoms: C2_8  and  C5_11 
ROOT
HETATM    1  O2  UNK     1      20.335  -3.427  16.158  1.00  0.00    -0.267 OA
HETATM    2  N1  UNK     1      18.238  -3.213  15.109  1.00  0.00    -0.320 N 
HETATM    3  C5  UNK     1      19.354  -2.774  15.807  1.00  0.00     0.262 C 
HETATM    4  H4  UNK     1      17.514  -2.538  14.873  1.00  0.00     0.169 HD
ENDROOT
BRANCH   3   5
HETATM    5  C2  UNK     1      19.279  -1.343  16.127  1.00  0.00     0.108 A 
HETATM    6  C4  UNK     1      19.139  -1.033  17.421  1.00  0.00     0.037 A 
HETATM    7  C1  UNK     1      19.054   0.358  17.836  1.00  0.00    -0.001 A 
HETATM    8  C3  UNK     1      19.120   1.355  16.868  1.00  0.00     0.089 A 
HETATM    9  C6  UNK     1      18.909   0.728  19.176  1.00  0.00     0.014 A 
HETATM   10  O1  UNK     1      19.267   1.022  15.507  1.00  0.00    -0.274 OA
HETATM   11  C9  UNK     1      19.044   2.707  17.200  1.00  0.00     0.038 A 
HETATM   12  C8  UNK     1      19.351  -0.299  15.079  1.00  0.00     0.304 A 
HETATM   13  O3  UNK     1      19.477  -0.580  13.893  1.00  0.00    -0.259 OA
HETATM   14  C11 UNK     1      18.899   3.067  18.538  1.00  0.00     0.003 A 
HETATM   15  C10 UNK     1      18.832   2.080  19.524  1.00  0.00     0.001 A 
ENDBRANCH   3   5
BRANCH   2  16
HETATM   16  C7  UNK     1      17.973  -4.523  14.638  1.00  0.00     0.074 A 
HETATM   17  C12 UNK     1      17.156  -5.359  15.379  1.00  0.00     0.144 A 
HETATM   18  F1  UNK     1      16.611  -4.953  16.535  1.00  0.00    -0.204 F 
HETATM   19  C14 UNK     1      16.898  -6.647  14.913  1.00  0.00     0.063 A 
HETATM   20  C16 UNK     1      17.460  -7.081  13.712  1.00  0.00     0.014 A 
HETATM   21 Br1  UNK     1      17.108  -8.828  13.081  1.00  0.00    -0.051 Br
HETATM   22  C15 UNK     1      18.280  -6.226  12.978  1.00  0.00     0.021 A 
HETATM   23  C13 UNK     1      18.539  -4.937  13.444  1.00  0.00     0.034 A 
ENDBRANCH   2  16
TORSDOF 2
ENDMDL
MODEL 8
REMARK VINA RESULT:      -8.2      2.436      3.649
REMARK  2 active torsions:
REMARK  status: ('A' for Active; 'I' for Inactive)
REMARK       I    between atoms: C5_11  and  N1_6 
REMARK    1  A    between atoms: C7_13  and  N1_6 
REMARK    2  A    between atoms: C2_8  and  C5_11 
ROOT
HETATM    1  O2  UNK     1      20.387  -2.598  37.084  1.00  0.00    -0.267 OA
HETATM    2  N1  UNK     1      19.646  -4.392  35.750  1.00  0.00    -0.320 N 
HETATM    3  C5  UNK     1      19.957  -3.069  36.032  1.00  0.00     0.262 C 
HETATM    4  H4  UNK     1      19.318  -4.626  34.816  1.00  0.00     0.169 HD
ENDROOT
BRANCH   3   5
HETATM    5  C2  UNK     1      19.717  -2.187  34.884  1.00  0.00     0.108 A 
HETATM    6  C4  UNK     1      20.276  -2.558  33.726  1.00  0.00     0.037 A 
HETATM    7  C1  UNK     1      20.095  -1.746  32.533  1.00  0.00    -0.001 A 
HETATM    8  C3  UNK     1      19.335  -0.585  32.616  1.00  0.00     0.089 A 
HETATM    9  C6  UNK     1      20.660  -2.096  31.303  1.00  0.00     0.014 A 
HETATM   10  O1  UNK     1      18.749  -0.200  33.838  1.00  0.00    -0.274 OA
HETATM   11  C9  UNK     1      19.124   0.236  31.509  1.00  0.00     0.038 A 
HETATM   12  C8  UNK     1      18.904  -0.954  34.997  1.00  0.00     0.304 A 
HETATM   13  O3  UNK     1      18.392  -0.611  36.057  1.00  0.00    -0.259 OA
HETATM   14  C11 UNK     1      19.691  -0.119  30.287  1.00  0.00     0.003 A 
HETATM   15  C10 UNK     1      20.456  -1.283  30.184  1.00  0.00     0.001 A 
ENDBRANCH   3   5
BRANCH   2  16
HETATM   16  C7  UNK     1      19.756  -5.509  36.615  1.00  0.00     0.074 A 
HETATM   17  C12 UNK     1      18.630  -6.264  36.894  1.00  0.00     0.144 A 
HETATM   18  F1  UNK     1      17.437  -5.958  36.362  1.00  0.00    -0.204 F 
HETATM   19  C14 UNK     1      18.740  -7.363  37.745  1.00  0.00     0.063 A 
HETATM   20  C16 UNK     1      19.976  -7.691  38.305  1.00  0.00     0.014 A 
HETATM   21 Br1  UNK     1      20.124  -9.180  39.459  1.00  0.00    -0.051 Br
HETATM   22  C15 UNK     1      21.100  -6.919  38.013  1.00  0.00     0.021 A 
HETATM   23  C13 UNK     1      20.989  -5.819  37.161  1.00  0.00     0.034 A 
ENDBRANCH   2  16
TORSDOF 2
ENDMDL
MODEL 9
REMARK VINA RESULT:      -8.2      8.522     10.346
REMARK  2 active torsions:
REMARK  status: ('A' for Active; 'I' for Inactive)
REMARK       I    between atoms: C5_11  and  N1_6 
REMARK    1  A    between atoms: C7_13  and  N1_6 
REMARK    2  A    between atoms: C2_8  and  C5_11 
ROOT
HETATM    1  O2  UNK     1      19.782   5.257  31.231  1.00  0.00    -0.267 OA
HETATM    2  N1  UNK     1      18.138   3.665  31.787  1.00  0.00    -0.320 N 
HETATM    3  C5  UNK     1      18.738   4.917  31.785  1.00  0.00     0.262 C 
HETATM    4  H4  UNK     1      17.256   3.549  32.278  1.00  0.00     0.169 HD
ENDROOT
BRANCH   3   5
HETATM    5  C2  UNK     1      17.969   5.900  32.557  1.00  0.00     0.108 A 
HETATM    6  C4  UNK     1      16.760   6.215  32.077  1.00  0.00     0.037 A 
HETATM    7  C1  UNK     1      15.924   7.181  32.773  1.00  0.00    -0.001 A 
HETATM    8  C3  UNK     1      16.402   7.767  33.940  1.00  0.00     0.089 A 
HETATM    9  C6  UNK     1      14.656   7.539  32.308  1.00  0.00     0.014 A 
HETATM   10  O1  UNK     1      17.675   7.432  34.440  1.00  0.00    -0.274 OA
HETATM   11  C9  UNK     1      15.651   8.700  34.653  1.00  0.00     0.038 A 
HETATM   12  C8  UNK     1      18.498   6.512  33.798  1.00  0.00     0.304 A 
HETATM   13  O3  UNK     1      19.605   6.227  34.239  1.00  0.00    -0.259 OA
HETATM   14  C11 UNK     1      14.388   9.052  34.184  1.00  0.00     0.003 A 
HETATM   15  C10 UNK     1      13.891   8.472  33.014  1.00  0.00     0.001 A 
ENDBRANCH   3   5
BRANCH   2  16
HETATM   16  C7  UNK     1      18.596   2.486  31.147  1.00  0.00     0.074 A 
HETATM   17  C12 UNK     1      18.670   2.448  29.766  1.00  0.00     0.144 A 
HETATM   18  F1  UNK     1      18.314   3.505  29.020  1.00  0.00    -0.204 F 
HETATM   19  C14 UNK     1      19.120   1.286  29.140  1.00  0.00     0.063 A 
HETATM   20  C16 UNK     1      19.493   0.180  29.905  1.00  0.00     0.014 A 
HETATM   21 Br1  UNK     1      20.104  -1.393  29.055  1.00  0.00    -0.051 Br
HETATM   22  C15 UNK     1      19.412   0.237  31.296  1.00  0.00     0.021 A 
HETATM   23  C13 UNK     1      18.961   1.398  31.922  1.00  0.00     0.034 A 
ENDBRANCH   2  16
TORSDOF 2
ENDMDL
MODEL 10
REMARK VINA RESULT:      -8.0      8.204     10.771
REMARK  2 active torsions:
REMARK  status: ('A' for Active; 'I' for Inactive)
REMARK       I    between atoms: C5_11  and  N1_6 
REMARK    1  A    between atoms: C7_13  and  N1_6 
REMARK    2  A    between atoms: C2_8  and  C5_11 
ROOT
HETATM    1  O2  UNK     1      19.231   5.624  33.088  1.00  0.00    -0.267 OA
HETATM    2  N1  UNK     1      17.544   4.455  31.934  1.00  0.00    -0.320 N 
HETATM    3  C5  UNK     1      18.127   5.553  32.552  1.00  0.00     0.262 C 
HETATM    4  H4  UNK     1      16.624   4.564  31.515  1.00  0.00     0.169 HD
ENDROOT
BRANCH   3   5
HETATM    5  C2  UNK     1      17.256   6.734  32.518  1.00  0.00     0.108 A 
HETATM    6  C4  UNK     1      16.776   7.149  33.696  1.00  0.00     0.037 A 
HETATM    7  C1  UNK     1      15.903   8.311  33.763  1.00  0.00    -0.001 A 
HETATM    8  C3  UNK     1      15.578   8.977  32.587  1.00  0.00     0.089 A 
HETATM    9  C6  UNK     1      15.380   8.780  34.971  1.00  0.00     0.014 A 
HETATM   10  O1  UNK     1      16.085   8.535  31.349  1.00  0.00    -0.274 OA
HETATM   11  C9  UNK     1      14.746  10.096  32.583  1.00  0.00     0.038 A 
HETATM   12  C8  UNK     1      16.922   7.427  31.253  1.00  0.00     0.304 A 
HETATM   13  O3  UNK     1      17.358   7.048  30.172  1.00  0.00    -0.259 OA
HETATM   14  C11 UNK     1      14.228  10.557  33.791  1.00  0.00     0.003 A 
HETATM   15  C10 UNK     1      14.545   9.901  34.983  1.00  0.00     0.001 A 
ENDBRANCH   3   5
BRANCH   2  16
HETATM   16  C7  UNK     1      18.094   3.158  31.779  1.00  0.00     0.074 A 
HETATM   17  C12 UNK     1      18.600   2.777  30.548  1.00  0.00     0.144 A 
HETATM   18  F1  UNK     1      18.579   3.613  29.499  1.00  0.00    -0.204 F 
HETATM   19  C14 UNK     1      19.139   1.501  30.399  1.00  0.00     0.063 A 
HETATM   20  C16 UNK     1      19.166   0.623  31.483  1.00  0.00     0.014 A 
HETATM   21 Br1  UNK     1      19.898  -1.108  31.279  1.00  0.00    -0.051 Br
HETATM   22  C15 UNK     1      18.652   1.023  32.716  1.00  0.00     0.021 A 
HETATM   23  C13 UNK     1      18.112   2.300  32.865  1.00  0.00     0.034 A 
ENDBRANCH   2  16
TORSDOF 2
ENDMDL
