MODEL 1
REMARK VINA RESULT:      -9.2      0.000      0.000
REMARK  5 active torsions:
REMARK  status: ('A' for Active; 'I' for Inactive)
REMARK    1  A    between atoms: C13_20  and  O3_3 
REMARK    2  A    between atoms: C18_25  and  O3_3 
REMARK       I    between atoms: C12_19  and  N2_7 
REMARK    3  A    between atoms: C7_14  and  N2_7 
REMARK    4  A    between atoms: C1_8  and  C2_9 
REMARK    5  A    between atoms: C12_19  and  C9_16 
ROOT
HETATM    1  O2  UNK     1      19.178   1.157  28.699  1.00  0.00    -0.274 OA
HETATM    2  O5  UNK     1      18.328   3.278  28.756  1.00  0.00    -0.259 OA
HETATM    3  C8  UNK     1      19.629  -0.011  30.783  1.00  0.00     0.032 A 
HETATM    4  C9  UNK     1      18.727   2.236  30.846  1.00  0.00     0.108 A 
HETATM    5  C10 UNK     1      19.630   0.017  29.391  1.00  0.00     0.092 A 
HETATM    6  C11 UNK     1      19.155   1.156  31.509  1.00  0.00     0.040 A 
HETATM    7  C13 UNK     1      20.084  -1.160  31.434  1.00  0.00     0.081 A 
HETATM    8  C14 UNK     1      18.719   2.289  29.367  1.00  0.00     0.304 A 
HETATM    9  C15 UNK     1      20.072  -1.067  28.636  1.00  0.00     0.038 A 
HETATM   10  C16 UNK     1      20.529  -2.256  30.689  1.00  0.00     0.038 A 
HETATM   11  C17 UNK     1      20.524  -2.209  29.293  1.00  0.00     0.006 A 
ENDROOT
BRANCH   4  12
HETATM   12  C12 UNK     1      18.268   3.364  31.667  1.00  0.00     0.263 C 
HETATM   13  O4  UNK     1      17.595   3.150  32.673  1.00  0.00    -0.267 OA
HETATM   14  N2  UNK     1      18.686   4.584  31.156  1.00  0.00    -0.305 N 
HETATM   15  H11 UNK     1      19.227   4.614  30.297  1.00  0.00     0.170 HD
BRANCH  14  16
HETATM   16  C7  UNK     1      18.428   5.856  31.686  1.00  0.00     0.160 A 
HETATM   17  C6  UNK     1      18.780   6.246  32.976  1.00  0.00     0.088 A 
HETATM   18  C2  UNK     1      18.336   7.540  33.041  1.00  0.00     0.090 A 
HETATM   19  O1  UNK     1      17.759   7.884  31.861  1.00  0.00    -0.215 OA
HETATM   20  N1  UNK     1      17.818   6.803  30.989  1.00  0.00    -0.110 NA
BRANCH  18  21
HETATM   21  C1  UNK     1      18.360   8.572  34.084  1.00  0.00     0.000 C 
HETATM   22  C3  UNK     1      19.823   8.969  34.506  1.00  0.00     0.021 C 
HETATM   23  C4  UNK     1      17.625   8.118  35.399  1.00  0.00     0.021 C 
HETATM   24  C5  UNK     1      17.678   9.945  33.713  1.00  0.00     0.021 C 
ENDBRANCH  18  21
ENDBRANCH  14  16
ENDBRANCH   4  12
BRANCH   7  25
HETATM   25  O3  UNK     1      20.106  -1.248  32.795  1.00  0.00    -0.351 OA
BRANCH  25  26
HETATM   26  C18 UNK     1      20.485  -2.504  33.354  1.00  0.00     0.171 C 
HETATM   27  C19 UNK     1      20.158  -2.502  34.833  1.00  0.00     0.034 C 
ENDBRANCH  25  26
ENDBRANCH   7  25
TORSDOF 5
ENDMDL
MODEL 2
REMARK VINA RESULT:      -8.9      3.976      9.501
REMARK  5 active torsions:
REMARK  status: ('A' for Active; 'I' for Inactive)
REMARK    1  A    between atoms: C13_20  and  O3_3 
REMARK    2  A    between atoms: C18_25  and  O3_3 
REMARK       I    between atoms: C12_19  and  N2_7 
REMARK    3  A    between atoms: C7_14  and  N2_7 
REMARK    4  A    between atoms: C1_8  and  C2_9 
REMARK    5  A    between atoms: C12_19  and  C9_16 
ROOT
HETATM    1  O2  UNK     1      18.344   2.806  35.660  1.00  0.00    -0.274 OA
HETATM    2  O5  UNK     1      18.366   1.295  37.374  1.00  0.00    -0.259 OA
HETATM    3  C8  UNK     1      18.328   2.013  33.362  1.00  0.00     0.032 A 
HETATM    4  C9  UNK     1      18.350   0.409  35.177  1.00  0.00     0.108 A 
HETATM    5  C10 UNK     1      18.331   3.063  34.275  1.00  0.00     0.092 A 
HETATM    6  C11 UNK     1      18.338   0.647  33.861  1.00  0.00     0.040 A 
HETATM    7  C13 UNK     1      18.314   2.307  31.997  1.00  0.00     0.081 A 
HETATM    8  C14 UNK     1      18.355   1.510  36.167  1.00  0.00     0.304 A 
HETATM    9  C15 UNK     1      18.323   4.393  33.863  1.00  0.00     0.038 A 
HETATM   10  C16 UNK     1      18.305   3.638  31.568  1.00  0.00     0.038 A 
HETATM   11  C17 UNK     1      18.310   4.679  32.499  1.00  0.00     0.006 A 
ENDROOT
BRANCH   4  12
HETATM   12  C12 UNK     1      18.360  -1.002  35.583  1.00  0.00     0.263 C 
HETATM   13  O4  UNK     1      17.321  -1.531  35.973  1.00  0.00    -0.267 OA
HETATM   14  N2  UNK     1      19.620  -1.571  35.462  1.00  0.00    -0.305 N 
HETATM   15  H11 UNK     1      20.400  -1.005  35.141  1.00  0.00     0.170 HD
BRANCH  14  16
HETATM   16  C7  UNK     1      19.985  -2.890  35.760  1.00  0.00     0.160 A 
HETATM   17  C6  UNK     1      20.249  -3.351  37.048  1.00  0.00     0.088 A 
HETATM   18  C2  UNK     1      20.557  -4.670  36.849  1.00  0.00     0.090 A 
HETATM   19  O1  UNK     1      20.478  -4.962  35.525  1.00  0.00    -0.215 OA
HETATM   20  N1  UNK     1      20.110  -3.819  34.825  1.00  0.00    -0.110 NA
BRANCH  18  21
HETATM   21  C1  UNK     1      20.936  -5.771  37.741  1.00  0.00     0.000 C 
HETATM   22  C3  UNK     1      22.279  -5.489  38.511  1.00  0.00     0.021 C 
HETATM   23  C4  UNK     1      21.140  -7.129  36.973  1.00  0.00     0.021 C 
HETATM   24  C5  UNK     1      19.904  -6.124  38.882  1.00  0.00     0.021 C 
ENDBRANCH  18  21
ENDBRANCH  14  16
ENDBRANCH   4  12
BRANCH   7  25
HETATM   25  O3  UNK     1      18.309   1.321  31.053  1.00  0.00    -0.351 OA
BRANCH  25  26
HETATM   26  C18 UNK     1      18.941   1.615  29.810  1.00  0.00     0.171 C 
HETATM   27  C19 UNK     1      17.924   1.476  28.696  1.00  0.00     0.034 C 
ENDBRANCH  25  26
ENDBRANCH   7  25
TORSDOF 5
ENDMDL
MODEL 3
REMARK VINA RESULT:      -8.8      4.409      9.850
REMARK  5 active torsions:
REMARK  status: ('A' for Active; 'I' for Inactive)
REMARK    1  A    between atoms: C13_20  and  O3_3 
REMARK    2  A    between atoms: C18_25  and  O3_3 
REMARK       I    between atoms: C12_19  and  N2_7 
REMARK    3  A    between atoms: C7_14  and  N2_7 
REMARK    4  A    between atoms: C1_8  and  C2_9 
REMARK    5  A    between atoms: C12_19  and  C9_16 
ROOT
HETATM    1  O2  UNK     1      18.178   2.169  36.055  1.00  0.00    -0.274 OA
HETATM    2  O5  UNK     1      18.186   0.731  37.830  1.00  0.00    -0.259 OA
HETATM    3  C8  UNK     1      18.362   1.288  33.796  1.00  0.00     0.032 A 
HETATM    4  C9  UNK     1      18.370  -0.239  35.677  1.00  0.00     0.108 A 
HETATM    5  C10 UNK     1      18.238   2.370  34.662  1.00  0.00     0.092 A 
HETATM    6  C11 UNK     1      18.428  -0.054  34.353  1.00  0.00     0.040 A 
HETATM    7  C13 UNK     1      18.419   1.527  32.422  1.00  0.00     0.081 A 
HETATM    8  C14 UNK     1      18.239   0.897  36.617  1.00  0.00     0.304 A 
HETATM    9  C15 UNK     1      18.171   3.681  34.193  1.00  0.00     0.038 A 
HETATM   10  C16 UNK     1      18.351   2.837  31.936  1.00  0.00     0.038 A 
HETATM   11  C17 UNK     1      18.228   3.911  32.820  1.00  0.00     0.006 A 
ENDROOT
BRANCH   4  12
HETATM   12  C12 UNK     1      18.445  -1.629  36.143  1.00  0.00     0.263 C 
HETATM   13  O4  UNK     1      17.468  -2.144  36.684  1.00  0.00    -0.267 OA
HETATM   14  N2  UNK     1      19.685  -2.198  35.891  1.00  0.00    -0.305 N 
HETATM   15  H11 UNK     1      20.414  -1.645  35.449  1.00  0.00     0.170 HD
BRANCH  14  16
HETATM   16  C7  UNK     1      20.098  -3.501  36.201  1.00  0.00     0.160 A 
HETATM   17  C6  UNK     1      20.422  -3.926  37.487  1.00  0.00     0.088 A 
HETATM   18  C2  UNK     1      20.759  -5.241  37.303  1.00  0.00     0.090 A 
HETATM   19  O1  UNK     1      20.640  -5.563  35.989  1.00  0.00    -0.215 OA
HETATM   20  N1  UNK     1      20.215  -4.445  35.280  1.00  0.00    -0.110 NA
BRANCH  18  21
HETATM   21  C1  UNK     1      21.202  -6.313  38.202  1.00  0.00     0.000 C 
HETATM   22  C3  UNK     1      20.196  -6.561  39.386  1.00  0.00     0.021 C 
HETATM   23  C4  UNK     1      22.598  -6.010  38.861  1.00  0.00     0.021 C 
HETATM   24  C5  UNK     1      21.385  -7.735  37.545  1.00  0.00     0.021 C 
ENDBRANCH  18  21
ENDBRANCH  14  16
ENDBRANCH   4  12
BRANCH   7  25
HETATM   25  O3  UNK     1      18.539   0.508  31.523  1.00  0.00    -0.351 OA
BRANCH  25  26
HETATM   26  C18 UNK     1      19.426   0.715  30.426  1.00  0.00     0.171 C 
HETATM   27  C19 UNK     1      20.603  -0.229  30.561  1.00  0.00     0.034 C 
ENDBRANCH  25  26
ENDBRANCH   7  25
TORSDOF 5
ENDMDL
MODEL 4
REMARK VINA RESULT:      -8.7      6.375      9.976
REMARK  5 active torsions:
REMARK  status: ('A' for Active; 'I' for Inactive)
REMARK    1  A    between atoms: C13_20  and  O3_3 
REMARK    2  A    between atoms: C18_25  and  O3_3 
REMARK       I    between atoms: C12_19  and  N2_7 
REMARK    3  A    between atoms: C7_14  and  N2_7 
REMARK    4  A    between atoms: C1_8  and  C2_9 
REMARK    5  A    between atoms: C12_19  and  C9_16 
ROOT
HETATM    1  O2  UNK     1      18.639  -8.109  36.930  1.00  0.00    -0.274 OA
HETATM    2  O5  UNK     1      17.580  -6.094  37.122  1.00  0.00    -0.259 OA
HETATM    3  C8  UNK     1      21.067  -8.184  36.830  1.00  0.00     0.032 A 
HETATM    4  C9  UNK     1      19.947  -6.046  37.034  1.00  0.00     0.108 A 
HETATM    5  C10 UNK     1      19.839  -8.839  36.828  1.00  0.00     0.092 A 
HETATM    6  C11 UNK     1      21.091  -6.734  36.938  1.00  0.00     0.040 A 
HETATM    7  C13 UNK     1      22.236  -8.942  36.728  1.00  0.00     0.081 A 
HETATM    8  C14 UNK     1      18.630  -6.721  37.034  1.00  0.00     0.304 A 
HETATM    9  C15 UNK     1      19.748 -10.226  36.727  1.00  0.00     0.038 A 
HETATM   10  C16 UNK     1      22.160 -10.335  36.626  1.00  0.00     0.038 A 
HETATM   11  C17 UNK     1      20.918 -10.975  36.625  1.00  0.00     0.006 A 
ENDROOT
BRANCH   4  12
HETATM   12  C12 UNK     1      20.073  -4.587  37.139  1.00  0.00     0.263 C 
HETATM   13  O4  UNK     1      20.919  -4.100  37.886  1.00  0.00    -0.267 OA
HETATM   14  N2  UNK     1      19.161  -3.926  36.328  1.00  0.00    -0.305 N 
HETATM   15  H11 UNK     1      18.501  -4.460  35.771  1.00  0.00     0.170 HD
BRANCH  14  16
HETATM   16  C7  UNK     1      19.006  -2.541  36.183  1.00  0.00     0.160 A 
HETATM   17  C6  UNK     1      17.954  -1.815  36.736  1.00  0.00     0.088 A 
HETATM   18  C2  UNK     1      18.219  -0.531  36.338  1.00  0.00     0.090 A 
HETATM   19  O1  UNK     1      19.356  -0.510  35.596  1.00  0.00    -0.215 OA
HETATM   20  N1  UNK     1      19.863  -1.800  35.496  1.00  0.00    -0.110 NA
BRANCH  18  21
HETATM   21  C1  UNK     1      17.546   0.756  36.545  1.00  0.00     0.000 C 
HETATM   22  C3  UNK     1      16.013   0.698  36.199  1.00  0.00     0.021 C 
HETATM   23  C4  UNK     1      18.159   1.906  35.663  1.00  0.00     0.021 C 
HETATM   24  C5  UNK     1      17.590   1.331  38.014  1.00  0.00     0.021 C 
ENDBRANCH  18  21
ENDBRANCH  14  16
ENDBRANCH   4  12
BRANCH   7  25
HETATM   25  O3  UNK     1      23.469  -8.358  36.725  1.00  0.00    -0.351 OA
BRANCH  25  26
HETATM   26  C18 UNK     1      24.353  -8.712  37.785  1.00  0.00     0.171 C 
HETATM   27  C19 UNK     1      24.065  -7.831  38.982  1.00  0.00     0.034 C 
ENDBRANCH  25  26
ENDBRANCH   7  25
TORSDOF 5
ENDMDL
MODEL 5
REMARK VINA RESULT:      -8.6      3.601      9.427
REMARK  5 active torsions:
REMARK  status: ('A' for Active; 'I' for Inactive)
REMARK    1  A    between atoms: C13_20  and  O3_3 
REMARK    2  A    between atoms: C18_25  and  O3_3 
REMARK       I    between atoms: C12_19  and  N2_7 
REMARK    3  A    between atoms: C7_14  and  N2_7 
REMARK    4  A    between atoms: C1_8  and  C2_9 
REMARK    5  A    between atoms: C12_19  and  C9_16 
ROOT
HETATM    1  O2  UNK     1      19.911   8.365  33.799  1.00  0.00    -0.274 OA
HETATM    2  O5  UNK     1      20.591   6.213  33.444  1.00  0.00    -0.259 OA
HETATM    3  C8  UNK     1      17.537   8.892  33.784  1.00  0.00     0.032 A 
HETATM    4  C9  UNK     1      18.255   6.609  33.408  1.00  0.00     0.108 A 
HETATM    5  C10 UNK     1      18.862   9.298  33.918  1.00  0.00     0.092 A 
HETATM    6  C11 UNK     1      17.254   7.490  33.520  1.00  0.00     0.040 A 
HETATM    7  C13 UNK     1      16.524   9.845  33.909  1.00  0.00     0.081 A 
HETATM    8  C14 UNK     1      19.671   7.018  33.546  1.00  0.00     0.304 A 
HETATM    9  C15 UNK     1      19.200  10.625  34.170  1.00  0.00     0.038 A 
HETATM   10  C16 UNK     1      16.849  11.181  34.163  1.00  0.00     0.038 A 
HETATM   11  C17 UNK     1      18.184  11.571  34.293  1.00  0.00     0.006 A 
ENDROOT
BRANCH   4  12
HETATM   12  C12 UNK     1      17.870   5.218  33.141  1.00  0.00     0.263 C 
HETATM   13  O4  UNK     1      17.195   4.952  32.149  1.00  0.00    -0.267 OA
HETATM   14  N2  UNK     1      18.355   4.348  34.108  1.00  0.00    -0.305 N 
HETATM   15  H11 UNK     1      18.889   4.711  34.892  1.00  0.00     0.170 HD
BRANCH  14  16
HETATM   16  C7  UNK     1      18.176   2.959  34.162  1.00  0.00     0.160 A 
HETATM   17  C6  UNK     1      18.199   2.218  35.342  1.00  0.00     0.088 A 
HETATM   18  C2  UNK     1      17.985   0.937  34.908  1.00  0.00     0.090 A 
HETATM   19  O1  UNK     1      17.848   0.930  33.557  1.00  0.00    -0.215 OA
HETATM   20  N1  UNK     1      17.970   2.228  33.077  1.00  0.00    -0.110 NA
BRANCH  18  21
HETATM   21  C1  UNK     1      17.883  -0.361  35.584  1.00  0.00     0.000 C 
HETATM   22  C3  UNK     1      19.071  -1.327  35.219  1.00  0.00     0.021 C 
HETATM   23  C4  UNK     1      16.558  -1.128  35.223  1.00  0.00     0.021 C 
HETATM   24  C5  UNK     1      17.889  -0.321  37.162  1.00  0.00     0.021 C 
ENDBRANCH  18  21
ENDBRANCH  14  16
ENDBRANCH   4  12
BRANCH   7  25
HETATM   25  O3  UNK     1      15.208   9.509  33.789  1.00  0.00    -0.351 OA
BRANCH  25  26
HETATM   26  C18 UNK     1      14.256  10.420  34.335  1.00  0.00     0.171 C 
HETATM   27  C19 UNK     1      13.316  10.867  33.235  1.00  0.00     0.034 C 
ENDBRANCH  25  26
ENDBRANCH   7  25
TORSDOF 5
ENDMDL
MODEL 6
REMARK VINA RESULT:      -8.5      1.458      2.438
REMARK  5 active torsions:
REMARK  status: ('A' for Active; 'I' for Inactive)
REMARK    1  A    between atoms: C13_20  and  O3_3 
REMARK    2  A    between atoms: C18_25  and  O3_3 
REMARK       I    between atoms: C12_19  and  N2_7 
REMARK    3  A    between atoms: C7_14  and  N2_7 
REMARK    4  A    between atoms: C1_8  and  C2_9 
REMARK    5  A    between atoms: C12_19  and  C9_16 
ROOT
HETATM    1  O2  UNK     1      20.193  -1.306  29.229  1.00  0.00    -0.274 OA
HETATM    2  O5  UNK     1      19.428   0.403  27.920  1.00  0.00    -0.259 OA
HETATM    3  C8  UNK     1      19.901  -1.194  31.640  1.00  0.00     0.032 A 
HETATM    4  C9  UNK     1      19.087   0.619  30.254  1.00  0.00     0.108 A 
HETATM    5  C10 UNK     1      20.361  -1.865  30.511  1.00  0.00     0.092 A 
HETATM    6  C11 UNK     1      19.244   0.093  31.474  1.00  0.00     0.040 A 
HETATM    7  C13 UNK     1      20.085  -1.780  32.894  1.00  0.00     0.081 A 
HETATM    8  C14 UNK     1      19.569  -0.076  29.039  1.00  0.00     0.304 A 
HETATM    9  C15 UNK     1      20.999  -3.100  30.601  1.00  0.00     0.038 A 
HETATM   10  C16 UNK     1      20.723  -3.020  33.000  1.00  0.00     0.038 A 
HETATM   11  C17 UNK     1      21.179  -3.678  31.856  1.00  0.00     0.006 A 
ENDROOT
BRANCH   4  12
HETATM   12  C12 UNK     1      18.414   1.921  30.189  1.00  0.00     0.263 C 
HETATM   13  O4  UNK     1      17.355   2.029  29.573  1.00  0.00    -0.267 OA
HETATM   14  N2  UNK     1      19.113   2.905  30.874  1.00  0.00    -0.305 N 
HETATM   15  H11 UNK     1      19.993   2.677  31.326  1.00  0.00     0.170 HD
BRANCH  14  16
HETATM   16  C7  UNK     1      18.757   4.253  31.015  1.00  0.00     0.160 A 
HETATM   17  C6  UNK     1      18.048   4.759  32.102  1.00  0.00     0.088 A 
HETATM   18  C2  UNK     1      17.938   6.092  31.806  1.00  0.00     0.090 A 
HETATM   19  O1  UNK     1      18.544   6.348  30.618  1.00  0.00    -0.215 OA
HETATM   20  N1  UNK     1      19.071   5.167  30.109  1.00  0.00    -0.110 NA
BRANCH  18  21
HETATM   21  C1  UNK     1      17.322   7.237  32.488  1.00  0.00     0.000 C 
HETATM   22  C3  UNK     1      16.386   6.800  33.674  1.00  0.00     0.021 C 
HETATM   23  C4  UNK     1      16.440   8.112  31.523  1.00  0.00     0.021 C 
HETATM   24  C5  UNK     1      18.320   8.270  33.142  1.00  0.00     0.021 C 
ENDBRANCH  18  21
ENDBRANCH  14  16
ENDBRANCH   4  12
BRANCH   7  25
HETATM   25  O3  UNK     1      19.656  -1.172  34.037  1.00  0.00    -0.351 OA
BRANCH  25  26
HETATM   26  C18 UNK     1      19.729  -1.934  35.240  1.00  0.00     0.171 C 
HETATM   27  C19 UNK     1      18.710  -1.399  36.225  1.00  0.00     0.034 C 
ENDBRANCH  25  26
ENDBRANCH   7  25
TORSDOF 5
ENDMDL
MODEL 7
REMARK VINA RESULT:      -8.5     14.287     17.388
REMARK  5 active torsions:
REMARK  status: ('A' for Active; 'I' for Inactive)
REMARK    1  A    between atoms: C13_20  and  O3_3 
REMARK    2  A    between atoms: C18_25  and  O3_3 
REMARK       I    between atoms: C12_19  and  N2_7 
REMARK    3  A    between atoms: C7_14  and  N2_7 
REMARK    4  A    between atoms: C1_8  and  C2_9 
REMARK    5  A    between atoms: C12_19  and  C9_16 
ROOT
HETATM    1  O2  UNK     1      19.000  -5.171  12.190  1.00  0.00    -0.274 OA
HETATM    2  O5  UNK     1      20.165  -3.207  12.285  1.00  0.00    -0.259 OA
HETATM    3  C8  UNK     1      18.075  -6.117  14.229  1.00  0.00     0.032 A 
HETATM    4  C9  UNK     1      19.309  -4.035  14.333  1.00  0.00     0.108 A 
HETATM    5  C10 UNK     1      18.277  -6.180  12.854  1.00  0.00     0.092 A 
HETATM    6  C11 UNK     1      18.623  -4.991  14.969  1.00  0.00     0.040 A 
HETATM    7  C13 UNK     1      17.353  -7.137  14.852  1.00  0.00     0.081 A 
HETATM    8  C14 UNK     1      19.537  -4.081  12.871  1.00  0.00     0.304 A 
HETATM    9  C15 UNK     1      17.780  -7.232  12.087  1.00  0.00     0.038 A 
HETATM   10  C16 UNK     1      16.846  -8.198  14.096  1.00  0.00     0.038 A 
HETATM   11  C17 UNK     1      17.060  -8.246  12.716  1.00  0.00     0.006 A 
ENDROOT
BRANCH   4  12
HETATM   12  C12 UNK     1      19.822  -2.940  15.165  1.00  0.00     0.263 C 
HETATM   13  O4  UNK     1      21.024  -2.880  15.419  1.00  0.00    -0.267 OA
HETATM   14  N2  UNK     1      18.815  -2.076  15.571  1.00  0.00    -0.305 N 
HETATM   15  H11 UNK     1      17.853  -2.260  15.299  1.00  0.00     0.170 HD
BRANCH  14  16
HETATM   16  C7  UNK     1      18.951  -0.932  16.368  1.00  0.00     0.160 A 
HETATM   17  C6  UNK     1      18.897  -0.945  17.760  1.00  0.00     0.088 A 
HETATM   18  C2  UNK     1      19.075   0.373  18.090  1.00  0.00     0.090 A 
HETATM   19  O1  UNK     1      19.224   1.110  16.959  1.00  0.00    -0.215 OA
HETATM   20  N1  UNK     1      19.144   0.272  15.852  1.00  0.00    -0.110 NA
BRANCH  18  21
HETATM   21  C1  UNK     1      19.133   1.104  19.361  1.00  0.00     0.000 C 
HETATM   22  C3  UNK     1      19.441   2.634  19.163  1.00  0.00     0.021 C 
HETATM   23  C4  UNK     1      20.242   0.547  20.328  1.00  0.00     0.021 C 
HETATM   24  C5  UNK     1      17.816   1.083  20.230  1.00  0.00     0.021 C 
ENDBRANCH  18  21
ENDBRANCH  14  16
ENDBRANCH   4  12
BRANCH   7  25
HETATM   25  O3  UNK     1      17.121  -7.130  16.197  1.00  0.00    -0.351 OA
BRANCH  25  26
HETATM   26  C18 UNK     1      15.812  -6.761  16.624  1.00  0.00     0.171 C 
HETATM   27  C19 UNK     1      15.827  -6.544  18.123  1.00  0.00     0.034 C 
ENDBRANCH  25  26
ENDBRANCH   7  25
TORSDOF 5
ENDMDL
MODEL 8
REMARK VINA RESULT:      -8.5      5.546     11.383
REMARK  5 active torsions:
REMARK  status: ('A' for Active; 'I' for Inactive)
REMARK    1  A    between atoms: C13_20  and  O3_3 
REMARK    2  A    between atoms: C18_25  and  O3_3 
REMARK       I    between atoms: C12_19  and  N2_7 
REMARK    3  A    between atoms: C7_14  and  N2_7 
REMARK    4  A    between atoms: C1_8  and  C2_9 
REMARK    5  A    between atoms: C12_19  and  C9_16 
ROOT
HETATM    1  O2  UNK     1      18.309  -0.136  37.172  1.00  0.00    -0.274 OA
HETATM    2  O5  UNK     1      18.758  -1.912  38.537  1.00  0.00    -0.259 OA
HETATM    3  C8  UNK     1      18.750  -0.313  34.787  1.00  0.00     0.032 A 
HETATM    4  C9  UNK     1      19.225  -2.199  36.232  1.00  0.00     0.108 A 
HETATM    5  C10 UNK     1      18.303   0.425  35.880  1.00  0.00     0.092 A 
HETATM    6  C11 UNK     1      19.222  -1.672  35.002  1.00  0.00     0.040 A 
HETATM    7  C13 UNK     1      18.729   0.276  33.522  1.00  0.00     0.081 A 
HETATM    8  C14 UNK     1      18.756  -1.433  37.409  1.00  0.00     0.304 A 
HETATM    9  C15 UNK     1      17.839   1.731  35.742  1.00  0.00     0.038 A 
HETATM   10  C16 UNK     1      18.264   1.586  33.368  1.00  0.00     0.038 A 
HETATM   11  C17 UNK     1      17.821   2.312  34.476  1.00  0.00     0.006 A 
ENDROOT
BRANCH   4  12
HETATM   12  C12 UNK     1      19.721  -3.576  36.349  1.00  0.00     0.263 C 
HETATM   13  O4  UNK     1      20.928  -3.797  36.280  1.00  0.00    -0.267 OA
HETATM   14  N2  UNK     1      18.690  -4.487  36.531  1.00  0.00    -0.305 N 
HETATM   15  H11 UNK     1      17.727  -4.163  36.549  1.00  0.00     0.170 HD
BRANCH  14  16
HETATM   16  C7  UNK     1      18.805  -5.876  36.678  1.00  0.00     0.160 A 
HETATM   17  C6  UNK     1      19.682  -6.492  37.568  1.00  0.00     0.088 A 
HETATM   18  C2  UNK     1      19.445  -7.826  37.363  1.00  0.00     0.090 A 
HETATM   19  O1  UNK     1      18.489  -7.978  36.411  1.00  0.00    -0.215 OA
HETATM   20  N1  UNK     1      18.077  -6.726  35.970  1.00  0.00    -0.110 NA
BRANCH  18  21
HETATM   21  C1  UNK     1      19.997  -9.056  37.941  1.00  0.00     0.000 C 
HETATM   22  C3  UNK     1      19.198 -10.339  37.504  1.00  0.00     0.021 C 
HETATM   23  C4  UNK     1      19.990  -9.041  39.514  1.00  0.00     0.021 C 
HETATM   24  C5  UNK     1      21.494  -9.386  37.565  1.00  0.00     0.021 C 
ENDBRANCH  18  21
ENDBRANCH  14  16
ENDBRANCH   4  12
BRANCH   7  25
HETATM   25  O3  UNK     1      19.152  -0.396  32.413  1.00  0.00    -0.351 OA
BRANCH  25  26
HETATM   26  C18 UNK     1      19.380   0.377  31.237  1.00  0.00     0.171 C 
HETATM   27  C19 UNK     1      20.575  -0.190  30.499  1.00  0.00     0.034 C 
ENDBRANCH  25  26
ENDBRANCH   7  25
TORSDOF 5
ENDMDL
MODEL 9
REMARK VINA RESULT:      -8.4     13.581     15.918
REMARK  5 active torsions:
REMARK  status: ('A' for Active; 'I' for Inactive)
REMARK    1  A    between atoms: C13_20  and  O3_3 
REMARK    2  A    between atoms: C18_25  and  O3_3 
REMARK       I    between atoms: C12_19  and  N2_7 
REMARK    3  A    between atoms: C7_14  and  N2_7 
REMARK    4  A    between atoms: C1_8  and  C2_9 
REMARK    5  A    between atoms: C12_19  and  C9_16 
ROOT
HETATM    1  O2  UNK     1      27.874  -4.740  38.698  1.00  0.00    -0.274 OA
HETATM    2  O5  UNK     1      25.626  -5.086  38.922  1.00  0.00    -0.259 OA
HETATM    3  C8  UNK     1      29.367  -6.647  38.494  1.00  0.00     0.032 A 
HETATM    4  C9  UNK     1      26.985  -7.017  38.730  1.00  0.00     0.108 A 
HETATM    5  C10 UNK     1      29.170  -5.270  38.551  1.00  0.00     0.092 A 
HETATM    6  C11 UNK     1      28.214  -7.527  38.590  1.00  0.00     0.040 A 
HETATM    7  C13 UNK     1      30.667  -7.136  38.347  1.00  0.00     0.081 A 
HETATM    8  C14 UNK     1      26.751  -5.557  38.793  1.00  0.00     0.304 A 
HETATM    9  C15 UNK     1      30.232  -4.373  38.466  1.00  0.00     0.038 A 
HETATM   10  C16 UNK     1      31.743  -6.247  38.259  1.00  0.00     0.038 A 
HETATM   11  C17 UNK     1      31.526  -4.868  38.319  1.00  0.00     0.006 A 
ENDROOT
BRANCH   4  12
HETATM   12  C12 UNK     1      25.885  -7.985  38.819  1.00  0.00     0.263 C 
HETATM   13  O4  UNK     1      26.135  -9.180  38.964  1.00  0.00    -0.267 OA
HETATM   14  N2  UNK     1      24.643  -7.374  38.719  1.00  0.00    -0.305 N 
HETATM   15  H11 UNK     1      24.585  -6.370  38.580  1.00  0.00     0.170 HD
BRANCH  14  16
HETATM   16  C7  UNK     1      23.388  -7.996  38.764  1.00  0.00     0.160 A 
HETATM   17  C6  UNK     1      22.733  -8.506  37.644  1.00  0.00     0.088 A 
HETATM   18  C2  UNK     1      21.569  -9.004  38.167  1.00  0.00     0.090 A 
HETATM   19  O1  UNK     1      21.545  -8.796  39.508  1.00  0.00    -0.215 OA
HETATM   20  N1  UNK     1      22.713  -8.149  39.893  1.00  0.00    -0.110 NA
BRANCH  18  21
HETATM   21  C1  UNK     1      20.404  -9.681  37.587  1.00  0.00     0.000 C 
HETATM   22  C3  UNK     1      20.807 -10.833  36.594  1.00  0.00     0.021 C 
HETATM   23  C4  UNK     1      19.475  -8.702  36.780  1.00  0.00     0.021 C 
HETATM   24  C5  UNK     1      19.430 -10.380  38.613  1.00  0.00     0.021 C 
ENDBRANCH  18  21
ENDBRANCH  14  16
ENDBRANCH   4  12
BRANCH   7  25
HETATM   25  O3  UNK     1      30.925  -8.474  38.284  1.00  0.00    -0.351 OA
BRANCH  25  26
HETATM   26  C18 UNK     1      31.937  -8.895  37.373  1.00  0.00     0.171 C 
HETATM   27  C19 UNK     1      31.381  -9.994  36.493  1.00  0.00     0.034 C 
ENDBRANCH  25  26
ENDBRANCH   7  25
TORSDOF 5
ENDMDL
MODEL 10
REMARK VINA RESULT:      -8.4      2.586      3.609
REMARK  5 active torsions:
REMARK  status: ('A' for Active; 'I' for Inactive)
REMARK    1  A    between atoms: C13_20  and  O3_3 
REMARK    2  A    between atoms: C18_25  and  O3_3 
REMARK       I    between atoms: C12_19  and  N2_7 
REMARK    3  A    between atoms: C7_14  and  N2_7 
REMARK    4  A    between atoms: C1_8  and  C2_9 
REMARK    5  A    between atoms: C12_19  and  C9_16 
ROOT
HETATM    1  O2  UNK     1      18.887   1.998  30.806  1.00  0.00    -0.274 OA
HETATM    2  O5  UNK     1      18.948   4.010  29.725  1.00  0.00    -0.259 OA
HETATM    3  C8  UNK     1      18.356   1.926  33.178  1.00  0.00     0.032 A 
HETATM    4  C9  UNK     1      18.418   4.060  32.034  1.00  0.00     0.108 A 
HETATM    5  C10 UNK     1      18.685   1.270  31.995  1.00  0.00     0.092 A 
HETATM    6  C11 UNK     1      18.224   3.374  33.166  1.00  0.00     0.040 A 
HETATM    7  C13 UNK     1      18.162   1.170  34.336  1.00  0.00     0.081 A 
HETATM    8  C14 UNK     1      18.769   3.385  30.764  1.00  0.00     0.304 A 
HETATM    9  C15 UNK     1      18.827  -0.115  31.939  1.00  0.00     0.038 A 
HETATM   10  C16 UNK     1      18.300  -0.221  34.294  1.00  0.00     0.038 A 
HETATM   11  C17 UNK     1      18.633  -0.862  33.098  1.00  0.00     0.006 A 
ENDROOT
BRANCH   4  12
HETATM   12  C12 UNK     1      18.263   5.517  32.122  1.00  0.00     0.263 C 
HETATM   13  O4  UNK     1      19.261   6.235  32.147  1.00  0.00    -0.267 OA
HETATM   14  N2  UNK     1      16.929   5.898  32.167  1.00  0.00    -0.305 N 
HETATM   15  H11 UNK     1      16.201   5.190  32.157  1.00  0.00     0.170 HD
BRANCH  14  16
HETATM   16  C7  UNK     1      16.425   7.203  32.252  1.00  0.00     0.160 A 
HETATM   17  C6  UNK     1      16.037   7.810  33.444  1.00  0.00     0.088 A 
HETATM   18  C2  UNK     1      15.621   9.050  33.040  1.00  0.00     0.090 A 
HETATM   19  O1  UNK     1      15.756   9.160  31.693  1.00  0.00    -0.215 OA
HETATM   20  N1  UNK     1      16.272   7.974  31.186  1.00  0.00    -0.110 NA
BRANCH  18  21
HETATM   21  C1  UNK     1      15.084  10.221  33.743  1.00  0.00     0.000 C 
HETATM   22  C3  UNK     1      13.914  10.915  32.953  1.00  0.00     0.021 C 
HETATM   23  C4  UNK     1      16.173  11.329  33.990  1.00  0.00     0.021 C 
HETATM   24  C5  UNK     1      14.477   9.950  35.174  1.00  0.00     0.021 C 
ENDBRANCH  18  21
ENDBRANCH  14  16
ENDBRANCH   4  12
BRANCH   7  25
HETATM   25  O3  UNK     1      17.837   1.754  35.525  1.00  0.00    -0.351 OA
BRANCH  25  26
HETATM   26  C18 UNK     1      18.370   1.158  36.705  1.00  0.00     0.171 C 
HETATM   27  C19 UNK     1      17.346   1.263  37.816  1.00  0.00     0.034 C 
ENDBRANCH  25  26
ENDBRANCH   7  25
TORSDOF 5
ENDMDL
