MODEL 1
REMARK VINA RESULT:      -9.7      0.000      0.000
REMARK  2 active torsions:
REMARK  status: ('A' for Active; 'I' for Inactive)
REMARK       I    between atoms: C10_14  and  N1_4 
REMARK    1  A    between atoms: C8_12  and  N1_4 
REMARK    2  A    between atoms: C10_14  and  C11_15 
ROOT
HETATM    1  O2  UNK     1      20.918  -4.282  37.733  1.00  0.00    -0.267 OA
HETATM    2  N1  UNK     1      19.471  -5.281  36.158  1.00  0.00    -0.323 N 
HETATM    3  C10 UNK     1      20.092  -4.225  36.830  1.00  0.00     0.262 C 
HETATM    4  H10 UNK     1      18.819  -5.051  35.411  1.00  0.00     0.169 HD
ENDROOT
BRANCH   3   5
HETATM    5  C11 UNK     1      19.649  -2.904  36.335  1.00  0.00     0.108 A 
HETATM    6  C13 UNK     1      18.938  -2.161  37.191  1.00  0.00     0.037 A 
HETATM    7  C12 UNK     1      18.457  -0.846  36.796  1.00  0.00    -0.001 A 
HETATM    8  C14 UNK     1      18.749  -0.379  35.518  1.00  0.00     0.089 A 
HETATM    9  C16 UNK     1      17.712  -0.035  37.656  1.00  0.00     0.014 A 
HETATM   10  O1  UNK     1      19.498  -1.167  34.622  1.00  0.00    -0.274 OA
HETATM   11  C17 UNK     1      18.317   0.871  35.077  1.00  0.00     0.038 A 
HETATM   12  C15 UNK     1      19.971  -2.428  34.972  1.00  0.00     0.304 A 
HETATM   13  O3  UNK     1      20.621  -3.107  34.184  1.00  0.00    -0.259 OA
HETATM   14  C19 UNK     1      17.575   1.672  35.941  1.00  0.00     0.003 A 
HETATM   15  C18 UNK     1      17.273   1.221  37.228  1.00  0.00     0.001 A 
ENDBRANCH   3   5
BRANCH   2  16
HETATM   16  C8  UNK     1      19.650  -6.650  36.362  1.00  0.00     0.035 A 
HETATM   17  C6  UNK     1      20.674  -7.321  35.689  1.00  0.00     0.037 A 
HETATM   18  C4  UNK     1      20.823  -8.680  35.911  1.00  0.00    -0.050 A 
HETATM   19  C2  UNK     1      21.859  -9.598  35.342  1.00  0.00     0.039 C 
HETATM   20  C5  UNK     1      19.981  -9.364  36.795  1.00  0.00    -0.052 A 
HETATM   21  C1  UNK     1      21.233 -10.969  35.635  1.00  0.00     0.009 C 
HETATM   22  C3  UNK     1      20.376 -10.803  36.899  1.00  0.00     0.039 C 
HETATM   23  C7  UNK     1      18.973  -8.704  37.476  1.00  0.00     0.010 A 
HETATM   24  C9  UNK     1      18.806  -7.336  37.249  1.00  0.00     0.030 A 
ENDBRANCH   2  16
TORSDOF 2
ENDMDL
MODEL 2
REMARK VINA RESULT:      -9.7      8.440     10.485
REMARK  2 active torsions:
REMARK  status: ('A' for Active; 'I' for Inactive)
REMARK       I    between atoms: C10_14  and  N1_4 
REMARK    1  A    between atoms: C8_12  and  N1_4 
REMARK    2  A    between atoms: C10_14  and  C11_15 
ROOT
HETATM    1  O2  UNK     1      19.736   5.346  30.894  1.00  0.00    -0.267 OA
HETATM    2  N1  UNK     1      18.065   3.748  31.365  1.00  0.00    -0.323 N 
HETATM    3  C10 UNK     1      18.717   4.979  31.466  1.00  0.00     0.262 C 
HETATM    4  H10 UNK     1      17.209   3.618  31.899  1.00  0.00     0.169 HD
ENDROOT
BRANCH   3   5
HETATM    5  C11 UNK     1      18.036   5.903  32.396  1.00  0.00     0.108 A 
HETATM    6  C13 UNK     1      16.891   6.443  31.960  1.00  0.00     0.037 A 
HETATM    7  C12 UNK     1      16.147   7.367  32.802  1.00  0.00    -0.001 A 
HETATM    8  C14 UNK     1      16.646   7.676  34.064  1.00  0.00     0.089 A 
HETATM    9  C16 UNK     1      14.949   7.953  32.388  1.00  0.00     0.014 A 
HETATM   10  O1  UNK     1      17.851   7.104  34.517  1.00  0.00    -0.274 OA
HETATM   11  C17 UNK     1      15.983   8.553  34.920  1.00  0.00     0.038 A 
HETATM   12  C15 UNK     1      18.584   6.218  33.733  1.00  0.00     0.304 A 
HETATM   13  O3  UNK     1      19.633   5.727  34.137  1.00  0.00    -0.259 OA
HETATM   14  C19 UNK     1      14.788   9.133  34.499  1.00  0.00     0.003 A 
HETATM   15  C18 UNK     1      14.272   8.834  33.237  1.00  0.00     0.001 A 
ENDBRANCH   3   5
BRANCH   2  16
HETATM   16  C8  UNK     1      18.426   2.648  30.584  1.00  0.00     0.035 A 
HETATM   17  C6  UNK     1      19.275   1.674  31.113  1.00  0.00     0.037 A 
HETATM   18  C4  UNK     1      19.616   0.597  30.311  1.00  0.00    -0.050 A 
HETATM   19  C2  UNK     1      20.470  -0.580  30.663  1.00  0.00     0.039 C 
HETATM   20  C5  UNK     1      19.115   0.478  29.010  1.00  0.00    -0.052 A 
HETATM   21  C1  UNK     1      20.778  -1.150  29.271  1.00  0.00     0.009 C 
HETATM   22  C3  UNK     1      19.587  -0.790  28.371  1.00  0.00     0.039 C 
HETATM   23  C7  UNK     1      18.261   1.432  28.483  1.00  0.00     0.010 A 
HETATM   24  C9  UNK     1      17.922   2.529  29.279  1.00  0.00     0.030 A 
ENDBRANCH   2  16
TORSDOF 2
ENDMDL
MODEL 3
REMARK VINA RESULT:      -9.5      1.582      8.131
REMARK  2 active torsions:
REMARK  status: ('A' for Active; 'I' for Inactive)
REMARK       I    between atoms: C10_14  and  N1_4 
REMARK    1  A    between atoms: C8_12  and  N1_4 
REMARK    2  A    between atoms: C10_14  and  C11_15 
ROOT
HETATM    1  O2  UNK     1      21.269  -3.679  36.806  1.00  0.00    -0.267 OA
HETATM    2  N1  UNK     1      18.912  -3.625  36.696  1.00  0.00    -0.323 N 
HETATM    3  C10 UNK     1      20.172  -4.224  36.757  1.00  0.00     0.262 C 
HETATM    4  H10 UNK     1      18.097  -4.233  36.684  1.00  0.00     0.169 HD
ENDROOT
BRANCH   3   5
HETATM    5  C11 UNK     1      20.096  -5.699  36.764  1.00  0.00     0.108 A 
HETATM    6  C13 UNK     1      19.975  -6.280  37.964  1.00  0.00     0.037 A 
HETATM    7  C12 UNK     1      19.893  -7.728  38.074  1.00  0.00    -0.001 A 
HETATM    8  C14 UNK     1      19.942  -8.494  36.913  1.00  0.00     0.089 A 
HETATM    9  C16 UNK     1      19.767  -8.376  39.305  1.00  0.00     0.014 A 
HETATM   10  O1  UNK     1      20.069  -7.877  35.653  1.00  0.00    -0.274 OA
HETATM   11  C17 UNK     1      19.869  -9.885  36.949  1.00  0.00     0.038 A 
HETATM   12  C15 UNK     1      20.150  -6.494  35.517  1.00  0.00     0.304 A 
HETATM   13  O3  UNK     1      20.261  -5.967  34.416  1.00  0.00    -0.259 OA
HETATM   14  C19 UNK     1      19.743 -10.524  38.181  1.00  0.00     0.003 A 
HETATM   15  C18 UNK     1      19.692  -9.772  39.356  1.00  0.00     0.001 A 
ENDBRANCH   3   5
BRANCH   2  16
HETATM   16  C8  UNK     1      18.611  -2.262  36.675  1.00  0.00     0.035 A 
HETATM   17  C6  UNK     1      18.693  -1.554  35.474  1.00  0.00     0.037 A 
HETATM   18  C4  UNK     1      18.391  -0.202  35.488  1.00  0.00    -0.050 A 
HETATM   19  C2  UNK     1      18.370   0.749  34.334  1.00  0.00     0.039 C 
HETATM   20  C5  UNK     1      18.000   0.438  36.669  1.00  0.00    -0.052 A 
HETATM   21  C1  UNK     1      18.376   2.101  35.062  1.00  0.00     0.009 C 
HETATM   22  C3  UNK     1      17.681   1.878  36.414  1.00  0.00     0.039 C 
HETATM   23  C7  UNK     1      17.902  -0.259  37.861  1.00  0.00     0.010 A 
HETATM   24  C9  UNK     1      18.218  -1.620  37.860  1.00  0.00     0.030 A 
ENDBRANCH   2  16
TORSDOF 2
ENDMDL
MODEL 4
REMARK VINA RESULT:      -9.5      8.511     10.668
REMARK  2 active torsions:
REMARK  status: ('A' for Active; 'I' for Inactive)
REMARK       I    between atoms: C10_14  and  N1_4 
REMARK    1  A    between atoms: C8_12  and  N1_4 
REMARK    2  A    between atoms: C10_14  and  C11_15 
ROOT
HETATM    1  O2  UNK     1      17.931   3.489  33.139  1.00  0.00    -0.267 OA
HETATM    2  N1  UNK     1      18.487   4.184  30.953  1.00  0.00    -0.323 N 
HETATM    3  C10 UNK     1      18.143   4.353  32.296  1.00  0.00     0.262 C 
HETATM    4  H10 UNK     1      18.649   5.020  30.396  1.00  0.00     0.169 HD
ENDROOT
BRANCH   3   5
HETATM    5  C11 UNK     1      18.042   5.777  32.678  1.00  0.00     0.108 A 
HETATM    6  C13 UNK     1      19.151   6.335  33.179  1.00  0.00     0.037 A 
HETATM    7  C12 UNK     1      19.150   7.732  33.586  1.00  0.00    -0.001 A 
HETATM    8  C14 UNK     1      17.982   8.473  33.443  1.00  0.00     0.089 A 
HETATM    9  C16 UNK     1      20.284   8.355  34.113  1.00  0.00     0.014 A 
HETATM   10  O1  UNK     1      16.818   7.880  32.914  1.00  0.00    -0.274 OA
HETATM   11  C17 UNK     1      17.914   9.815  33.812  1.00  0.00     0.038 A 
HETATM   12  C15 UNK     1      16.788   6.546  32.518  1.00  0.00     0.304 A 
HETATM   13  O3  UNK     1      15.770   6.040  32.060  1.00  0.00    -0.259 OA
HETATM   14  C19 UNK     1      19.049  10.428  34.338  1.00  0.00     0.003 A 
HETATM   15  C18 UNK     1      20.232   9.701  34.488  1.00  0.00     0.001 A 
ENDBRANCH   3   5
BRANCH   2  16
HETATM   16  C8  UNK     1      18.669   2.987  30.259  1.00  0.00     0.035 A 
HETATM   17  C6  UNK     1      19.551   2.026  30.758  1.00  0.00     0.037 A 
HETATM   18  C4  UNK     1      19.712   0.850  30.044  1.00  0.00    -0.050 A 
HETATM   19  C2  UNK     1      20.560  -0.331  30.392  1.00  0.00     0.039 C 
HETATM   20  C5  UNK     1      19.001   0.622  28.859  1.00  0.00    -0.052 A 
HETATM   21  C1  UNK     1      20.615  -1.066  29.045  1.00  0.00     0.009 C 
HETATM   22  C3  UNK     1      19.310  -0.734  28.307  1.00  0.00     0.039 C 
HETATM   23  C7  UNK     1      18.115   1.564  28.365  1.00  0.00     0.010 A 
HETATM   24  C9  UNK     1      17.956   2.758  29.072  1.00  0.00     0.030 A 
ENDBRANCH   2  16
TORSDOF 2
ENDMDL
MODEL 5
REMARK VINA RESULT:      -9.4      7.493     12.567
REMARK  2 active torsions:
REMARK  status: ('A' for Active; 'I' for Inactive)
REMARK       I    between atoms: C10_14  and  N1_4 
REMARK    1  A    between atoms: C8_12  and  N1_4 
REMARK    2  A    between atoms: C10_14  and  C11_15 
ROOT
HETATM    1  O2  UNK     1      17.625   3.080  32.965  1.00  0.00    -0.267 OA
HETATM    2  N1  UNK     1      18.681   4.641  31.546  1.00  0.00    -0.323 N 
HETATM    3  C10 UNK     1      18.274   3.374  31.969  1.00  0.00     0.262 C 
HETATM    4  H10 UNK     1      19.201   4.707  30.674  1.00  0.00     0.169 HD
ENDROOT
BRANCH   3   5
HETATM    5  C11 UNK     1      18.717   2.304  31.051  1.00  0.00     0.108 A 
HETATM    6  C13 UNK     1      19.141   1.171  31.623  1.00  0.00     0.037 A 
HETATM    7  C12 UNK     1      19.598   0.060  30.803  1.00  0.00    -0.001 A 
HETATM    8  C14 UNK     1      19.585   0.198  29.418  1.00  0.00     0.089 A 
HETATM    9  C16 UNK     1      20.049  -1.140  31.357  1.00  0.00     0.014 A 
HETATM   10  O1  UNK     1      19.137   1.392  28.822  1.00  0.00    -0.274 OA
HETATM   11  C17 UNK     1      20.010  -0.828  28.575  1.00  0.00     0.038 A 
HETATM   12  C15 UNK     1      18.694   2.472  29.581  1.00  0.00     0.304 A 
HETATM   13  O3  UNK     1      18.307   3.508  29.052  1.00  0.00    -0.259 OA
HETATM   14  C19 UNK     1      20.458  -2.021  29.136  1.00  0.00     0.003 A 
HETATM   15  C18 UNK     1      20.477  -2.178  30.524  1.00  0.00     0.001 A 
ENDBRANCH   3   5
BRANCH   2  16
HETATM   16  C8  UNK     1      18.440   5.869  32.164  1.00  0.00     0.035 A 
HETATM   17  C6  UNK     1      17.140   6.379  32.206  1.00  0.00     0.037 A 
HETATM   18  C4  UNK     1      16.935   7.601  32.824  1.00  0.00    -0.050 A 
HETATM   19  C2  UNK     1      15.642   8.325  33.027  1.00  0.00     0.039 C 
HETATM   20  C5  UNK     1      17.997   8.305  33.403  1.00  0.00    -0.052 A 
HETATM   21  C1  UNK     1      16.142   9.735  33.373  1.00  0.00     0.009 C 
HETATM   22  C3  UNK     1      17.512   9.566  34.047  1.00  0.00     0.039 C 
HETATM   23  C7  UNK     1      19.286   7.801  33.377  1.00  0.00     0.010 A 
HETATM   24  C9  UNK     1      19.505   6.575  32.745  1.00  0.00     0.030 A 
ENDBRANCH   2  16
TORSDOF 2
ENDMDL
MODEL 6
REMARK VINA RESULT:      -9.1      6.920     12.559
REMARK  2 active torsions:
REMARK  status: ('A' for Active; 'I' for Inactive)
REMARK       I    between atoms: C10_14  and  N1_4 
REMARK    1  A    between atoms: C8_12  and  N1_4 
REMARK    2  A    between atoms: C10_14  and  C11_15 
ROOT
HETATM    1  O2  UNK     1      18.051   4.486  30.450  1.00  0.00    -0.267 OA
HETATM    2  N1  UNK     1      18.376   4.587  32.785  1.00  0.00    -0.323 N 
HETATM    3  C10 UNK     1      18.321   3.975  31.531  1.00  0.00     0.262 C 
HETATM    4  H10 UNK     1      18.641   4.013  33.582  1.00  0.00     0.169 HD
ENDROOT
BRANCH   3   5
HETATM    5  C11 UNK     1      18.642   2.534  31.591  1.00  0.00     0.108 A 
HETATM    6  C13 UNK     1      19.227   2.013  30.507  1.00  0.00     0.037 A 
HETATM    7  C12 UNK     1      19.581   0.602  30.470  1.00  0.00    -0.001 A 
HETATM    8  C14 UNK     1      19.301  -0.190  31.579  1.00  0.00     0.089 A 
HETATM    9  C16 UNK     1      20.193   0.016  29.359  1.00  0.00     0.014 A 
HETATM   10  O1  UNK     1      18.685   0.365  32.717  1.00  0.00    -0.274 OA
HETATM   11  C17 UNK     1      19.613  -1.548  31.608  1.00  0.00     0.038 A 
HETATM   12  C15 UNK     1      18.335   1.711  32.781  1.00  0.00     0.304 A 
HETATM   13  O3  UNK     1      17.798   2.184  33.777  1.00  0.00    -0.259 OA
HETATM   14  C19 UNK     1      20.223  -2.125  30.497  1.00  0.00     0.003 A 
HETATM   15  C18 UNK     1      20.513  -1.345  29.375  1.00  0.00     0.001 A 
ENDBRANCH   3   5
BRANCH   2  16
HETATM   16  C8  UNK     1      18.135   5.926  33.097  1.00  0.00     0.035 A 
HETATM   17  C6  UNK     1      16.824   6.408  33.109  1.00  0.00     0.037 A 
HETATM   18  C4  UNK     1      16.619   7.742  33.419  1.00  0.00    -0.050 A 
HETATM   19  C2  UNK     1      15.319   8.473  33.532  1.00  0.00     0.039 C 
HETATM   20  C5  UNK     1      17.693   8.585  33.727  1.00  0.00    -0.052 A 
HETATM   21  C1  UNK     1      15.792   9.932  33.483  1.00  0.00     0.009 C 
HETATM   22  C3  UNK     1      17.210   9.958  34.075  1.00  0.00     0.039 C 
HETATM   23  C7  UNK     1      18.994   8.112  33.732  1.00  0.00     0.010 A 
HETATM   24  C9  UNK     1      19.212   6.771  33.407  1.00  0.00     0.030 A 
ENDBRANCH   2  16
TORSDOF 2
ENDMDL
MODEL 7
REMARK VINA RESULT:      -9.1      1.649      8.362
REMARK  2 active torsions:
REMARK  status: ('A' for Active; 'I' for Inactive)
REMARK       I    between atoms: C10_14  and  N1_4 
REMARK    1  A    between atoms: C8_12  and  N1_4 
REMARK    2  A    between atoms: C10_14  and  C11_15 
ROOT
HETATM    1  O2  UNK     1      20.514  -3.931  35.437  1.00  0.00    -0.267 OA
HETATM    2  N1  UNK     1      18.599  -3.614  36.779  1.00  0.00    -0.323 N 
HETATM    3  C10 UNK     1      19.606  -4.347  36.147  1.00  0.00     0.262 C 
HETATM    4  H10 UNK     1      17.932  -4.123  37.355  1.00  0.00     0.169 HD
ENDROOT
BRANCH   3   5
HETATM    5  C11 UNK     1      19.500  -5.797  36.414  1.00  0.00     0.108 A 
HETATM    6  C13 UNK     1      20.647  -6.486  36.395  1.00  0.00     0.037 A 
HETATM    7  C12 UNK     1      20.646  -7.920  36.644  1.00  0.00    -0.001 A 
HETATM    8  C14 UNK     1      19.436  -8.556  36.903  1.00  0.00     0.089 A 
HETATM    9  C16 UNK     1      21.819  -8.678  36.635  1.00  0.00     0.014 A 
HETATM   10  O1  UNK     1      18.233  -7.824  36.922  1.00  0.00    -0.274 OA
HETATM   11  C17 UNK     1      19.366  -9.926  37.150  1.00  0.00     0.038 A 
HETATM   12  C15 UNK     1      18.203  -6.453  36.686  1.00  0.00     0.304 A 
HETATM   13  O3  UNK     1      17.149  -5.825  36.704  1.00  0.00    -0.259 OA
HETATM   14  C19 UNK     1      20.540 -10.675  37.138  1.00  0.00     0.003 A 
HETATM   15  C18 UNK     1      21.764 -10.054  36.882  1.00  0.00     0.001 A 
ENDBRANCH   3   5
BRANCH   2  16
HETATM   16  C8  UNK     1      18.395  -2.234  36.748  1.00  0.00     0.035 A 
HETATM   17  C6  UNK     1      18.445  -1.555  35.528  1.00  0.00     0.037 A 
HETATM   18  C4  UNK     1      18.242  -0.185  35.532  1.00  0.00    -0.050 A 
HETATM   19  C2  UNK     1      18.210   0.745  34.361  1.00  0.00     0.039 C 
HETATM   20  C5  UNK     1      17.979   0.503  36.722  1.00  0.00    -0.052 A 
HETATM   21  C1  UNK     1      18.362   2.105  35.057  1.00  0.00     0.009 C 
HETATM   22  C3  UNK     1      17.747   1.957  36.457  1.00  0.00     0.039 C 
HETATM   23  C7  UNK     1      17.913  -0.164  37.933  1.00  0.00     0.010 A 
HETATM   24  C9  UNK     1      18.131  -1.544  37.941  1.00  0.00     0.030 A 
ENDBRANCH   2  16
TORSDOF 2
ENDMDL
MODEL 8
REMARK VINA RESULT:      -9.1      2.664      3.932
REMARK  2 active torsions:
REMARK  status: ('A' for Active; 'I' for Inactive)
REMARK       I    between atoms: C10_14  and  N1_4 
REMARK    1  A    between atoms: C8_12  and  N1_4 
REMARK    2  A    between atoms: C10_14  and  C11_15 
ROOT
HETATM    1  O2  UNK     1      20.191  -2.339  37.012  1.00  0.00    -0.267 OA
HETATM    2  N1  UNK     1      19.620  -4.240  35.735  1.00  0.00    -0.323 N 
HETATM    3  C10 UNK     1      19.862  -2.884  35.965  1.00  0.00     0.262 C 
HETATM    4  H10 UNK     1      19.375  -4.526  34.790  1.00  0.00     0.169 HD
ENDROOT
BRANCH   3   5
HETATM    5  C11 UNK     1      19.681  -2.065  34.748  1.00  0.00     0.108 A 
HETATM    6  C13 UNK     1      20.234  -2.541  33.627  1.00  0.00     0.037 A 
HETATM    7  C12 UNK     1      20.112  -1.806  32.377  1.00  0.00    -0.001 A 
HETATM    8  C14 UNK     1      19.411  -0.604  32.371  1.00  0.00     0.089 A 
HETATM    9  C16 UNK     1      20.673  -2.266  31.184  1.00  0.00     0.014 A 
HETATM   10  O1  UNK     1      18.830  -0.108  33.555  1.00  0.00    -0.274 OA
HETATM   11  C17 UNK     1      19.256   0.149  31.209  1.00  0.00     0.038 A 
HETATM   12  C15 UNK     1      18.931  -0.789  34.764  1.00  0.00     0.304 A 
HETATM   13  O3  UNK     1      18.423  -0.348  35.790  1.00  0.00    -0.259 OA
HETATM   14  C19 UNK     1      19.819  -0.317  30.023  1.00  0.00     0.003 A 
HETATM   15  C18 UNK     1      20.526  -1.521  30.009  1.00  0.00     0.001 A 
ENDBRANCH   3   5
BRANCH   2  16
HETATM   16  C8  UNK     1      19.699  -5.291  36.650  1.00  0.00     0.035 A 
HETATM   17  C6  UNK     1      20.860  -5.465  37.406  1.00  0.00     0.037 A 
HETATM   18  C4  UNK     1      20.907  -6.520  38.302  1.00  0.00    -0.050 A 
HETATM   19  C2  UNK     1      22.014  -6.883  39.240  1.00  0.00     0.039 C 
HETATM   20  C5  UNK     1      19.817  -7.383  38.459  1.00  0.00    -0.052 A 
HETATM   21  C1  UNK     1      21.625  -8.320  39.617  1.00  0.00     0.009 C 
HETATM   22  C3  UNK     1      20.095  -8.405  39.517  1.00  0.00     0.039 C 
HETATM   23  C7  UNK     1      18.657  -7.211  37.723  1.00  0.00     0.010 A 
HETATM   24  C9  UNK     1      18.605  -6.157  36.807  1.00  0.00     0.030 A 
ENDBRANCH   2  16
TORSDOF 2
ENDMDL
MODEL 9
REMARK VINA RESULT:      -8.9      6.707      9.007
REMARK  2 active torsions:
REMARK  status: ('A' for Active; 'I' for Inactive)
REMARK       I    between atoms: C10_14  and  N1_4 
REMARK    1  A    between atoms: C8_12  and  N1_4 
REMARK    2  A    between atoms: C10_14  and  C11_15 
ROOT
HETATM    1  O2  UNK     1      26.159  -9.192  38.993  1.00  0.00    -0.267 OA
HETATM    2  N1  UNK     1      24.666  -7.398  38.647  1.00  0.00    -0.323 N 
HETATM    3  C10 UNK     1      25.913  -8.006  38.807  1.00  0.00     0.262 C 
HETATM    4  H10 UNK     1      24.645  -6.395  38.477  1.00  0.00     0.169 HD
ENDROOT
BRANCH   3   5
HETATM    5  C11 UNK     1      27.027  -7.039  38.729  1.00  0.00     0.108 A 
HETATM    6  C13 UNK     1      28.254  -7.558  38.606  1.00  0.00     0.037 A 
HETATM    7  C12 UNK     1      29.416  -6.686  38.523  1.00  0.00    -0.001 A 
HETATM    8  C14 UNK     1      29.226  -5.309  38.574  1.00  0.00     0.089 A 
HETATM    9  C16 UNK     1      30.714  -7.185  38.394  1.00  0.00     0.014 A 
HETATM   10  O1  UNK     1      27.932  -4.768  38.703  1.00  0.00    -0.274 OA
HETATM   11  C17 UNK     1      30.296  -4.418  38.500  1.00  0.00     0.038 A 
HETATM   12  C15 UNK     1      26.803  -5.577  38.786  1.00  0.00     0.304 A 
HETATM   13  O3  UNK     1      25.680  -5.096  38.899  1.00  0.00    -0.259 OA
HETATM   14  C19 UNK     1      31.588  -4.924  38.371  1.00  0.00     0.003 A 
HETATM   15  C18 UNK     1      31.797  -6.304  38.317  1.00  0.00     0.001 A 
ENDBRANCH   3   5
BRANCH   2  16
HETATM   16  C8  UNK     1      23.408  -8.003  38.661  1.00  0.00     0.035 A 
HETATM   17  C6  UNK     1      22.932  -8.636  37.510  1.00  0.00     0.037 A 
HETATM   18  C4  UNK     1      21.679  -9.225  37.557  1.00  0.00    -0.050 A 
HETATM   19  C2  UNK     1      20.979  -9.986  36.477  1.00  0.00     0.039 C 
HETATM   20  C5  UNK     1      20.913  -9.199  38.727  1.00  0.00    -0.052 A 
HETATM   21  C1  UNK     1      19.537  -9.994  37.005  1.00  0.00     0.009 C 
HETATM   22  C3  UNK     1      19.627  -9.942  38.538  1.00  0.00     0.039 C 
HETATM   23  C7  UNK     1      21.382  -8.585  39.876  1.00  0.00     0.010 A 
HETATM   24  C9  UNK     1      22.639  -7.978  39.835  1.00  0.00     0.030 A 
ENDBRANCH   2  16
TORSDOF 2
ENDMDL
MODEL 10
REMARK VINA RESULT:      -8.6     19.254     21.663
REMARK  2 active torsions:
REMARK  status: ('A' for Active; 'I' for Inactive)
REMARK       I    between atoms: C10_14  and  N1_4 
REMARK    1  A    between atoms: C8_12  and  N1_4 
REMARK    2  A    between atoms: C10_14  and  C11_15 
ROOT
HETATM    1  O2  UNK     1      16.784  -2.149  16.731  1.00  0.00    -0.267 OA
HETATM    2  N1  UNK     1      18.951  -1.313  16.315  1.00  0.00    -0.323 N 
HETATM    3  C10 UNK     1      17.849  -2.150  16.125  1.00  0.00     0.262 C 
HETATM    4  H10 UNK     1      19.754  -1.438  15.702  1.00  0.00     0.169 HD
ENDROOT
BRANCH   3   5
HETATM    5  C11 UNK     1      18.066  -3.131  15.041  1.00  0.00     0.108 A 
HETATM    6  C13 UNK     1      17.771  -4.404  15.329  1.00  0.00     0.037 A 
HETATM    7  C12 UNK     1      17.952  -5.444  14.327  1.00  0.00    -0.001 A 
HETATM    8  C14 UNK     1      18.434  -5.090  13.071  1.00  0.00     0.089 A 
HETATM    9  C16 UNK     1      17.657  -6.785  14.584  1.00  0.00     0.014 A 
HETATM   10  O1  UNK     1      18.742  -3.748  12.775  1.00  0.00    -0.274 OA
HETATM   11  C17 UNK     1      18.631  -6.037  12.067  1.00  0.00     0.038 A 
HETATM   12  C15 UNK     1      18.580  -2.732  13.712  1.00  0.00     0.304 A 
HETATM   13  O3  UNK     1      18.852  -1.567  13.445  1.00  0.00    -0.259 OA
HETATM   14  C19 UNK     1      18.335  -7.372  12.331  1.00  0.00     0.003 A 
HETATM   15  C18 UNK     1      17.849  -7.746  13.586  1.00  0.00     0.001 A 
ENDBRANCH   3   5
BRANCH   2  16
HETATM   16  C8  UNK     1      19.093  -0.279  17.242  1.00  0.00     0.035 A 
HETATM   17  C6  UNK     1      19.319  -0.582  18.586  1.00  0.00     0.037 A 
HETATM   18  C4  UNK     1      19.452   0.466  19.481  1.00  0.00    -0.050 A 
HETATM   19  C2  UNK     1      19.735   0.395  20.948  1.00  0.00     0.039 C 
HETATM   20  C5  UNK     1      19.376   1.796  19.051  1.00  0.00    -0.052 A 
HETATM   21  C1  UNK     1      19.351   1.814  21.394  1.00  0.00     0.009 C 
HETATM   22  C3  UNK     1      19.601   2.738  20.193  1.00  0.00     0.039 C 
HETATM   23  C7  UNK     1      19.166   2.106  17.719  1.00  0.00     0.010 A 
HETATM   24  C9  UNK     1      19.017   1.054  16.811  1.00  0.00     0.030 A 
ENDBRANCH   2  16
TORSDOF 2
ENDMDL
