MODEL 1
REMARK VINA RESULT:      -9.2      0.000      0.000
REMARK  3 active torsions:
REMARK  status: ('A' for Active; 'I' for Inactive)
REMARK    1  A    between atoms: C4_9  and  N1_4 
REMARK       I    between atoms: C6_11  and  N1_4 
REMARK    2  A    between atoms: C2_7  and  C6_11 
REMARK    3  A    between atoms: C4_9  and  C7_12 
ROOT
HETATM    1  O1  UNK     1      18.928   0.333  32.267  1.00  0.00    -0.274 OA
HETATM    2  O3  UNK     1      18.007   2.413  32.461  1.00  0.00    -0.259 OA
HETATM    3  C1  UNK     1      19.937  -0.342  30.161  1.00  0.00    -0.001 A 
HETATM    4  C2  UNK     1      18.962   1.866  30.363  1.00  0.00     0.108 A 
HETATM    5  C3  UNK     1      19.595  -0.626  31.478  1.00  0.00     0.089 A 
HETATM    6  C5  UNK     1      19.595   0.960  29.610  1.00  0.00     0.037 A 
HETATM    7  C8  UNK     1      20.598  -1.319  29.411  1.00  0.00     0.014 A 
HETATM    8  C9  UNK     1      18.588   1.586  31.768  1.00  0.00     0.304 A 
HETATM    9  C10 UNK     1      19.893  -1.854  32.066  1.00  0.00     0.038 A 
HETATM   10  C11 UNK     1      20.904  -2.554  29.986  1.00  0.00     0.001 A 
HETATM   11  C12 UNK     1      20.552  -2.822  31.312  1.00  0.00     0.003 A 
ENDROOT
BRANCH   4  12
HETATM   12  C6  UNK     1      18.661   3.150  29.718  1.00  0.00     0.258 C 
HETATM   13  O2  UNK     1      18.021   3.194  28.669  1.00  0.00    -0.267 OA
HETATM   14  N1  UNK     1      19.167   4.233  30.413  1.00  0.00    -0.352 N 
HETATM   15  H4  UNK     1      19.672   4.093  31.283  1.00  0.00     0.163 HD
BRANCH  14  16
HETATM   16  C4  UNK     1      19.001   5.600  29.973  1.00  0.00     0.162 C 
BRANCH  16  17
HETATM   17  C7  UNK     1      18.607   6.510  31.100  1.00  0.00    -0.023 A 
HETATM   18  C13 UNK     1      19.394   6.607  32.232  1.00  0.00     0.012 A 
HETATM   19  C15 UNK     1      19.004   7.459  33.261  1.00  0.00     0.020 A 
HETATM   20  C16 UNK     1      17.831   8.178  33.096  1.00  0.00     0.116 A 
HETATM   21  N2  UNK     1      17.043   8.101  32.000  1.00  0.00    -0.273 NA
HETATM   22  C14 UNK     1      17.454   7.263  31.023  1.00  0.00     0.124 A 
ENDBRANCH  16  17
ENDBRANCH  14  16
ENDBRANCH   4  12
TORSDOF 3
ENDMDL
MODEL 2
REMARK VINA RESULT:      -8.8      1.332      2.154
REMARK  3 active torsions:
REMARK  status: ('A' for Active; 'I' for Inactive)
REMARK    1  A    between atoms: C4_9  and  N1_4 
REMARK       I    between atoms: C6_11  and  N1_4 
REMARK    2  A    between atoms: C2_7  and  C6_11 
REMARK    3  A    between atoms: C4_9  and  C7_12 
ROOT
HETATM    1  O1  UNK     1      18.998   0.410  28.577  1.00  0.00    -0.274 OA
HETATM    2  O3  UNK     1      18.033   2.393  27.981  1.00  0.00    -0.259 OA
HETATM    3  C1  UNK     1      19.711   0.064  30.876  1.00  0.00    -0.001 A 
HETATM    4  C2  UNK     1      18.687   2.168  30.247  1.00  0.00     0.108 A 
HETATM    5  C3  UNK     1      19.580  -0.401  29.572  1.00  0.00     0.089 A 
HETATM    6  C5  UNK     1      19.239   1.402  31.196  1.00  0.00     0.037 A 
HETATM    7  C8  UNK     1      20.293  -0.770  31.833  1.00  0.00     0.014 A 
HETATM    8  C9  UNK     1      18.537   1.694  28.853  1.00  0.00     0.304 A 
HETATM    9  C10 UNK     1      20.013  -1.672  29.199  1.00  0.00     0.038 A 
HETATM   10  C11 UNK     1      20.731  -2.047  31.475  1.00  0.00     0.001 A 
HETATM   11  C12 UNK     1      20.592  -2.497  30.159  1.00  0.00     0.003 A 
ENDROOT
BRANCH   4  12
HETATM   12  C6  UNK     1      18.241   3.502  30.668  1.00  0.00     0.258 C 
HETATM   13  O2  UNK     1      17.438   3.637  31.590  1.00  0.00    -0.267 OA
HETATM   14  N1  UNK     1      18.813   4.519  29.927  1.00  0.00    -0.352 N 
HETATM   15  H4  UNK     1      19.480   4.305  29.192  1.00  0.00     0.163 HD
BRANCH  14  16
HETATM   16  C4  UNK     1      18.526   5.918  30.154  1.00  0.00     0.162 C 
BRANCH  16  17
HETATM   17  C7  UNK     1      19.011   6.381  31.497  1.00  0.00    -0.023 A 
HETATM   18  C13 UNK     1      20.319   6.158  31.887  1.00  0.00     0.012 A 
HETATM   19  C15 UNK     1      20.740   6.598  33.137  1.00  0.00     0.020 A 
HETATM   20  C16 UNK     1      19.816   7.249  33.940  1.00  0.00     0.116 A 
HETATM   21  N2  UNK     1      18.533   7.480  33.583  1.00  0.00    -0.273 NA
HETATM   22  C14 UNK     1      18.160   7.036  32.362  1.00  0.00     0.124 A 
ENDBRANCH  16  17
ENDBRANCH  14  16
ENDBRANCH   4  12
TORSDOF 3
ENDMDL
MODEL 3
REMARK VINA RESULT:      -8.6      2.286      7.495
REMARK  3 active torsions:
REMARK  status: ('A' for Active; 'I' for Inactive)
REMARK    1  A    between atoms: C4_9  and  N1_4 
REMARK       I    between atoms: C6_11  and  N1_4 
REMARK    2  A    between atoms: C2_7  and  C6_11 
REMARK    3  A    between atoms: C4_9  and  C7_12 
ROOT
HETATM    1  O1  UNK     1      20.257   6.727  32.658  1.00  0.00    -0.274 OA
HETATM    2  O3  UNK     1      21.300   5.694  30.909  1.00  0.00    -0.259 OA
HETATM    3  C1  UNK     1      17.891   6.325  33.053  1.00  0.00    -0.001 A 
HETATM    4  C2  UNK     1      18.995   5.227  31.197  1.00  0.00     0.108 A 
HETATM    5  C3  UNK     1      19.083   6.951  33.404  1.00  0.00     0.089 A 
HETATM    6  C5  UNK     1      17.877   5.436  31.901  1.00  0.00     0.037 A 
HETATM    7  C8  UNK     1      16.749   6.573  33.817  1.00  0.00     0.014 A 
HETATM    8  C9  UNK     1      20.274   5.883  31.552  1.00  0.00     0.304 A 
HETATM    9  C10 UNK     1      19.164   7.815  34.495  1.00  0.00     0.038 A 
HETATM   10  C11 UNK     1      16.814   7.436  34.914  1.00  0.00     0.001 A 
HETATM   11  C12 UNK     1      18.020   8.057  35.252  1.00  0.00     0.003 A 
ENDROOT
BRANCH   4  12
HETATM   12  C6  UNK     1      18.880   4.313  30.054  1.00  0.00     0.258 C 
HETATM   13  O2  UNK     1      18.662   4.742  28.922  1.00  0.00    -0.267 OA
HETATM   14  N1  UNK     1      19.040   2.986  30.408  1.00  0.00    -0.352 N 
HETATM   15  H4  UNK     1      19.233   2.733  31.372  1.00  0.00     0.163 HD
BRANCH  14  16
HETATM   16  C4  UNK     1      18.966   1.901  29.455  1.00  0.00     0.162 C 
BRANCH  16  17
HETATM   17  C7  UNK     1      19.485   0.613  30.027  1.00  0.00    -0.023 A 
HETATM   18  C13 UNK     1      20.082  -0.329  29.210  1.00  0.00     0.012 A 
HETATM   19  C15 UNK     1      20.553  -1.512  29.769  1.00  0.00     0.020 A 
HETATM   20  C16 UNK     1      20.400  -1.690  31.135  1.00  0.00     0.116 A 
HETATM   21  N2  UNK     1      19.820  -0.786  31.956  1.00  0.00    -0.273 NA
HETATM   22  C14 UNK     1      19.374   0.352  31.377  1.00  0.00     0.124 A 
ENDBRANCH  16  17
ENDBRANCH  14  16
ENDBRANCH   4  12
TORSDOF 3
ENDMDL
MODEL 4
REMARK VINA RESULT:      -8.6     14.617     16.528
REMARK  3 active torsions:
REMARK  status: ('A' for Active; 'I' for Inactive)
REMARK    1  A    between atoms: C4_9  and  N1_4 
REMARK       I    between atoms: C6_11  and  N1_4 
REMARK    2  A    between atoms: C2_7  and  C6_11 
REMARK    3  A    between atoms: C4_9  and  C7_12 
ROOT
HETATM    1  O1  UNK     1      19.625  -1.553  12.792  1.00  0.00    -0.274 OA
HETATM    2  O3  UNK     1      19.413   0.082  14.371  1.00  0.00    -0.259 OA
HETATM    3  C1  UNK     1      18.904  -3.818  13.303  1.00  0.00    -0.001 A 
HETATM    4  C2  UNK     1      18.676  -2.085  14.981  1.00  0.00     0.108 A 
HETATM    5  C3  UNK     1      19.453  -2.900  12.415  1.00  0.00     0.089 A 
HETATM    6  C5  UNK     1      18.510  -3.365  14.629  1.00  0.00     0.037 A 
HETATM    7  C8  UNK     1      18.750  -5.145  12.892  1.00  0.00     0.014 A 
HETATM    8  C9  UNK     1      19.259  -1.091  14.052  1.00  0.00     0.304 A 
HETATM    9  C10 UNK     1      19.852  -3.269  11.131  1.00  0.00     0.038 A 
HETATM   10  C11 UNK     1      19.144  -5.530  11.608  1.00  0.00     0.001 A 
HETATM   11  C12 UNK     1      19.695  -4.593  10.729  1.00  0.00     0.003 A 
ENDROOT
BRANCH   4  12
HETATM   12  C6  UNK     1      18.248  -1.726  16.338  1.00  0.00     0.258 C 
HETATM   13  O2  UNK     1      17.137  -2.047  16.756  1.00  0.00    -0.267 OA
HETATM   14  N1  UNK     1      19.210  -1.017  17.035  1.00  0.00    -0.352 N 
HETATM   15  H4  UNK     1      20.107  -0.813  16.606  1.00  0.00     0.163 HD
BRANCH  14  16
HETATM   16  C4  UNK     1      19.018  -0.551  18.390  1.00  0.00     0.162 C 
BRANCH  16  17
HETATM   17  C7  UNK     1      19.286   0.921  18.521  1.00  0.00    -0.023 A 
HETATM   18  C13 UNK     1      19.167   1.757  17.427  1.00  0.00     0.012 A 
HETATM   19  C15 UNK     1      19.421   3.116  17.579  1.00  0.00     0.020 A 
HETATM   20  C16 UNK     1      19.785   3.570  18.836  1.00  0.00     0.116 A 
HETATM   21  N2  UNK     1      19.909   2.775  19.922  1.00  0.00    -0.273 NA
HETATM   22  C14 UNK     1      19.654   1.460  19.736  1.00  0.00     0.124 A 
ENDBRANCH  16  17
ENDBRANCH  14  16
ENDBRANCH   4  12
TORSDOF 3
ENDMDL
MODEL 5
REMARK VINA RESULT:      -8.4      4.812      8.681
REMARK  3 active torsions:
REMARK  status: ('A' for Active; 'I' for Inactive)
REMARK    1  A    between atoms: C4_9  and  N1_4 
REMARK       I    between atoms: C6_11  and  N1_4 
REMARK    2  A    between atoms: C2_7  and  C6_11 
REMARK    3  A    between atoms: C4_9  and  C7_12 
ROOT
HETATM    1  O1  UNK     1      18.644   0.988  32.316  1.00  0.00    -0.274 OA
HETATM    2  O3  UNK     1      17.848   1.300  34.434  1.00  0.00    -0.259 OA
HETATM    3  C1  UNK     1      19.593  -1.163  31.695  1.00  0.00    -0.001 A 
HETATM    4  C2  UNK     1      18.748  -0.835  33.942  1.00  0.00     0.108 A 
HETATM    5  C3  UNK     1      19.248   0.143  31.364  1.00  0.00     0.089 A 
HETATM    6  C5  UNK     1      19.321  -1.642  33.041  1.00  0.00     0.037 A 
HETATM    7  C8  UNK     1      20.190  -1.969  30.723  1.00  0.00     0.014 A 
HETATM    8  C9  UNK     1      18.372   0.558  33.612  1.00  0.00     0.304 A 
HETATM    9  C10 UNK     1      19.482   0.664  30.093  1.00  0.00     0.038 A 
HETATM   10  C11 UNK     1      20.430  -1.461  29.443  1.00  0.00     0.001 A 
HETATM   11  C12 UNK     1      20.077  -0.146  29.129  1.00  0.00     0.003 A 
ENDROOT
BRANCH   4  12
HETATM   12  C6  UNK     1      18.514  -1.410  35.272  1.00  0.00     0.258 C 
HETATM   13  O2  UNK     1      17.423  -1.294  35.827  1.00  0.00    -0.267 OA
HETATM   14  N1  UNK     1      19.625  -2.058  35.781  1.00  0.00    -0.352 N 
HETATM   15  H4  UNK     1      20.481  -2.112  35.236  1.00  0.00     0.163 HD
BRANCH  14  16
HETATM   16  C4  UNK     1      19.640  -2.700  37.076  1.00  0.00     0.162 C 
BRANCH  16  17
HETATM   17  C7  UNK     1      20.118  -4.121  36.993  1.00  0.00    -0.023 A 
HETATM   18  C13 UNK     1      19.419  -5.057  36.254  1.00  0.00     0.012 A 
HETATM   19  C15 UNK     1      19.887  -6.366  36.196  1.00  0.00     0.020 A 
HETATM   20  C16 UNK     1      21.046  -6.670  36.891  1.00  0.00     0.116 A 
HETATM   21  N2  UNK     1      21.749  -5.775  37.621  1.00  0.00    -0.273 NA
HETATM   22  C14 UNK     1      21.263  -4.514  37.654  1.00  0.00     0.124 A 
ENDBRANCH  16  17
ENDBRANCH  14  16
ENDBRANCH   4  12
TORSDOF 3
ENDMDL
MODEL 6
REMARK VINA RESULT:      -8.3      6.659     11.164
REMARK  3 active torsions:
REMARK  status: ('A' for Active; 'I' for Inactive)
REMARK    1  A    between atoms: C4_9  and  N1_4 
REMARK       I    between atoms: C6_11  and  N1_4 
REMARK    2  A    between atoms: C2_7  and  C6_11 
REMARK    3  A    between atoms: C4_9  and  C7_12 
ROOT
HETATM    1  O1  UNK     1      19.647  -1.046  34.897  1.00  0.00    -0.274 OA
HETATM    2  O3  UNK     1      20.570  -3.096  34.494  1.00  0.00    -0.259 OA
HETATM    3  C1  UNK     1      18.334  -0.695  36.913  1.00  0.00    -0.001 A 
HETATM    4  C2  UNK     1      19.312  -2.871  36.489  1.00  0.00     0.108 A 
HETATM    5  C3  UNK     1      18.875  -0.209  35.727  1.00  0.00     0.089 A 
HETATM    6  C5  UNK     1      18.578  -2.081  37.281  1.00  0.00     0.037 A 
HETATM    7  C8  UNK     1      17.574   0.165  37.709  1.00  0.00     0.014 A 
HETATM    8  C9  UNK     1      19.897  -2.375  35.223  1.00  0.00     0.304 A 
HETATM    9  C10 UNK     1      18.678   1.107  35.316  1.00  0.00     0.038 A 
HETATM   10  C11 UNK     1      17.368   1.488  37.311  1.00  0.00     0.001 A 
HETATM   11  C12 UNK     1      17.919   1.959  36.115  1.00  0.00     0.003 A 
ENDROOT
BRANCH   4  12
HETATM   12  C6  UNK     1      19.503  -4.252  36.947  1.00  0.00     0.258 C 
HETATM   13  O2  UNK     1      20.504  -4.574  37.584  1.00  0.00    -0.267 OA
HETATM   14  N1  UNK     1      18.463  -5.088  36.582  1.00  0.00    -0.352 N 
HETATM   15  H4  UNK     1      17.669  -4.722  36.066  1.00  0.00     0.163 HD
BRANCH  14  16
HETATM   16  C4  UNK     1      18.427  -6.494  36.916  1.00  0.00     0.162 C 
BRANCH  16  17
HETATM   17  C7  UNK     1      19.468  -7.277  36.169  1.00  0.00    -0.023 A 
HETATM   18  C13 UNK     1      20.100  -8.353  36.765  1.00  0.00     0.012 A 
HETATM   19  C15 UNK     1      21.060  -9.059  36.048  1.00  0.00     0.020 A 
HETATM   20  C16 UNK     1      21.339  -8.644  34.756  1.00  0.00     0.116 A 
HETATM   21  N2  UNK     1      20.737  -7.596  34.150  1.00  0.00    -0.273 NA
HETATM   22  C14 UNK     1      19.810  -6.934  34.878  1.00  0.00     0.124 A 
ENDBRANCH  16  17
ENDBRANCH  14  16
ENDBRANCH   4  12
TORSDOF 3
ENDMDL
MODEL 7
REMARK VINA RESULT:      -8.2      1.437      2.669
REMARK  3 active torsions:
REMARK  status: ('A' for Active; 'I' for Inactive)
REMARK    1  A    between atoms: C4_9  and  N1_4 
REMARK       I    between atoms: C6_11  and  N1_4 
REMARK    2  A    between atoms: C2_7  and  C6_11 
REMARK    3  A    between atoms: C4_9  and  C7_12 
ROOT
HETATM    1  O1  UNK     1      19.111   1.824  29.120  1.00  0.00    -0.274 OA
HETATM    2  O3  UNK     1      18.422   3.951  29.586  1.00  0.00    -0.259 OA
HETATM    3  C1  UNK     1      19.448   0.245  30.939  1.00  0.00    -0.001 A 
HETATM    4  C2  UNK     1      18.716   2.501  31.436  1.00  0.00     0.108 A 
HETATM    5  C3  UNK     1      19.468   0.541  29.580  1.00  0.00     0.089 A 
HETATM    6  C5  UNK     1      19.054   1.284  31.878  1.00  0.00     0.037 A 
HETATM    7  C8  UNK     1      19.809  -1.039  31.355  1.00  0.00     0.014 A 
HETATM    8  C9  UNK     1      18.730   2.837  29.995  1.00  0.00     0.304 A 
HETATM    9  C10 UNK     1      19.837  -0.408  28.628  1.00  0.00     0.038 A 
HETATM   10  C11 UNK     1      20.180  -2.001  30.412  1.00  0.00     0.001 A 
HETATM   11  C12 UNK     1      20.195  -1.686  29.051  1.00  0.00     0.003 A 
ENDROOT
BRANCH   4  12
HETATM   12  C6  UNK     1      18.333   3.479  32.461  1.00  0.00     0.258 C 
HETATM   13  O2  UNK     1      17.643   3.148  33.423  1.00  0.00    -0.267 OA
HETATM   14  N1  UNK     1      18.825   4.746  32.205  1.00  0.00    -0.352 N 
HETATM   15  H4  UNK     1      19.400   4.917  31.386  1.00  0.00     0.163 HD
BRANCH  14  16
HETATM   16  C4  UNK     1      18.577   5.878  33.070  1.00  0.00     0.162 C 
BRANCH  16  17
HETATM   17  C7  UNK     1      17.420   6.708  32.593  1.00  0.00    -0.023 A 
HETATM   18  C13 UNK     1      16.322   6.915  33.407  1.00  0.00     0.012 A 
HETATM   19  C15 UNK     1      15.265   7.689  32.939  1.00  0.00     0.020 A 
HETATM   20  C16 UNK     1      15.367   8.220  31.663  1.00  0.00     0.116 A 
HETATM   21  N2  UNK     1      16.428   8.033  30.847  1.00  0.00    -0.273 NA
HETATM   22  C14 UNK     1      17.436   7.275  31.337  1.00  0.00     0.124 A 
ENDBRANCH  16  17
ENDBRANCH  14  16
ENDBRANCH   4  12
TORSDOF 3
ENDMDL
MODEL 8
REMARK VINA RESULT:      -8.2      6.992     10.046
REMARK  3 active torsions:
REMARK  status: ('A' for Active; 'I' for Inactive)
REMARK    1  A    between atoms: C4_9  and  N1_4 
REMARK       I    between atoms: C6_11  and  N1_4 
REMARK    2  A    between atoms: C2_7  and  C6_11 
REMARK    3  A    between atoms: C4_9  and  C7_12 
ROOT
HETATM    1  O1  UNK     1      20.063  -7.935  35.700  1.00  0.00    -0.274 OA
HETATM    2  O3  UNK     1      20.320  -6.006  34.505  1.00  0.00    -0.259 OA
HETATM    3  C1  UNK     1      19.892  -7.834  38.124  1.00  0.00    -0.001 A 
HETATM    4  C2  UNK     1      20.164  -5.785  36.859  1.00  0.00     0.108 A 
HETATM    5  C3  UNK     1      19.915  -8.575  36.947  1.00  0.00     0.089 A 
HETATM    6  C5  UNK     1      20.024  -6.387  38.046  1.00  0.00     0.037 A 
HETATM    7  C8  UNK     1      19.743  -8.504  39.340  1.00  0.00     0.014 A 
HETATM    8  C9  UNK     1      20.192  -6.554  35.594  1.00  0.00     0.304 A 
HETATM    9  C10 UNK     1      19.795  -9.963  36.952  1.00  0.00     0.038 A 
HETATM   10  C11 UNK     1      19.621  -9.896  39.361  1.00  0.00     0.001 A 
HETATM   11  C12 UNK     1      19.647 -10.625  38.169  1.00  0.00     0.003 A 
ENDROOT
BRANCH   4  12
HETATM   12  C6  UNK     1      20.289  -4.323  36.885  1.00  0.00     0.258 C 
HETATM   13  O2  UNK     1      21.021  -3.766  37.700  1.00  0.00    -0.267 OA
HETATM   14  N1  UNK     1      19.514  -3.700  35.923  1.00  0.00    -0.352 N 
HETATM   15  H4  UNK     1      18.951  -4.251  35.283  1.00  0.00     0.163 HD
BRANCH  14  16
HETATM   16  C4  UNK     1      19.469  -2.264  35.755  1.00  0.00     0.162 C 
BRANCH  16  17
HETATM   17  C7  UNK     1      19.502  -1.866  34.308  1.00  0.00    -0.023 A 
HETATM   18  C13 UNK     1      20.416  -2.438  33.442  1.00  0.00     0.012 A 
HETATM   19  C15 UNK     1      20.422  -2.049  32.107  1.00  0.00     0.020 A 
HETATM   20  C16 UNK     1      19.500  -1.097  31.705  1.00  0.00     0.116 A 
HETATM   21  N2  UNK     1      18.597  -0.522  32.530  1.00  0.00    -0.273 NA
HETATM   22  C14 UNK     1      18.621  -0.924  33.820  1.00  0.00     0.124 A 
ENDBRANCH  16  17
ENDBRANCH  14  16
ENDBRANCH   4  12
TORSDOF 3
ENDMDL
MODEL 9
REMARK VINA RESULT:      -8.1     13.821     16.853
REMARK  3 active torsions:
REMARK  status: ('A' for Active; 'I' for Inactive)
REMARK    1  A    between atoms: C4_9  and  N1_4 
REMARK       I    between atoms: C6_11  and  N1_4 
REMARK    2  A    between atoms: C2_7  and  C6_11 
REMARK    3  A    between atoms: C4_9  and  C7_12 
ROOT
HETATM    1  O1  UNK     1      19.273   1.100  15.443  1.00  0.00    -0.274 OA
HETATM    2  O3  UNK     1      19.415  -0.512  13.832  1.00  0.00    -0.259 OA
HETATM    3  C1  UNK     1      19.020   0.452  17.773  1.00  0.00    -0.001 A 
HETATM    4  C2  UNK     1      19.171  -1.262  16.066  1.00  0.00     0.108 A 
HETATM    5  C3  UNK     1      19.136   1.442  16.804  1.00  0.00     0.089 A 
HETATM    6  C5  UNK     1      19.041  -0.943  17.359  1.00  0.00     0.037 A 
HETATM    7  C8  UNK     1      18.886   0.830  19.111  1.00  0.00     0.014 A 
HETATM    8  C9  UNK     1      19.296  -0.224  15.018  1.00  0.00     0.304 A 
HETATM    9  C10 UNK     1      19.122   2.796  17.132  1.00  0.00     0.038 A 
HETATM   10  C11 UNK     1      18.871   2.184  19.457  1.00  0.00     0.001 A 
HETATM   11  C12 UNK     1      18.988   3.166  18.469  1.00  0.00     0.003 A 
ENDROOT
BRANCH   4  12
HETATM   12  C6  UNK     1      19.182  -2.695  15.749  1.00  0.00     0.258 C 
HETATM   13  O2  UNK     1      20.163  -3.390  16.005  1.00  0.00    -0.267 OA
HETATM   14  N1  UNK     1      18.007  -3.123  15.158  1.00  0.00    -0.352 N 
HETATM   15  H4  UNK     1      17.245  -2.471  15.001  1.00  0.00     0.163 HD
BRANCH  14  16
HETATM   16  C4  UNK     1      17.783  -4.493  14.752  1.00  0.00     0.162 C 
BRANCH  16  17
HETATM   17  C7  UNK     1      17.029  -5.271  15.793  1.00  0.00    -0.023 A 
HETATM   18  C13 UNK     1      16.243  -4.619  16.725  1.00  0.00     0.012 A 
HETATM   19  C15 UNK     1      15.557  -5.367  17.676  1.00  0.00     0.020 A 
HETATM   20  C16 UNK     1      15.695  -6.745  17.641  1.00  0.00     0.116 A 
HETATM   21  N2  UNK     1      16.457  -7.406  16.741  1.00  0.00    -0.273 NA
HETATM   22  C14 UNK     1      17.109  -6.647  15.833  1.00  0.00     0.124 A 
ENDBRANCH  16  17
ENDBRANCH  14  16
ENDBRANCH   4  12
TORSDOF 3
ENDMDL
MODEL 10
REMARK VINA RESULT:      -8.1      2.982      4.157
REMARK  3 active torsions:
REMARK  status: ('A' for Active; 'I' for Inactive)
REMARK    1  A    between atoms: C4_9  and  N1_4 
REMARK       I    between atoms: C6_11  and  N1_4 
REMARK    2  A    between atoms: C2_7  and  C6_11 
REMARK    3  A    between atoms: C4_9  and  C7_12 
ROOT
HETATM    1  O1  UNK     1      18.683  -0.221  33.826  1.00  0.00    -0.274 OA
HETATM    2  O3  UNK     1      18.935   0.311  31.619  1.00  0.00    -0.259 OA
HETATM    3  C1  UNK     1      17.947   1.483  35.396  1.00  0.00    -0.001 A 
HETATM    4  C2  UNK     1      18.212   2.051  33.056  1.00  0.00     0.108 A 
HETATM    5  C3  UNK     1      18.343   0.176  35.135  1.00  0.00     0.089 A 
HETATM    6  C5  UNK     1      17.889   2.434  34.296  1.00  0.00     0.037 A 
HETATM    7  C8  UNK     1      17.618   1.838  36.707  1.00  0.00     0.014 A 
HETATM    8  C9  UNK     1      18.637   0.665  32.754  1.00  0.00     0.304 A 
HETATM    9  C10 UNK     1      18.421  -0.783  36.143  1.00  0.00     0.038 A 
HETATM   10  C11 UNK     1      17.690   0.888  37.728  1.00  0.00     0.001 A 
HETATM   11  C12 UNK     1      18.092  -0.421  37.447  1.00  0.00     0.003 A 
ENDROOT
BRANCH   4  12
HETATM   12  C6  UNK     1      18.121   3.082  32.015  1.00  0.00     0.258 C 
HETATM   13  O2  UNK     1      17.596   2.839  30.930  1.00  0.00    -0.267 OA
HETATM   14  N1  UNK     1      18.678   4.287  32.402  1.00  0.00    -0.352 N 
HETATM   15  H4  UNK     1      19.076   4.393  33.329  1.00  0.00     0.163 HD
BRANCH  14  16
HETATM   16  C4  UNK     1      18.711   5.451  31.545  1.00  0.00     0.162 C 
BRANCH  16  17
HETATM   17  C7  UNK     1      17.587   6.402  31.845  1.00  0.00    -0.023 A 
HETATM   18  C13 UNK     1      16.885   6.308  33.032  1.00  0.00     0.012 A 
HETATM   19  C15 UNK     1      15.849   7.203  33.281  1.00  0.00     0.020 A 
HETATM   20  C16 UNK     1      15.571   8.157  32.316  1.00  0.00     0.116 A 
HETATM   21  N2  UNK     1      16.241   8.271  31.148  1.00  0.00    -0.273 NA
HETATM   22  C14 UNK     1      17.240   7.383  30.940  1.00  0.00     0.124 A 
ENDBRANCH  16  17
ENDBRANCH  14  16
ENDBRANCH   4  12
TORSDOF 3
ENDMDL
