MODEL 1
REMARK VINA RESULT:      -9.6      0.000      0.000
REMARK  4 active torsions:
REMARK  status: ('A' for Active; 'I' for Inactive)
REMARK    1  A    between atoms: C13_19  and  O2_3 
REMARK    2  A    between atoms: C6_12  and  O2_3 
REMARK    3  A    between atoms: C10_16  and  C3_9 
REMARK    4  A    between atoms: C12_18  and  C13_19 
ROOT
HETATM    1  O1  UNK     1      16.316   8.779  34.278  1.00  0.00    -0.307 OA
HETATM    2  O4  UNK     1      14.091   6.573  31.673  1.00  0.00    -0.287 OA
HETATM    3  C1  UNK     1      16.194   6.950  32.683  1.00  0.00     0.051 A 
HETATM    4  C2  UNK     1      16.896   7.742  33.590  1.00  0.00     0.090 A 
HETATM    5  C3  UNK     1      14.975   9.051  34.055  1.00  0.00     0.113 A 
HETATM    6  C4  UNK     1      16.836   5.907  32.012  1.00  0.00     0.055 A 
HETATM    7  C5  UNK     1      14.769   7.230  32.451  1.00  0.00     0.187 A 
HETATM    8  C6  UNK     1      18.189   5.664  32.254  1.00  0.00     0.080 A 
HETATM    9  C7  UNK     1      18.248   7.497  33.830  1.00  0.00     0.041 A 
HETATM   10  C8  UNK     1      14.192   8.356  33.214  1.00  0.00     0.095 A 
HETATM   11  C9  UNK     1      18.893   6.457  33.161  1.00  0.00     0.040 A 
ENDROOT
BRANCH   8  12
HETATM   12  O2  UNK     1      18.823   4.649  31.603  1.00  0.00    -0.275 OA
BRANCH  12  13
HETATM   13  C13 UNK     1      18.363   3.374  31.938  1.00  0.00     0.298 C 
HETATM   14  O5  UNK     1      17.894   3.048  33.020  1.00  0.00    -0.259 OA
BRANCH  13  15
HETATM   15  C12 UNK     1      18.503   2.435  30.797  1.00  0.00     0.041 A 
HETATM   16  C16 UNK     1      19.287   1.310  30.950  1.00  0.00     0.036 A 
HETATM   17  C18 UNK     1      19.417   0.428  29.878  1.00  0.00     0.011 A 
HETATM   18 Br1  UNK     1      20.484  -1.122  30.052  1.00  0.00    -0.051 Br
HETATM   19  C20 UNK     1      18.761   0.691  28.676  1.00  0.00     0.019 A 
HETATM   20  C19 UNK     1      17.974   1.835  28.545  1.00  0.00     0.002 A 
HETATM   21  C17 UNK     1      17.843   2.717  29.618  1.00  0.00     0.017 A 
ENDBRANCH  13  15
ENDBRANCH  12  13
ENDBRANCH   8  12
BRANCH   5  22
HETATM   22  C10 UNK     1      14.452  10.179  34.851  1.00  0.00     0.108 A 
HETATM   23  O3  UNK     1      14.746  10.344  36.175  1.00  0.00    -0.320 OA
HETATM   24  C15 UNK     1      14.109  11.472  36.587  1.00  0.00     0.142 A 
HETATM   25  C14 UNK     1      13.406  12.036  35.549  1.00  0.00     0.027 A 
HETATM   26  C11 UNK     1      13.626  11.204  34.426  1.00  0.00     0.042 A 
ENDBRANCH   5  22
TORSDOF 4
ENDMDL
MODEL 2
REMARK VINA RESULT:      -9.1      7.242     11.083
REMARK  4 active torsions:
REMARK  status: ('A' for Active; 'I' for Inactive)
REMARK    1  A    between atoms: C13_19  and  O2_3 
REMARK    2  A    between atoms: C6_12  and  O2_3 
REMARK    3  A    between atoms: C10_16  and  C3_9 
REMARK    4  A    between atoms: C12_18  and  C13_19 
ROOT
HETATM    1  O1  UNK     1      18.961  -0.333  33.189  1.00  0.00    -0.307 OA
HETATM    2  O4  UNK     1      21.417  -3.454  32.278  1.00  0.00    -0.287 OA
HETATM    3  C1  UNK     1      20.093  -2.361  33.902  1.00  0.00     0.051 A 
HETATM    4  C2  UNK     1      19.259  -1.271  34.146  1.00  0.00     0.090 A 
HETATM    5  C3  UNK     1      19.519  -0.476  31.928  1.00  0.00     0.113 A 
HETATM    6  C4  UNK     1      20.361  -3.285  34.914  1.00  0.00     0.055 A 
HETATM    7  C5  UNK     1      20.680  -2.520  32.563  1.00  0.00     0.187 A 
HETATM    8  C6  UNK     1      19.788  -3.110  36.175  1.00  0.00     0.080 A 
HETATM    9  C7  UNK     1      18.688  -1.098  35.407  1.00  0.00     0.041 A 
HETATM   10  C8  UNK     1      20.330  -1.484  31.570  1.00  0.00     0.095 A 
HETATM   11  C9  UNK     1      18.954  -2.019  36.421  1.00  0.00     0.040 A 
ENDROOT
BRANCH   8  12
HETATM   12  O2  UNK     1      20.045  -4.006  37.167  1.00  0.00    -0.275 OA
BRANCH  12  13
HETATM   13  C13 UNK     1      19.566  -5.295  36.918  1.00  0.00     0.298 C 
HETATM   14  O5  UNK     1      18.435  -5.573  36.547  1.00  0.00    -0.259 OA
BRANCH  13  15
HETATM   15  C12 UNK     1      20.619  -6.314  37.151  1.00  0.00     0.041 A 
HETATM   16  C16 UNK     1      20.686  -7.408  36.313  1.00  0.00     0.036 A 
HETATM   17  C18 UNK     1      21.676  -8.366  36.533  1.00  0.00     0.011 A 
HETATM   18 Br1  UNK     1      21.797  -9.877  35.405  1.00  0.00    -0.051 Br
HETATM   19  C20 UNK     1      22.578  -8.208  37.585  1.00  0.00     0.019 A 
HETATM   20  C19 UNK     1      22.489  -7.094  38.419  1.00  0.00     0.002 A 
HETATM   21  C17 UNK     1      21.499  -6.135  38.200  1.00  0.00     0.017 A 
ENDBRANCH  13  15
ENDBRANCH  12  13
ENDBRANCH   8  12
BRANCH   5  22
HETATM   22  C10 UNK     1      19.127   0.583  30.976  1.00  0.00     0.108 A 
HETATM   23  O3  UNK     1      18.466   1.714  31.365  1.00  0.00    -0.320 OA
HETATM   24  C15 UNK     1      18.267   2.463  30.249  1.00  0.00     0.142 A 
HETATM   25  C14 UNK     1      18.788   1.831  29.144  1.00  0.00     0.027 A 
HETATM   26  C11 UNK     1      19.344   0.616  29.611  1.00  0.00     0.042 A 
ENDBRANCH   5  22
TORSDOF 4
ENDMDL
MODEL 3
REMARK VINA RESULT:      -9.0      3.544      9.352
REMARK  4 active torsions:
REMARK  status: ('A' for Active; 'I' for Inactive)
REMARK    1  A    between atoms: C13_19  and  O2_3 
REMARK    2  A    between atoms: C6_12  and  O2_3 
REMARK    3  A    between atoms: C10_16  and  C3_9 
REMARK    4  A    between atoms: C12_18  and  C13_19 
ROOT
HETATM    1  O1  UNK     1      19.225   3.002  30.092  1.00  0.00    -0.307 OA
HETATM    2  O4  UNK     1      17.674   2.885  33.857  1.00  0.00    -0.287 OA
HETATM    3  C1  UNK     1      18.304   4.197  31.996  1.00  0.00     0.051 A 
HETATM    4  C2  UNK     1      18.840   4.165  30.710  1.00  0.00     0.090 A 
HETATM    5  C3  UNK     1      19.079   1.808  30.781  1.00  0.00     0.113 A 
HETATM    6  C4  UNK     1      17.930   5.411  32.575  1.00  0.00     0.055 A 
HETATM    7  C5  UNK     1      18.140   2.932  32.728  1.00  0.00     0.187 A 
HETATM    8  C6  UNK     1      18.096   6.596  31.857  1.00  0.00     0.080 A 
HETATM    9  C7  UNK     1      19.006   5.351  29.993  1.00  0.00     0.041 A 
HETATM   10  C8  UNK     1      18.570   1.709  32.020  1.00  0.00     0.095 A 
HETATM   11  C9  UNK     1      18.633   6.566  30.569  1.00  0.00     0.040 A 
ENDROOT
BRANCH   8  12
HETATM   12  O2  UNK     1      17.733   7.785  32.414  1.00  0.00    -0.275 OA
BRANCH  12  13
HETATM   13  C13 UNK     1      16.550   8.323  31.903  1.00  0.00     0.298 C 
HETATM   14  O5  UNK     1      16.170   8.234  30.744  1.00  0.00    -0.259 OA
BRANCH  13  15
HETATM   15  C12 UNK     1      15.779   9.025  32.959  1.00  0.00     0.041 A 
HETATM   16  C16 UNK     1      14.717   9.825  32.590  1.00  0.00     0.036 A 
HETATM   17  C18 UNK     1      13.993  10.484  33.583  1.00  0.00     0.011 A 
HETATM   18 Br1  UNK     1      12.533  11.589  33.114  1.00  0.00    -0.051 Br
HETATM   19  C20 UNK     1      14.346  10.329  34.923  1.00  0.00     0.019 A 
HETATM   20  C19 UNK     1      15.423   9.515  35.271  1.00  0.00     0.002 A 
HETATM   21  C17 UNK     1      16.149   8.855  34.278  1.00  0.00     0.017 A 
ENDBRANCH  13  15
ENDBRANCH  12  13
ENDBRANCH   8  12
BRANCH   5  22
HETATM   22  C10 UNK     1      19.516   0.620  30.022  1.00  0.00     0.108 A 
HETATM   23  O3  UNK     1      20.262  -0.378  30.583  1.00  0.00    -0.320 OA
HETATM   24  C15 UNK     1      20.481  -1.305  29.614  1.00  0.00     0.142 A 
HETATM   25  C14 UNK     1      19.888  -0.920  28.435  1.00  0.00     0.027 A 
HETATM   26  C11 UNK     1      19.263   0.323  28.695  1.00  0.00     0.042 A 
ENDBRANCH   5  22
TORSDOF 4
ENDMDL
MODEL 4
REMARK VINA RESULT:      -9.0      2.166      3.130
REMARK  4 active torsions:
REMARK  status: ('A' for Active; 'I' for Inactive)
REMARK    1  A    between atoms: C13_19  and  O2_3 
REMARK    2  A    between atoms: C6_12  and  O2_3 
REMARK    3  A    between atoms: C10_16  and  C3_9 
REMARK    4  A    between atoms: C12_18  and  C13_19 
ROOT
HETATM    1  O1  UNK     1      17.749   8.395  32.322  1.00  0.00    -0.307 OA
HETATM    2  O4  UNK     1      19.841   5.860  34.728  1.00  0.00    -0.287 OA
HETATM    3  C1  UNK     1      18.872   6.261  32.611  1.00  0.00     0.051 A 
HETATM    4  C2  UNK     1      18.156   7.176  31.842  1.00  0.00     0.090 A 
HETATM    5  C3  UNK     1      18.060   8.726  33.632  1.00  0.00     0.113 A 
HETATM    6  C4  UNK     1      19.261   5.034  32.069  1.00  0.00     0.055 A 
HETATM    7  C5  UNK     1      19.212   6.612  33.998  1.00  0.00     0.187 A 
HETATM    8  C6  UNK     1      18.926   4.728  30.749  1.00  0.00     0.080 A 
HETATM    9  C7  UNK     1      17.822   6.868  30.522  1.00  0.00     0.041 A 
HETATM   10  C8  UNK     1      18.750   7.934  34.468  1.00  0.00     0.095 A 
HETATM   11  C9  UNK     1      18.208   5.643  29.978  1.00  0.00     0.040 A 
ENDROOT
BRANCH   8  12
HETATM   12  O2  UNK     1      19.301   3.534  30.212  1.00  0.00    -0.275 OA
BRANCH  12  13
HETATM   13  C13 UNK     1      18.430   2.478  30.492  1.00  0.00     0.298 C 
HETATM   14  O5  UNK     1      17.310   2.588  30.969  1.00  0.00    -0.259 OA
BRANCH  13  15
HETATM   15  C12 UNK     1      19.033   1.173  30.126  1.00  0.00     0.041 A 
HETATM   16  C16 UNK     1      19.500   0.348  31.129  1.00  0.00     0.036 A 
HETATM   17  C18 UNK     1      20.066  -0.879  30.784  1.00  0.00     0.011 A 
HETATM   18 Br1  UNK     1      20.717  -2.033  32.131  1.00  0.00    -0.051 Br
HETATM   19  C20 UNK     1      20.153  -1.254  29.443  1.00  0.00     0.019 A 
HETATM   20  C19 UNK     1      19.675  -0.403  28.448  1.00  0.00     0.002 A 
HETATM   21  C17 UNK     1      19.108   0.825  28.792  1.00  0.00     0.017 A 
ENDBRANCH  13  15
ENDBRANCH  12  13
ENDBRANCH   8  12
BRANCH   5  22
HETATM   22  C10 UNK     1      17.582  10.061  34.043  1.00  0.00     0.108 A 
HETATM   23  O3  UNK     1      16.304  10.286  34.471  1.00  0.00    -0.320 OA
HETATM   24  C15 UNK     1      16.209  11.609  34.767  1.00  0.00     0.142 A 
HETATM   25  C14 UNK     1      17.407  12.243  34.535  1.00  0.00     0.027 A 
HETATM   26  C11 UNK     1      18.296  11.246  34.067  1.00  0.00     0.042 A 
ENDBRANCH   5  22
TORSDOF 4
ENDMDL
MODEL 5
REMARK VINA RESULT:      -9.0      3.637      9.442
REMARK  4 active torsions:
REMARK  status: ('A' for Active; 'I' for Inactive)
REMARK    1  A    between atoms: C13_19  and  O2_3 
REMARK    2  A    between atoms: C6_12  and  O2_3 
REMARK    3  A    between atoms: C10_16  and  C3_9 
REMARK    4  A    between atoms: C12_18  and  C13_19 
ROOT
HETATM    1  O1  UNK     1      19.105   3.052  30.302  1.00  0.00    -0.307 OA
HETATM    2  O4  UNK     1      17.721   2.508  34.096  1.00  0.00    -0.287 OA
HETATM    3  C1  UNK     1      18.192   4.015  32.337  1.00  0.00     0.051 A 
HETATM    4  C2  UNK     1      18.675   4.130  31.035  1.00  0.00     0.090 A 
HETATM    5  C3  UNK     1      19.060   1.796  30.888  1.00  0.00     0.113 A 
HETATM    6  C4  UNK     1      17.768   5.147  33.035  1.00  0.00     0.055 A 
HETATM    7  C5  UNK     1      18.136   2.683  32.959  1.00  0.00     0.187 A 
HETATM    8  C6  UNK     1      17.831   6.399  32.420  1.00  0.00     0.080 A 
HETATM    9  C7  UNK     1      18.738   5.381  30.422  1.00  0.00     0.041 A 
HETATM   10  C8  UNK     1      18.610   1.556  32.130  1.00  0.00     0.095 A 
HETATM   11  C9  UNK     1      18.315   6.515  31.116  1.00  0.00     0.040 A 
ENDROOT
BRANCH   8  12
HETATM   12  O2  UNK     1      17.420   7.508  33.094  1.00  0.00    -0.275 OA
BRANCH  12  13
HETATM   13  C13 UNK     1      18.459   8.306  33.578  1.00  0.00     0.298 C 
HETATM   14  O5  UNK     1      19.617   7.947  33.733  1.00  0.00    -0.259 OA
BRANCH  13  15
HETATM   15  C12 UNK     1      17.985   9.680  33.881  1.00  0.00     0.041 A 
HETATM   16  C16 UNK     1      16.636   9.893  34.077  1.00  0.00     0.036 A 
HETATM   17  C18 UNK     1      16.192  11.183  34.362  1.00  0.00     0.011 A 
HETATM   18 Br1  UNK     1      14.351  11.512  34.634  1.00  0.00    -0.051 Br
HETATM   19  C20 UNK     1      17.107  12.233  34.445  1.00  0.00     0.019 A 
HETATM   20  C19 UNK     1      18.465  11.993  34.243  1.00  0.00     0.002 A 
HETATM   21  C17 UNK     1      18.911  10.701  33.958  1.00  0.00     0.017 A 
ENDBRANCH  13  15
ENDBRANCH  12  13
ENDBRANCH   8  12
BRANCH   5  22
HETATM   22  C10 UNK     1      19.537   0.708  30.010  1.00  0.00     0.108 A 
HETATM   23  O3  UNK     1      19.020   0.486  28.765  1.00  0.00    -0.320 OA
HETATM   24  C15 UNK     1      19.683  -0.577  28.241  1.00  0.00     0.142 A 
HETATM   25  C14 UNK     1      20.622  -1.047  29.130  1.00  0.00     0.027 A 
HETATM   26  C11 UNK     1      20.530  -0.218  30.273  1.00  0.00     0.042 A 
ENDBRANCH   5  22
TORSDOF 4
ENDMDL
MODEL 6
REMARK VINA RESULT:      -9.0      5.276      9.736
REMARK  4 active torsions:
REMARK  status: ('A' for Active; 'I' for Inactive)
REMARK    1  A    between atoms: C13_19  and  O2_3 
REMARK    2  A    between atoms: C6_12  and  O2_3 
REMARK    3  A    between atoms: C10_16  and  C3_9 
REMARK    4  A    between atoms: C12_18  and  C13_19 
ROOT
HETATM    1  O1  UNK     1      20.318  -2.332  33.542  1.00  0.00    -0.307 OA
HETATM    2  O4  UNK     1      17.622   0.655  34.180  1.00  0.00    -0.287 OA
HETATM    3  C1  UNK     1      19.183  -0.349  32.717  1.00  0.00     0.051 A 
HETATM    4  C2  UNK     1      20.089  -1.397  32.564  1.00  0.00     0.090 A 
HETATM    5  C3  UNK     1      19.621  -2.224  34.735  1.00  0.00     0.113 A 
HETATM    6  C4  UNK     1      18.990   0.573  31.687  1.00  0.00     0.055 A 
HETATM    7  C5  UNK     1      18.435  -0.236  33.979  1.00  0.00     0.187 A 
HETATM    8  C6  UNK     1      19.712   0.440  30.500  1.00  0.00     0.080 A 
HETATM    9  C7  UNK     1      20.810  -1.528  31.377  1.00  0.00     0.041 A 
HETATM   10  C8  UNK     1      18.718  -1.266  34.999  1.00  0.00     0.095 A 
HETATM   11  C9  UNK     1      20.620  -0.608  30.345  1.00  0.00     0.040 A 
ENDROOT
BRANCH   8  12
HETATM   12  O2  UNK     1      19.530   1.336  29.490  1.00  0.00    -0.275 OA
BRANCH  12  13
HETATM   13  C13 UNK     1      18.345   2.070  29.578  1.00  0.00     0.298 C 
HETATM   14  O5  UNK     1      17.236   1.671  29.254  1.00  0.00    -0.259 OA
BRANCH  13  15
HETATM   15  C12 UNK     1      18.592   3.423  30.136  1.00  0.00     0.041 A 
HETATM   16  C16 UNK     1      18.281   3.667  31.459  1.00  0.00     0.036 A 
HETATM   17  C18 UNK     1      18.513   4.938  31.982  1.00  0.00     0.011 A 
HETATM   18 Br1  UNK     1      18.099   5.307  33.789  1.00  0.00    -0.051 Br
HETATM   19  C20 UNK     1      19.050   5.938  31.173  1.00  0.00     0.019 A 
HETATM   20  C19 UNK     1      19.355   5.668  29.839  1.00  0.00     0.002 A 
HETATM   21  C17 UNK     1      19.124   4.396  29.314  1.00  0.00     0.017 A 
ENDBRANCH  13  15
ENDBRANCH  12  13
ENDBRANCH   8  12
BRANCH   5  22
HETATM   22  C10 UNK     1      19.938  -3.284  35.713  1.00  0.00     0.108 A 
HETATM   23  O3  UNK     1      20.152  -4.583  35.346  1.00  0.00    -0.320 OA
HETATM   24  C15 UNK     1      20.418  -5.280  36.482  1.00  0.00     0.142 A 
HETATM   25  C14 UNK     1      20.377  -4.450  37.578  1.00  0.00     0.027 A 
HETATM   26  C11 UNK     1      20.067  -3.160  37.084  1.00  0.00     0.042 A 
ENDBRANCH   5  22
TORSDOF 4
ENDMDL
MODEL 7
REMARK VINA RESULT:      -8.7      7.383     10.162
REMARK  4 active torsions:
REMARK  status: ('A' for Active; 'I' for Inactive)
REMARK    1  A    between atoms: C13_19  and  O2_3 
REMARK    2  A    between atoms: C6_12  and  O2_3 
REMARK    3  A    between atoms: C10_16  and  C3_9 
REMARK    4  A    between atoms: C12_18  and  C13_19 
ROOT
HETATM    1  O1  UNK     1      19.036   0.085  34.155  1.00  0.00    -0.307 OA
HETATM    2  O4  UNK     1      17.426   0.141  37.898  1.00  0.00    -0.287 OA
HETATM    3  C1  UNK     1      18.674  -1.042  36.277  1.00  0.00     0.051 A 
HETATM    4  C2  UNK     1      19.200  -0.995  34.987  1.00  0.00     0.090 A 
HETATM    5  C3  UNK     1      18.311   1.172  34.619  1.00  0.00     0.113 A 
HETATM    6  C4  UNK     1      18.873  -2.167  37.080  1.00  0.00     0.055 A 
HETATM    7  C5  UNK     1      17.912   0.113  36.776  1.00  0.00     0.187 A 
HETATM    8  C6  UNK     1      19.602  -3.248  36.581  1.00  0.00     0.080 A 
HETATM    9  C7  UNK     1      19.928  -2.076  34.490  1.00  0.00     0.041 A 
HETATM   10  C8  UNK     1      17.763   1.248  35.843  1.00  0.00     0.095 A 
HETATM   11  C9  UNK     1      20.128  -3.203  35.289  1.00  0.00     0.040 A 
ENDROOT
BRANCH   8  12
HETATM   12  O2  UNK     1      19.800  -4.349  37.357  1.00  0.00    -0.275 OA
BRANCH  12  13
HETATM   13  C13 UNK     1      19.273  -5.529  36.827  1.00  0.00     0.298 C 
HETATM   14  O5  UNK     1      18.118  -5.690  36.460  1.00  0.00    -0.259 OA
BRANCH  13  15
HETATM   15  C12 UNK     1      20.306  -6.592  36.749  1.00  0.00     0.041 A 
HETATM   16  C16 UNK     1      21.244  -6.687  37.756  1.00  0.00     0.036 A 
HETATM   17  C18 UNK     1      22.214  -7.686  37.683  1.00  0.00     0.011 A 
HETATM   18 Br1  UNK     1      23.515  -7.844  39.044  1.00  0.00    -0.051 Br
HETATM   19  C20 UNK     1      22.225  -8.569  36.603  1.00  0.00     0.019 A 
HETATM   20  C19 UNK     1      21.267  -8.453  35.597  1.00  0.00     0.002 A 
HETATM   21  C17 UNK     1      20.295  -7.453  35.670  1.00  0.00     0.017 A 
ENDBRANCH  13  15
ENDBRANCH  12  13
ENDBRANCH   8  12
BRANCH   5  22
HETATM   22  C10 UNK     1      18.203   2.278  33.648  1.00  0.00     0.108 A 
HETATM   23  O3  UNK     1      17.983   2.069  32.316  1.00  0.00    -0.320 OA
HETATM   24  C15 UNK     1      17.938   3.291  31.723  1.00  0.00     0.142 A 
HETATM   25  C14 UNK     1      18.126   4.287  32.652  1.00  0.00     0.027 A 
HETATM   26  C11 UNK     1      18.298   3.636  33.897  1.00  0.00     0.042 A 
ENDBRANCH   5  22
TORSDOF 4
ENDMDL
MODEL 8
REMARK VINA RESULT:      -8.7      5.930     10.594
REMARK  4 active torsions:
REMARK  status: ('A' for Active; 'I' for Inactive)
REMARK    1  A    between atoms: C13_19  and  O2_3 
REMARK    2  A    between atoms: C6_12  and  O2_3 
REMARK    3  A    between atoms: C10_16  and  C3_9 
REMARK    4  A    between atoms: C12_18  and  C13_19 
ROOT
HETATM    1  O1  UNK     1      18.811  -2.887  36.843  1.00  0.00    -0.307 OA
HETATM    2  O4  UNK     1      20.666  -2.128  33.296  1.00  0.00    -0.287 OA
HETATM    3  C1  UNK     1      19.026  -1.485  34.871  1.00  0.00     0.051 A 
HETATM    4  C2  UNK     1      18.435  -1.802  36.093  1.00  0.00     0.090 A 
HETATM    5  C3  UNK     1      19.820  -3.707  36.359  1.00  0.00     0.113 A 
HETATM    6  C4  UNK     1      18.602  -0.367  34.151  1.00  0.00     0.055 A 
HETATM    7  C5  UNK     1      20.101  -2.348  34.358  1.00  0.00     0.187 A 
HETATM    8  C6  UNK     1      17.580   0.434  34.662  1.00  0.00     0.080 A 
HETATM    9  C7  UNK     1      17.413  -0.999  36.603  1.00  0.00     0.041 A 
HETATM   10  C8  UNK     1      20.469  -3.503  35.202  1.00  0.00     0.095 A 
HETATM   11  C9  UNK     1      16.987   0.119  35.885  1.00  0.00     0.040 A 
ENDROOT
BRANCH   8  12
HETATM   12  O2  UNK     1      17.161   1.527  33.966  1.00  0.00    -0.275 OA
BRANCH  12  13
HETATM   13  C13 UNK     1      18.065   2.592  33.966  1.00  0.00     0.298 C 
HETATM   14  O5  UNK     1      18.624   3.049  34.953  1.00  0.00    -0.259 OA
BRANCH  13  15
HETATM   15  C12 UNK     1      18.282   3.113  32.594  1.00  0.00     0.041 A 
HETATM   16  C16 UNK     1      18.198   2.241  31.528  1.00  0.00     0.036 A 
HETATM   17  C18 UNK     1      18.402   2.731  30.238  1.00  0.00     0.011 A 
HETATM   18 Br1  UNK     1      18.295   1.565  28.755  1.00  0.00    -0.051 Br
HETATM   19  C20 UNK     1      18.686   4.083  30.043  1.00  0.00     0.019 A 
HETATM   20  C19 UNK     1      18.766   4.944  31.136  1.00  0.00     0.002 A 
HETATM   21  C17 UNK     1      18.562   4.454  32.427  1.00  0.00     0.017 A 
ENDBRANCH  13  15
ENDBRANCH  12  13
ENDBRANCH   8  12
BRANCH   5  22
HETATM   22  C10 UNK     1      20.150  -4.839  37.248  1.00  0.00     0.108 A 
HETATM   23  O3  UNK     1      19.260  -5.837  37.530  1.00  0.00    -0.320 OA
HETATM   24  C15 UNK     1      19.887  -6.705  38.367  1.00  0.00     0.142 A 
HETATM   25  C14 UNK     1      21.169  -6.283  38.630  1.00  0.00     0.027 A 
HETATM   26  C11 UNK     1      21.342  -5.077  37.908  1.00  0.00     0.042 A 
ENDBRANCH   5  22
TORSDOF 4
ENDMDL
MODEL 9
REMARK VINA RESULT:      -8.7     10.069     15.580
REMARK  4 active torsions:
REMARK  status: ('A' for Active; 'I' for Inactive)
REMARK    1  A    between atoms: C13_19  and  O2_3 
REMARK    2  A    between atoms: C6_12  and  O2_3 
REMARK    3  A    between atoms: C10_16  and  C3_9 
REMARK    4  A    between atoms: C12_18  and  C13_19 
ROOT
HETATM    1  O1  UNK     1      22.472  -8.269  36.976  1.00  0.00    -0.307 OA
HETATM    2  O4  UNK     1      19.771  -7.617  33.996  1.00  0.00    -0.287 OA
HETATM    3  C1  UNK     1      20.741  -6.862  36.015  1.00  0.00     0.051 A 
HETATM    4  C2  UNK     1      21.685  -7.145  37.000  1.00  0.00     0.090 A 
HETATM    5  C3  UNK     1      22.315  -9.163  35.928  1.00  0.00     0.113 A 
HETATM    6  C4  UNK     1      19.968  -5.701  36.090  1.00  0.00     0.055 A 
HETATM    7  C5  UNK     1      20.577  -7.804  34.897  1.00  0.00     0.187 A 
HETATM    8  C6  UNK     1      20.146  -4.825  37.162  1.00  0.00     0.080 A 
HETATM    9  C7  UNK     1      21.862  -6.268  38.070  1.00  0.00     0.041 A 
HETATM   10  C8  UNK     1      21.446  -8.998  34.918  1.00  0.00     0.095 A 
HETATM   11  C9  UNK     1      21.091  -5.107  38.150  1.00  0.00     0.040 A 
ENDROOT
BRANCH   8  12
HETATM   12  O2  UNK     1      19.397  -3.691  37.243  1.00  0.00    -0.275 OA
BRANCH  12  13
HETATM   13  C13 UNK     1      19.896  -2.616  36.504  1.00  0.00     0.298 C 
HETATM   14  O5  UNK     1      20.962  -2.599  35.906  1.00  0.00    -0.259 OA
BRANCH  13  15
HETATM   15  C12 UNK     1      18.954  -1.469  36.521  1.00  0.00     0.041 A 
HETATM   16  C16 UNK     1      18.956  -0.588  35.458  1.00  0.00     0.036 A 
HETATM   17  C18 UNK     1      18.071   0.489  35.474  1.00  0.00     0.011 A 
HETATM   18 Br1  UNK     1      18.047   1.715  34.036  1.00  0.00    -0.051 Br
HETATM   19  C20 UNK     1      17.203   0.663  36.552  1.00  0.00     0.019 A 
HETATM   20  C19 UNK     1      17.220  -0.240  37.614  1.00  0.00     0.002 A 
HETATM   21  C17 UNK     1      18.106  -1.319  37.599  1.00  0.00     0.017 A 
ENDBRANCH  13  15
ENDBRANCH  12  13
ENDBRANCH   8  12
BRANCH   5  22
HETATM   22  C10 UNK     1      23.215 -10.332  35.997  1.00  0.00     0.108 A 
HETATM   23  O3  UNK     1      24.515 -10.236  36.408  1.00  0.00    -0.320 OA
HETATM   24  C15 UNK     1      25.043 -11.487  36.352  1.00  0.00     0.142 A 
HETATM   25  C14 UNK     1      24.104 -12.389  35.911  1.00  0.00     0.027 A 
HETATM   26  C11 UNK     1      22.922 -11.646  35.681  1.00  0.00     0.042 A 
ENDBRANCH   5  22
TORSDOF 4
ENDMDL
MODEL 10
REMARK VINA RESULT:      -8.6      7.418     10.665
REMARK  4 active torsions:
REMARK  status: ('A' for Active; 'I' for Inactive)
REMARK    1  A    between atoms: C13_19  and  O2_3 
REMARK    2  A    between atoms: C6_12  and  O2_3 
REMARK    3  A    between atoms: C10_16  and  C3_9 
REMARK    4  A    between atoms: C12_18  and  C13_19 
ROOT
HETATM    1  O1  UNK     1      19.329  -0.793  33.383  1.00  0.00    -0.307 OA
HETATM    2  O4  UNK     1      17.621   0.334  36.906  1.00  0.00    -0.287 OA
HETATM    3  C1  UNK     1      18.868  -1.284  35.718  1.00  0.00     0.051 A 
HETATM    4  C2  UNK     1      19.430  -1.607  34.484  1.00  0.00     0.090 A 
HETATM    5  C3  UNK     1      18.633   0.400  33.506  1.00  0.00     0.113 A 
HETATM    6  C4  UNK     1      19.003  -2.150  36.804  1.00  0.00     0.055 A 
HETATM    7  C5  UNK     1      18.136  -0.015  35.854  1.00  0.00     0.187 A 
HETATM    8  C6  UNK     1      19.705  -3.346  36.646  1.00  0.00     0.080 A 
HETATM    9  C7  UNK     1      20.131  -2.803  34.328  1.00  0.00     0.041 A 
HETATM   10  C8  UNK     1      18.054   0.824  34.641  1.00  0.00     0.095 A 
HETATM   11  C9  UNK     1      20.267  -3.672  35.411  1.00  0.00     0.040 A 
ENDROOT
BRANCH   8  12
HETATM   12  O2  UNK     1      19.841  -4.198  37.700  1.00  0.00    -0.275 OA
BRANCH  12  13
HETATM   13  C13 UNK     1      20.923  -5.075  37.596  1.00  0.00     0.298 C 
HETATM   14  O5  UNK     1      22.103  -4.755  37.632  1.00  0.00    -0.259 OA
BRANCH  13  15
HETATM   15  C12 UNK     1      20.466  -6.478  37.445  1.00  0.00     0.041 A 
HETATM   16  C16 UNK     1      21.127  -7.304  36.559  1.00  0.00     0.036 A 
HETATM   17  C18 UNK     1      20.697  -8.623  36.418  1.00  0.00     0.011 A 
HETATM   18 Br1  UNK     1      21.578  -9.782  35.213  1.00  0.00    -0.051 Br
HETATM   19  C20 UNK     1      19.615  -9.088  37.165  1.00  0.00     0.019 A 
HETATM   20  C19 UNK     1      18.962  -8.234  38.053  1.00  0.00     0.002 A 
HETATM   21  C17 UNK     1      19.392  -6.914  38.196  1.00  0.00     0.017 A 
ENDBRANCH  13  15
ENDBRANCH  12  13
ENDBRANCH   8  12
BRANCH   5  22
HETATM   22  C10 UNK     1      18.593   1.200  32.266  1.00  0.00     0.108 A 
HETATM   23  O3  UNK     1      17.938   2.397  32.183  1.00  0.00    -0.320 OA
HETATM   24  C15 UNK     1      18.104   2.856  30.915  1.00  0.00     0.142 A 
HETATM   25  C14 UNK     1      18.857   1.973  30.177  1.00  0.00     0.027 A 
HETATM   26  C11 UNK     1      19.174   0.903  31.047  1.00  0.00     0.042 A 
ENDBRANCH   5  22
TORSDOF 4
ENDMDL
