MODEL 1
REMARK VINA RESULT:      -8.8      0.000      0.000
REMARK  4 active torsions:
REMARK  status: ('A' for Active; 'I' for Inactive)
REMARK    1  A    between atoms: C11_18  and  O2_2 
REMARK    2  A    between atoms: C3_10  and  O2_2 
REMARK       I    between atoms: C10_17  and  N1_6 
REMARK    3  A    between atoms: C12_19  and  N1_6 
REMARK    4  A    between atoms: C10_17  and  C5_12 
ROOT
HETATM    1  O1  UNK     1      18.990   7.454  32.485  1.00  0.00    -0.271 OA
HETATM    2  O4  UNK     1      20.268   5.827  31.516  1.00  0.00    -0.259 OA
HETATM    3  C1  UNK     1      16.723   6.936  33.196  1.00  0.00     0.002 A 
HETATM    4  C2  UNK     1      17.768   7.845  33.067  1.00  0.00     0.123 A 
HETATM    5  C3  UNK     1      17.651   9.163  33.503  1.00  0.00     0.103 A 
HETATM    6  C4  UNK     1      16.912   5.574  32.719  1.00  0.00     0.037 A 
HETATM    7  C5  UNK     1      18.075   5.208  32.168  1.00  0.00     0.108 A 
HETATM    8  C6  UNK     1      15.527   7.361  33.779  1.00  0.00     0.014 A 
HETATM    9  C7  UNK     1      16.456   9.579  34.083  1.00  0.00     0.040 A 
HETATM   10  C8  UNK     1      19.200   6.158  32.021  1.00  0.00     0.304 A 
HETATM   11  C9  UNK     1      15.395   8.682  34.221  1.00  0.00     0.004 A 
ENDROOT
BRANCH   7  12
HETATM   12  C10 UNK     1      18.169   3.815  31.717  1.00  0.00     0.263 C 
HETATM   13  O5  UNK     1      17.976   2.900  32.517  1.00  0.00    -0.267 OA
HETATM   14  N1  UNK     1      18.484   3.723  30.369  1.00  0.00    -0.305 N 
HETATM   15  H5  UNK     1      18.637   4.569  29.826  1.00  0.00     0.170 HD
BRANCH  14  16
HETATM   16  C12 UNK     1      18.651   2.553  29.616  1.00  0.00     0.160 A 
HETATM   17  N2  UNK     1      18.003   2.343  28.479  1.00  0.00    -0.110 NA
HETATM   18  O3  UNK     1      18.444   1.092  28.062  1.00  0.00    -0.216 OA
HETATM   19  C14 UNK     1      19.335   0.607  28.963  1.00  0.00     0.078 A 
HETATM   20  C13 UNK     1      19.501   1.509  29.980  1.00  0.00     0.087 A 
HETATM   21  C16 UNK     1      19.905  -0.715  28.677  1.00  0.00     0.079 C 
ENDBRANCH  14  16
ENDBRANCH   7  12
BRANCH   5  22
HETATM   22  O2  UNK     1      18.681  10.041  33.371  1.00  0.00    -0.349 OA
BRANCH  22  23
HETATM   23  C11 UNK     1      19.414  10.366  34.552  1.00  0.00     0.171 C 
HETATM   24  C15 UNK     1      20.736   9.629  34.531  1.00  0.00     0.034 C 
ENDBRANCH  22  23
ENDBRANCH   5  22
TORSDOF 4
ENDMDL
MODEL 2
REMARK VINA RESULT:      -8.8      3.139      7.790
REMARK  4 active torsions:
REMARK  status: ('A' for Active; 'I' for Inactive)
REMARK    1  A    between atoms: C11_18  and  O2_2 
REMARK    2  A    between atoms: C3_10  and  O2_2 
REMARK       I    between atoms: C10_17  and  N1_6 
REMARK    3  A    between atoms: C12_19  and  N1_6 
REMARK    4  A    between atoms: C10_17  and  C5_12 
ROOT
HETATM    1  O1  UNK     1      18.356   1.492  32.019  1.00  0.00    -0.271 OA
HETATM    2  O4  UNK     1      18.204   3.308  30.642  1.00  0.00    -0.259 OA
HETATM    3  C1  UNK     1      18.358   1.810  34.430  1.00  0.00     0.002 A 
HETATM    4  C2  UNK     1      18.409   0.966  33.325  1.00  0.00     0.123 A 
HETATM    5  C3  UNK     1      18.513  -0.417  33.462  1.00  0.00     0.103 A 
HETATM    6  C4  UNK     1      18.250   3.245  34.215  1.00  0.00     0.037 A 
HETATM    7  C5  UNK     1      18.199   3.739  32.972  1.00  0.00     0.108 A 
HETATM    8  C6  UNK     1      18.413   1.251  35.708  1.00  0.00     0.014 A 
HETATM    9  C7  UNK     1      18.568  -0.966  34.740  1.00  0.00     0.040 A 
HETATM   10  C8  UNK     1      18.251   2.860  31.783  1.00  0.00     0.304 A 
HETATM   11  C9  UNK     1      18.518  -0.136  35.862  1.00  0.00     0.004 A 
ENDROOT
BRANCH   7  12
HETATM   12  C10 UNK     1      18.090   5.198  32.858  1.00  0.00     0.263 C 
HETATM   13  O5  UNK     1      19.053   5.906  33.151  1.00  0.00    -0.267 OA
HETATM   14  N1  UNK     1      16.838   5.594  32.412  1.00  0.00    -0.305 N 
HETATM   15  H5  UNK     1      16.123   4.896  32.225  1.00  0.00     0.170 HD
BRANCH  14  16
HETATM   16  C12 UNK     1      16.393   6.904  32.191  1.00  0.00     0.160 A 
HETATM   17  N2  UNK     1      16.603   7.542  31.049  1.00  0.00    -0.110 NA
HETATM   18  O3  UNK     1      16.015   8.787  31.241  1.00  0.00    -0.216 OA
HETATM   19  C14 UNK     1      15.479   8.843  32.486  1.00  0.00     0.078 A 
HETATM   20  C13 UNK     1      15.696   7.658  33.136  1.00  0.00     0.087 A 
HETATM   21  C16 UNK     1      14.813  10.098  32.859  1.00  0.00     0.079 C 
ENDBRANCH  14  16
ENDBRANCH   7  12
BRANCH   5  22
HETATM   22  O2  UNK     1      18.562  -1.230  32.373  1.00  0.00    -0.349 OA
BRANCH  22  23
HETATM   23  C11 UNK     1      19.838  -1.758  32.013  1.00  0.00     0.171 C 
HETATM   24  C15 UNK     1      20.235  -1.208  30.659  1.00  0.00     0.034 C 
ENDBRANCH  22  23
ENDBRANCH   5  22
TORSDOF 4
ENDMDL
MODEL 3
REMARK VINA RESULT:      -8.6      1.250      2.522
REMARK  4 active torsions:
REMARK  status: ('A' for Active; 'I' for Inactive)
REMARK    1  A    between atoms: C11_18  and  O2_2 
REMARK    2  A    between atoms: C3_10  and  O2_2 
REMARK       I    between atoms: C10_17  and  N1_6 
REMARK    3  A    between atoms: C12_19  and  N1_6 
REMARK    4  A    between atoms: C10_17  and  C5_12 
ROOT
HETATM    1  O1  UNK     1      16.810   7.537  32.576  1.00  0.00    -0.271 OA
HETATM    2  O4  UNK     1      15.782   5.760  31.574  1.00  0.00    -0.259 OA
HETATM    3  C1  UNK     1      19.099   7.311  33.365  1.00  0.00     0.002 A 
HETATM    4  C2  UNK     1      17.952   8.081  33.196  1.00  0.00     0.123 A 
HETATM    5  C3  UNK     1      17.886   9.404  33.627  1.00  0.00     0.103 A 
HETATM    6  C4  UNK     1      19.099   5.935  32.893  1.00  0.00     0.037 A 
HETATM    7  C5  UNK     1      18.011   5.424  32.303  1.00  0.00     0.108 A 
HETATM    8  C6  UNK     1      20.211   7.886  33.984  1.00  0.00     0.014 A 
HETATM    9  C7  UNK     1      19.000   9.970  34.243  1.00  0.00     0.040 A 
HETATM   10  C8  UNK     1      16.781   6.224  32.113  1.00  0.00     0.304 A 
HETATM   11  C9  UNK     1      20.160   9.213  34.422  1.00  0.00     0.004 A 
ENDROOT
BRANCH   7  12
HETATM   12  C10 UNK     1      18.109   4.029  31.861  1.00  0.00     0.263 C 
HETATM   13  O5  UNK     1      17.919   3.119  32.667  1.00  0.00    -0.267 OA
HETATM   14  N1  UNK     1      18.423   3.930  30.513  1.00  0.00    -0.305 N 
HETATM   15  H5  UNK     1      18.573   4.773  29.965  1.00  0.00     0.170 HD
BRANCH  14  16
HETATM   16  C12 UNK     1      18.592   2.756  29.767  1.00  0.00     0.160 A 
HETATM   17  N2  UNK     1      17.956   2.543  28.624  1.00  0.00    -0.110 NA
HETATM   18  O3  UNK     1      18.395   1.289  28.217  1.00  0.00    -0.216 OA
HETATM   19  C14 UNK     1      19.274   0.804  29.130  1.00  0.00     0.078 A 
HETATM   20  C13 UNK     1      19.433   1.710  30.145  1.00  0.00     0.087 A 
HETATM   21  C16 UNK     1      19.842  -0.522  28.855  1.00  0.00     0.079 C 
ENDBRANCH  14  16
ENDBRANCH   7  12
BRANCH   5  22
HETATM   22  O2  UNK     1      16.759  10.145  33.455  1.00  0.00    -0.349 OA
BRANCH  22  23
HETATM   23  C11 UNK     1      15.961  10.393  34.613  1.00  0.00     0.171 C 
HETATM   24  C15 UNK     1      14.713   9.539  34.545  1.00  0.00     0.034 C 
ENDBRANCH  22  23
ENDBRANCH   5  22
TORSDOF 4
ENDMDL
MODEL 4
REMARK VINA RESULT:      -8.6      8.329      9.861
REMARK  4 active torsions:
REMARK  status: ('A' for Active; 'I' for Inactive)
REMARK    1  A    between atoms: C11_18  and  O2_2 
REMARK    2  A    between atoms: C3_10  and  O2_2 
REMARK       I    between atoms: C10_17  and  N1_6 
REMARK    3  A    between atoms: C12_19  and  N1_6 
REMARK    4  A    between atoms: C10_17  and  C5_12 
ROOT
HETATM    1  O1  UNK     1      19.480  -0.930  34.828  1.00  0.00    -0.271 OA
HETATM    2  O4  UNK     1      20.511  -2.839  34.115  1.00  0.00    -0.259 OA
HETATM    3  C1  UNK     1      18.443  -0.875  37.027  1.00  0.00     0.002 A 
HETATM    4  C2  UNK     1      18.765  -0.243  35.830  1.00  0.00     0.123 A 
HETATM    5  C3  UNK     1      18.399   1.077  35.574  1.00  0.00     0.103 A 
HETATM    6  C4  UNK     1      18.855  -2.255  37.228  1.00  0.00     0.037 A 
HETATM    7  C5  UNK     1      19.535  -2.902  36.273  1.00  0.00     0.108 A 
HETATM    8  C6  UNK     1      17.734  -0.161  37.996  1.00  0.00     0.014 A 
HETATM    9  C7  UNK     1      17.692   1.781  36.546  1.00  0.00     0.040 A 
HETATM   10  C8  UNK     1      19.889  -2.251  34.993  1.00  0.00     0.304 A 
HETATM   11  C9  UNK     1      17.359   1.165  37.754  1.00  0.00     0.004 A 
ENDROOT
BRANCH   7  12
HETATM   12  C10 UNK     1      19.906  -4.291  36.569  1.00  0.00     0.263 C 
HETATM   13  O5  UNK     1      21.074  -4.565  36.845  1.00  0.00    -0.267 OA
HETATM   14  N1  UNK     1      18.820  -5.149  36.487  1.00  0.00    -0.305 N 
HETATM   15  H5  UNK     1      17.906  -4.786  36.227  1.00  0.00     0.170 HD
BRANCH  14  16
HETATM   16  C12 UNK     1      18.815  -6.533  36.706  1.00  0.00     0.160 A 
HETATM   17  N2  UNK     1      18.566  -7.404  35.740  1.00  0.00    -0.110 NA
HETATM   18  O3  UNK     1      18.658  -8.643  36.363  1.00  0.00    -0.216 OA
HETATM   19  C14 UNK     1      18.958  -8.463  37.675  1.00  0.00     0.078 A 
HETATM   20  C13 UNK     1      19.069  -7.124  37.944  1.00  0.00     0.087 A 
HETATM   21  C16 UNK     1      19.094  -9.676  38.490  1.00  0.00     0.079 C 
ENDBRANCH  14  16
ENDBRANCH   7  12
BRANCH   5  22
HETATM   22  O2  UNK     1      18.721   1.681  34.400  1.00  0.00    -0.349 OA
BRANCH  22  23
HETATM   23  C11 UNK     1      18.362   3.055  34.256  1.00  0.00     0.171 C 
HETATM   24  C15 UNK     1      18.187   3.369  32.785  1.00  0.00     0.034 C 
ENDBRANCH  22  23
ENDBRANCH   5  22
TORSDOF 4
ENDMDL
MODEL 5
REMARK VINA RESULT:      -8.5      2.677      8.339
REMARK  4 active torsions:
REMARK  status: ('A' for Active; 'I' for Inactive)
REMARK    1  A    between atoms: C11_18  and  O2_2 
REMARK    2  A    between atoms: C3_10  and  O2_2 
REMARK       I    between atoms: C10_17  and  N1_6 
REMARK    3  A    between atoms: C12_19  and  N1_6 
REMARK    4  A    between atoms: C10_17  and  C5_12 
ROOT
HETATM    1  O1  UNK     1      18.713   0.813  32.622  1.00  0.00    -0.271 OA
HETATM    2  O4  UNK     1      17.926   2.776  33.484  1.00  0.00    -0.259 OA
HETATM    3  C1  UNK     1      19.509   0.743  30.326  1.00  0.00     0.002 A 
HETATM    4  C2  UNK     1      19.261   0.103  31.536  1.00  0.00     0.123 A 
HETATM    5  C3  UNK     1      19.540  -1.250  31.721  1.00  0.00     0.103 A 
HETATM    6  C4  UNK     1      19.193   2.157  30.200  1.00  0.00     0.037 A 
HETATM    7  C5  UNK     1      18.674   2.827  31.236  1.00  0.00     0.108 A 
HETATM    8  C6  UNK     1      20.053   0.005  29.272  1.00  0.00     0.014 A 
HETATM    9  C7  UNK     1      20.082  -1.978  30.665  1.00  0.00     0.040 A 
HETATM   10  C8  UNK     1      18.402   2.167  32.532  1.00  0.00     0.304 A 
HETATM   11  C9  UNK     1      20.338  -1.353  29.443  1.00  0.00     0.004 A 
ENDROOT
BRANCH   7  12
HETATM   12  C10 UNK     1      18.389   4.249  31.012  1.00  0.00     0.263 C 
HETATM   13  O5  UNK     1      18.690   4.770  29.938  1.00  0.00    -0.267 OA
HETATM   14  N1  UNK     1      17.785   4.840  32.113  1.00  0.00    -0.305 N 
HETATM   15  H5  UNK     1      17.610   4.290  32.949  1.00  0.00     0.170 HD
BRANCH  14  16
HETATM   16  C12 UNK     1      17.380   6.175  32.241  1.00  0.00     0.160 A 
HETATM   17  N2  UNK     1      18.245   7.175  32.314  1.00  0.00    -0.110 NA
HETATM   18  O3  UNK     1      17.449   8.308  32.432  1.00  0.00    -0.216 OA
HETATM   19  C14 UNK     1      16.142   7.940  32.425  1.00  0.00     0.078 A 
HETATM   20  C13 UNK     1      16.047   6.579  32.305  1.00  0.00     0.087 A 
HETATM   21  C16 UNK     1      15.155   9.021  32.543  1.00  0.00     0.079 C 
ENDBRANCH  14  16
ENDBRANCH   7  12
BRANCH   5  22
HETATM   22  O2  UNK     1      19.293  -1.863  32.909  1.00  0.00    -0.349 OA
BRANCH  22  23
HETATM   23  C11 UNK     1      20.397  -2.494  33.558  1.00  0.00     0.171 C 
HETATM   24  C15 UNK     1      20.204  -2.406  35.057  1.00  0.00     0.034 C 
ENDBRANCH  22  23
ENDBRANCH   5  22
TORSDOF 4
ENDMDL
MODEL 6
REMARK VINA RESULT:      -8.4      1.692      2.837
REMARK  4 active torsions:
REMARK  status: ('A' for Active; 'I' for Inactive)
REMARK    1  A    between atoms: C11_18  and  O2_2 
REMARK    2  A    between atoms: C3_10  and  O2_2 
REMARK       I    between atoms: C10_17  and  N1_6 
REMARK    3  A    between atoms: C12_19  and  N1_6 
REMARK    4  A    between atoms: C10_17  and  C5_12 
ROOT
HETATM    1  O1  UNK     1      16.839   7.955  33.024  1.00  0.00    -0.271 OA
HETATM    2  O4  UNK     1      15.780   6.061  32.311  1.00  0.00    -0.259 OA
HETATM    3  C1  UNK     1      19.146   7.828  33.781  1.00  0.00     0.002 A 
HETATM    4  C2  UNK     1      17.999   8.574  33.531  1.00  0.00     0.123 A 
HETATM    5  C3  UNK     1      17.949   9.946  33.770  1.00  0.00     0.103 A 
HETATM    6  C4  UNK     1      19.130   6.399  33.511  1.00  0.00     0.037 A 
HETATM    7  C5  UNK     1      18.026   5.817  33.027  1.00  0.00     0.108 A 
HETATM    8  C6  UNK     1      20.276   8.477  34.284  1.00  0.00     0.014 A 
HETATM    9  C7  UNK     1      19.080  10.586  34.271  1.00  0.00     0.040 A 
HETATM   10  C8  UNK     1      16.794   6.590  32.754  1.00  0.00     0.304 A 
HETATM   11  C9  UNK     1      20.241   9.854  34.528  1.00  0.00     0.004 A 
ENDROOT
BRANCH   7  12
HETATM   12  C10 UNK     1      18.107   4.371  32.787  1.00  0.00     0.263 C 
HETATM   13  O5  UNK     1      17.972   3.588  33.727  1.00  0.00    -0.267 OA
HETATM   14  N1  UNK     1      18.340   4.077  31.451  1.00  0.00    -0.305 N 
HETATM   15  H5  UNK     1      18.451   4.831  30.779  1.00  0.00     0.170 HD
BRANCH  14  16
HETATM   16  C12 UNK     1      18.473   2.807  30.875  1.00  0.00     0.160 A 
HETATM   17  N2  UNK     1      18.501   1.698  31.600  1.00  0.00    -0.110 NA
HETATM   18  O3  UNK     1      18.642   0.681  30.663  1.00  0.00    -0.216 OA
HETATM   19  C14 UNK     1      18.691   1.221  29.419  1.00  0.00     0.078 A 
HETATM   20  C13 UNK     1      18.587   2.584  29.503  1.00  0.00     0.087 A 
HETATM   21  C16 UNK     1      18.839   0.282  28.300  1.00  0.00     0.079 C 
ENDBRANCH  14  16
ENDBRANCH   7  12
BRANCH   5  22
HETATM   22  O2  UNK     1      16.820  10.662  33.521  1.00  0.00    -0.349 OA
BRANCH  22  23
HETATM   23  C11 UNK     1      16.089  11.137  34.651  1.00  0.00     0.171 C 
HETATM   24  C15 UNK     1      14.865  10.268  34.848  1.00  0.00     0.034 C 
ENDBRANCH  22  23
ENDBRANCH   5  22
TORSDOF 4
ENDMDL
MODEL 7
REMARK VINA RESULT:      -8.4      6.691      9.764
REMARK  4 active torsions:
REMARK  status: ('A' for Active; 'I' for Inactive)
REMARK    1  A    between atoms: C11_18  and  O2_2 
REMARK    2  A    between atoms: C3_10  and  O2_2 
REMARK       I    between atoms: C10_17  and  N1_6 
REMARK    3  A    between atoms: C12_19  and  N1_6 
REMARK    4  A    between atoms: C10_17  and  C5_12 
ROOT
HETATM    1  O1  UNK     1      18.873  -0.158  33.147  1.00  0.00    -0.271 OA
HETATM    2  O4  UNK     1      18.549  -0.445  35.389  1.00  0.00    -0.259 OA
HETATM    3  C1  UNK     1      20.201  -1.775  31.908  1.00  0.00     0.002 A 
HETATM    4  C2  UNK     1      19.440  -0.611  31.939  1.00  0.00     0.123 A 
HETATM    5  C3  UNK     1      19.209   0.145  30.791  1.00  0.00     0.103 A 
HETATM    6  C4  UNK     1      20.404  -2.517  33.143  1.00  0.00     0.037 A 
HETATM    7  C5  UNK     1      19.861  -2.082  34.288  1.00  0.00     0.108 A 
HETATM    8  C6  UNK     1      20.746  -2.193  30.692  1.00  0.00     0.014 A 
HETATM    9  C7  UNK     1      19.757  -0.278  29.583  1.00  0.00     0.040 A 
HETATM   10  C8  UNK     1      19.048  -0.847  34.344  1.00  0.00     0.304 A 
HETATM   11  C9  UNK     1      20.524  -1.443  29.532  1.00  0.00     0.004 A 
ENDROOT
BRANCH   7  12
HETATM   12  C10 UNK     1      20.122  -2.897  35.480  1.00  0.00     0.263 C 
HETATM   13  O5  UNK     1      20.603  -2.374  36.484  1.00  0.00    -0.267 OA
HETATM   14  N1  UNK     1      19.767  -4.226  35.291  1.00  0.00    -0.305 N 
HETATM   15  H5  UNK     1      19.395  -4.527  34.394  1.00  0.00     0.170 HD
BRANCH  14  16
HETATM   16  C12 UNK     1      19.880  -5.272  36.215  1.00  0.00     0.160 A 
HETATM   17  N2  UNK     1      20.981  -5.478  36.923  1.00  0.00    -0.110 NA
HETATM   18  O3  UNK     1      20.684  -6.590  37.702  1.00  0.00    -0.216 OA
HETATM   19  C14 UNK     1      19.420  -7.003  37.429  1.00  0.00     0.078 A 
HETATM   20  C13 UNK     1      18.863  -6.188  36.480  1.00  0.00     0.087 A 
HETATM   21  C16 UNK     1      18.939  -8.176  38.170  1.00  0.00     0.079 C 
ENDBRANCH  14  16
ENDBRANCH   7  12
BRANCH   5  22
HETATM   22  O2  UNK     1      18.463   1.281  30.836  1.00  0.00    -0.349 OA
BRANCH  22  23
HETATM   23  C11 UNK     1      18.520   2.141  29.698  1.00  0.00     0.171 C 
HETATM   24  C15 UNK     1      18.788   3.557  30.163  1.00  0.00     0.034 C 
ENDBRANCH  22  23
ENDBRANCH   5  22
TORSDOF 4
ENDMDL
MODEL 8
REMARK VINA RESULT:      -8.3     10.356     14.425
REMARK  4 active torsions:
REMARK  status: ('A' for Active; 'I' for Inactive)
REMARK    1  A    between atoms: C11_18  and  O2_2 
REMARK    2  A    between atoms: C3_10  and  O2_2 
REMARK       I    between atoms: C10_17  and  N1_6 
REMARK    3  A    between atoms: C12_19  and  N1_6 
REMARK    4  A    between atoms: C10_17  and  C5_12 
ROOT
HETATM    1  O1  UNK     1      20.357  -7.544  35.753  1.00  0.00    -0.271 OA
HETATM    2  O4  UNK     1      20.335  -5.712  34.389  1.00  0.00    -0.259 OA
HETATM    3  C1  UNK     1      20.069  -7.260  38.151  1.00  0.00     0.002 A 
HETATM    4  C2  UNK     1      20.266  -8.087  37.050  1.00  0.00     0.123 A 
HETATM    5  C3  UNK     1      20.379  -9.470  37.182  1.00  0.00     0.103 A 
HETATM    6  C4  UNK     1      19.960  -5.824  37.942  1.00  0.00     0.037 A 
HETATM    7  C5  UNK     1      20.046  -5.314  36.707  1.00  0.00     0.108 A 
HETATM    8  C6  UNK     1      19.983  -7.835  39.420  1.00  0.00     0.014 A 
HETATM    9  C7  UNK     1      20.293 -10.036  38.452  1.00  0.00     0.040 A 
HETATM   10  C8  UNK     1      20.255  -6.175  35.522  1.00  0.00     0.304 A 
HETATM   11  C9  UNK     1      20.096  -9.222  39.569  1.00  0.00     0.004 A 
ENDROOT
BRANCH   7  12
HETATM   12  C10 UNK     1      19.925  -3.855  36.599  1.00  0.00     0.263 C 
HETATM   13  O5  UNK     1      20.922  -3.176  36.360  1.00  0.00    -0.267 OA
HETATM   14  N1  UNK     1      18.620  -3.425  36.796  1.00  0.00    -0.305 N 
HETATM   15  H5  UNK     1      17.891  -4.101  37.006  1.00  0.00     0.170 HD
BRANCH  14  16
HETATM   16  C12 UNK     1      18.150  -2.106  36.762  1.00  0.00     0.160 A 
HETATM   17  N2  UNK     1      17.597  -1.577  35.681  1.00  0.00    -0.110 NA
HETATM   18  O3  UNK     1      17.275  -0.279  36.062  1.00  0.00    -0.216 OA
HETATM   19  C14 UNK     1      17.648  -0.085  37.352  1.00  0.00     0.078 A 
HETATM   20  C13 UNK     1      18.215  -1.230  37.846  1.00  0.00     0.087 A 
HETATM   21  C16 UNK     1      17.380   1.242  37.921  1.00  0.00     0.079 C 
ENDBRANCH  14  16
ENDBRANCH   7  12
BRANCH   5  22
HETATM   22  O2  UNK     1      20.571 -10.266  36.098  1.00  0.00    -0.349 OA
BRANCH  22  23
HETATM   23  C11 UNK     1      21.696 -11.145  36.127  1.00  0.00     0.171 C 
HETATM   24  C15 UNK     1      22.964 -10.329  35.985  1.00  0.00     0.034 C 
ENDBRANCH  22  23
ENDBRANCH   5  22
TORSDOF 4
ENDMDL
MODEL 9
REMARK VINA RESULT:      -8.2      1.701      2.089
REMARK  4 active torsions:
REMARK  status: ('A' for Active; 'I' for Inactive)
REMARK    1  A    between atoms: C11_18  and  O2_2 
REMARK    2  A    between atoms: C3_10  and  O2_2 
REMARK       I    between atoms: C10_17  and  N1_6 
REMARK    3  A    between atoms: C12_19  and  N1_6 
REMARK    4  A    between atoms: C10_17  and  C5_12 
ROOT
HETATM    1  O1  UNK     1      18.519   8.620  33.444  1.00  0.00    -0.271 OA
HETATM    2  O4  UNK     1      20.082   7.023  32.969  1.00  0.00    -0.259 OA
HETATM    3  C1  UNK     1      16.215   7.960  33.855  1.00  0.00     0.002 A 
HETATM    4  C2  UNK     1      17.184   8.953  33.751  1.00  0.00     0.123 A 
HETATM    5  C3  UNK     1      16.881  10.299  33.944  1.00  0.00     0.103 A 
HETATM    6  C4  UNK     1      16.600   6.574  33.640  1.00  0.00     0.037 A 
HETATM    7  C5  UNK     1      17.870   6.264  33.350  1.00  0.00     0.108 A 
HETATM    8  C6  UNK     1      14.903   8.329  34.161  1.00  0.00     0.014 A 
HETATM    9  C7  UNK     1      15.570  10.658  34.249  1.00  0.00     0.040 A 
HETATM   10  C8  UNK     1      18.917   7.303  33.234  1.00  0.00     0.304 A 
HETATM   11  C9  UNK     1      14.583   9.677  34.357  1.00  0.00     0.004 A 
ENDROOT
BRANCH   7  12
HETATM   12  C10 UNK     1      18.160   4.840  33.150  1.00  0.00     0.263 C 
HETATM   13  O5  UNK     1      18.435   4.132  34.118  1.00  0.00    -0.267 OA
HETATM   14  N1  UNK     1      18.080   4.473  31.814  1.00  0.00    -0.305 N 
HETATM   15  H5  UNK     1      17.860   5.173  31.110  1.00  0.00     0.170 HD
BRANCH  14  16
HETATM   16  C12 UNK     1      18.296   3.200  31.271  1.00  0.00     0.160 A 
HETATM   17  N2  UNK     1      18.056   2.089  31.951  1.00  0.00    -0.110 NA
HETATM   18  O3  UNK     1      18.395   1.069  31.069  1.00  0.00    -0.216 OA
HETATM   19  C14 UNK     1      18.823   1.610  29.901  1.00  0.00     0.078 A 
HETATM   20  C13 UNK     1      18.779   2.977  29.982  1.00  0.00     0.087 A 
HETATM   21  C16 UNK     1      19.225   0.668  28.849  1.00  0.00     0.079 C 
ENDBRANCH  14  16
ENDBRANCH   7  12
BRANCH   5  22
HETATM   22  O2  UNK     1      17.839  11.258  33.840  1.00  0.00    -0.349 OA
BRANCH  22  23
HETATM   23  C11 UNK     1      17.500  12.568  34.295  1.00  0.00     0.171 C 
HETATM   24  C15 UNK     1      18.241  13.589  33.458  1.00  0.00     0.034 C 
ENDBRANCH  22  23
ENDBRANCH   5  22
TORSDOF 4
ENDMDL
MODEL 10
REMARK VINA RESULT:      -8.2     10.530     14.359
REMARK  4 active torsions:
REMARK  status: ('A' for Active; 'I' for Inactive)
REMARK    1  A    between atoms: C11_18  and  O2_2 
REMARK    2  A    between atoms: C3_10  and  O2_2 
REMARK       I    between atoms: C10_17  and  N1_6 
REMARK    3  A    between atoms: C12_19  and  N1_6 
REMARK    4  A    between atoms: C10_17  and  C5_12 
ROOT
HETATM    1  O1  UNK     1      19.036  -7.277  37.662  1.00  0.00    -0.271 OA
HETATM    2  O4  UNK     1      17.838  -5.808  36.388  1.00  0.00    -0.259 OA
HETATM    3  C1  UNK     1      21.172  -6.589  38.600  1.00  0.00     0.002 A 
HETATM    4  C2  UNK     1      20.186  -7.555  38.429  1.00  0.00     0.123 A 
HETATM    5  C3  UNK     1      20.291  -8.821  39.002  1.00  0.00     0.103 A 
HETATM    6  C4  UNK     1      20.999  -5.288  37.973  1.00  0.00     0.037 A 
HETATM    7  C5  UNK     1      19.904  -5.029  37.247  1.00  0.00     0.108 A 
HETATM    8  C6  UNK     1      22.296  -6.902  39.367  1.00  0.00     0.014 A 
HETATM    9  C7  UNK     1      21.416  -9.125  39.765  1.00  0.00     0.040 A 
HETATM   10  C8  UNK     1      18.842  -6.041  37.052  1.00  0.00     0.304 A 
HETATM   11  C9  UNK     1      22.417  -8.169  39.947  1.00  0.00     0.004 A 
ENDROOT
BRANCH   7  12
HETATM   12  C10 UNK     1      19.820  -3.689  36.655  1.00  0.00     0.263 C 
HETATM   13  O5  UNK     1      20.696  -3.309  35.879  1.00  0.00    -0.267 OA
HETATM   14  N1  UNK     1      18.696  -2.998  37.085  1.00  0.00    -0.305 N 
HETATM   15  H5  UNK     1      18.061  -3.431  37.750  1.00  0.00     0.170 HD
BRANCH  14  16
HETATM   16  C12 UNK     1      18.308  -1.702  36.722  1.00  0.00     0.160 A 
HETATM   17  N2  UNK     1      18.310  -1.287  35.464  1.00  0.00    -0.110 NA
HETATM   18  O3  UNK     1      17.868   0.028  35.537  1.00  0.00    -0.216 OA
HETATM   19  C14 UNK     1      17.619   0.346  36.833  1.00  0.00     0.078 A 
HETATM   20  C13 UNK     1      17.888  -0.733  37.632  1.00  0.00     0.087 A 
HETATM   21  C16 UNK     1      17.140   1.709  37.094  1.00  0.00     0.079 C 
ENDBRANCH  14  16
ENDBRANCH   7  12
BRANCH   5  22
HETATM   22  O2  UNK     1      19.319  -9.755  38.827  1.00  0.00    -0.349 OA
BRANCH  22  23
HETATM   23  C11 UNK     1      19.703 -10.986  38.214  1.00  0.00     0.171 C 
HETATM   24  C15 UNK     1      20.196 -10.706  36.810  1.00  0.00     0.034 C 
ENDBRANCH  22  23
ENDBRANCH   5  22
TORSDOF 4
ENDMDL
