MODEL 1
REMARK VINA RESULT:      -8.6      0.000      0.000
REMARK  4 active torsions:
REMARK  status: ('A' for Active; 'I' for Inactive)
REMARK    1  A    between atoms: C1_6  and  N1_4 
REMARK    2  A    between atoms: C2_7  and  N1_4 
REMARK    3  A    between atoms: C3_8  and  N1_4 
REMARK    4  A    between atoms: C10_15  and  C13_18 
ROOT
HETATM    1  O1  UNK     1      17.093  -3.778  15.513  1.00  0.00    -0.274 OA
HETATM    2  O3  UNK     1      16.278  -2.073  16.791  1.00  0.00    -0.259 OA
HETATM    3  C1  UNK     1      18.984  -6.201  13.500  1.00  0.00     0.032 A 
HETATM    4  C4  UNK     1      19.458  -3.858  14.961  1.00  0.00    -0.001 A 
HETATM    5  C5  UNK     1      18.182  -4.399  14.870  1.00  0.00     0.091 A 
HETATM    6  C6  UNK     1      17.928  -5.564  14.148  1.00  0.00     0.067 A 
HETATM    7  C7  UNK     1      20.273  -5.672  13.580  1.00  0.00     0.030 A 
HETATM    8  C8  UNK     1      20.512  -4.502  14.309  1.00  0.00     0.016 A 
HETATM    9  C9  UNK     1      19.652  -2.641  15.734  1.00  0.00     0.036 A 
HETATM   10  C10 UNK     1      18.617  -2.046  16.346  1.00  0.00     0.093 A 
HETATM   11  C14 UNK     1      17.242  -2.607  16.252  1.00  0.00     0.303 A 
ENDROOT
BRANCH  10  12
HETATM   12  C13 UNK     1      18.845  -0.855  17.104  1.00  0.00     0.187 A 
HETATM   13  O2  UNK     1      18.927   0.364  16.486  1.00  0.00    -0.289 OA
HETATM   14  C15 UNK     1      19.147   1.240  17.511  1.00  0.00     0.106 A 
HETATM   15  C16 UNK     1      19.187   0.511  18.691  1.00  0.00     0.093 A 
HETATM   16  C17 UNK     1      19.307   2.617  17.426  1.00  0.00     0.040 A 
HETATM   17  C18 UNK     1      19.402   1.188  19.899  1.00  0.00     0.034 A 
HETATM   18  N2  UNK     1      18.993  -0.822  18.417  1.00  0.00    -0.221 NA
HETATM   19  C20 UNK     1      19.569   2.580  19.853  1.00  0.00     0.002 A 
HETATM   20  C19 UNK     1      19.522   3.278  18.640  1.00  0.00     0.003 A 
ENDBRANCH  10  12
BRANCH   3  21
HETATM   21  N1  UNK     1      18.751  -7.380  12.764  1.00  0.00    -0.382 N 
BRANCH  21  22
HETATM   22  C2  UNK     1      17.404  -7.746  12.371  1.00  0.00     0.118 C 
HETATM   23  C11 UNK     1      16.939  -8.993  13.104  1.00  0.00     0.026 C 
ENDBRANCH  21  22
BRANCH  21  24
HETATM   24  C3  UNK     1      19.855  -8.235  12.376  1.00  0.00     0.118 C 
HETATM   25  C12 UNK     1      20.134  -8.130  10.886  1.00  0.00     0.026 C 
ENDBRANCH  21  24
ENDBRANCH   3  21
TORSDOF 4
ENDMDL
MODEL 2
REMARK VINA RESULT:      -8.6      0.663      1.778
REMARK  4 active torsions:
REMARK  status: ('A' for Active; 'I' for Inactive)
REMARK    1  A    between atoms: C1_6  and  N1_4 
REMARK    2  A    between atoms: C2_7  and  N1_4 
REMARK    3  A    between atoms: C3_8  and  N1_4 
REMARK    4  A    between atoms: C10_15  and  C13_18 
ROOT
HETATM    1  O1  UNK     1      17.074  -3.800  15.511  1.00  0.00    -0.274 OA
HETATM    2  O3  UNK     1      16.258  -2.109  16.809  1.00  0.00    -0.259 OA
HETATM    3  C1  UNK     1      18.962  -6.190  13.457  1.00  0.00     0.032 A 
HETATM    4  C4  UNK     1      19.428  -3.841  14.911  1.00  0.00    -0.001 A 
HETATM    5  C5  UNK     1      18.159  -4.403  14.846  1.00  0.00     0.091 A 
HETATM    6  C6  UNK     1      17.909  -5.571  14.127  1.00  0.00     0.067 A 
HETATM    7  C7  UNK     1      20.243  -5.640  13.511  1.00  0.00     0.030 A 
HETATM    8  C8  UNK     1      20.479  -4.468  14.237  1.00  0.00     0.016 A 
HETATM    9  C9  UNK     1      19.618  -2.623  15.682  1.00  0.00     0.036 A 
HETATM   10  C10 UNK     1      18.587  -2.045  16.316  1.00  0.00     0.093 A 
HETATM   11  C14 UNK     1      17.219  -2.628  16.249  1.00  0.00     0.303 A 
ENDROOT
BRANCH  10  12
HETATM   12  C13 UNK     1      18.812  -0.851  17.071  1.00  0.00     0.187 A 
HETATM   13  O2  UNK     1      18.898  -0.892  18.437  1.00  0.00    -0.289 OA
HETATM   14  C15 UNK     1      19.110   0.409  18.794  1.00  0.00     0.106 A 
HETATM   15  C16 UNK     1      19.141   1.168  17.633  1.00  0.00     0.093 A 
HETATM   16  C17 UNK     1      19.270   0.919  20.076  1.00  0.00     0.040 A 
HETATM   17  C18 UNK     1      19.348   2.551  17.732  1.00  0.00     0.034 A 
HETATM   18  N2  UNK     1      18.950   0.352  16.543  1.00  0.00    -0.221 NA
HETATM   19  C20 UNK     1      19.513   3.102  19.011  1.00  0.00     0.002 A 
HETATM   20  C19 UNK     1      19.475   2.300  20.158  1.00  0.00     0.003 A 
ENDBRANCH  10  12
BRANCH   3  21
HETATM   21  N1  UNK     1      18.733  -7.372  12.723  1.00  0.00    -0.382 N 
BRANCH  21  22
HETATM   22  C2  UNK     1      19.846  -8.185  12.275  1.00  0.00     0.118 C 
HETATM   23  C11 UNK     1      20.056  -8.051  10.777  1.00  0.00     0.026 C 
ENDBRANCH  21  22
BRANCH  21  24
HETATM   24  C3  UNK     1      17.381  -7.797  12.418  1.00  0.00     0.118 C 
HETATM   25  C12 UNK     1      17.037  -9.090  13.140  1.00  0.00     0.026 C 
ENDBRANCH  21  24
ENDBRANCH   3  21
TORSDOF 4
ENDMDL
MODEL 3
REMARK VINA RESULT:      -8.5     16.126     20.072
REMARK  4 active torsions:
REMARK  status: ('A' for Active; 'I' for Inactive)
REMARK    1  A    between atoms: C1_6  and  N1_4 
REMARK    2  A    between atoms: C2_7  and  N1_4 
REMARK    3  A    between atoms: C3_8  and  N1_4 
REMARK    4  A    between atoms: C10_15  and  C13_18 
ROOT
HETATM    1  O1  UNK     1      18.576  -0.721  35.023  1.00  0.00    -0.274 OA
HETATM    2  O3  UNK     1      18.433  -1.692  37.083  1.00  0.00    -0.259 OA
HETATM    3  C1  UNK     1      19.213   0.340  31.564  1.00  0.00     0.032 A 
HETATM    4  C4  UNK     1      19.880  -1.781  33.269  1.00  0.00    -0.001 A 
HETATM    5  C5  UNK     1      19.075  -0.736  33.706  1.00  0.00     0.091 A 
HETATM    6  C6  UNK     1      18.733   0.326  32.872  1.00  0.00     0.067 A 
HETATM    7  C7  UNK     1      20.024  -0.701  31.107  1.00  0.00     0.030 A 
HETATM    8  C8  UNK     1      20.357  -1.761  31.956  1.00  0.00     0.016 A 
HETATM    9  C9  UNK     1      20.194  -2.860  34.192  1.00  0.00     0.036 A 
HETATM   10  C10 UNK     1      19.722  -2.848  35.447  1.00  0.00     0.093 A 
HETATM   11  C14 UNK     1      18.865  -1.733  35.935  1.00  0.00     0.303 A 
ENDROOT
BRANCH  10  12
HETATM   12  C13 UNK     1      20.045  -3.929  36.326  1.00  0.00     0.187 A 
HETATM   13  O2  UNK     1      19.121  -4.897  36.615  1.00  0.00    -0.289 OA
HETATM   14  C15 UNK     1      19.779  -5.738  37.467  1.00  0.00     0.106 A 
HETATM   15  C16 UNK     1      21.060  -5.239  37.649  1.00  0.00     0.093 A 
HETATM   16  C17 UNK     1      19.287  -6.892  38.063  1.00  0.00     0.040 A 
HETATM   17  C18 UNK     1      21.944  -5.931  38.490  1.00  0.00     0.034 A 
HETATM   18  N2  UNK     1      21.217  -4.087  36.916  1.00  0.00    -0.221 NA
HETATM   19  C20 UNK     1      21.482  -7.101  39.110  1.00  0.00     0.002 A 
HETATM   20  C19 UNK     1      20.179  -7.570  38.899  1.00  0.00     0.003 A 
ENDBRANCH  10  12
BRANCH   3  21
HETATM   21  N1  UNK     1      18.881   1.405  30.702  1.00  0.00    -0.382 N 
BRANCH  21  22
HETATM   22  C2  UNK     1      18.279   2.614  31.228  1.00  0.00     0.118 C 
HETATM   23  C11 UNK     1      18.934   3.853  30.643  1.00  0.00     0.026 C 
ENDBRANCH  21  22
BRANCH  21  24
HETATM   24  C3  UNK     1      19.150   1.312  29.281  1.00  0.00     0.118 C 
HETATM   25  C12 UNK     1      17.859   1.278  28.479  1.00  0.00     0.026 C 
ENDBRANCH  21  24
ENDBRANCH   3  21
TORSDOF 4
ENDMDL
MODEL 4
REMARK VINA RESULT:      -8.2     15.422     19.776
REMARK  4 active torsions:
REMARK  status: ('A' for Active; 'I' for Inactive)
REMARK    1  A    between atoms: C1_6  and  N1_4 
REMARK    2  A    between atoms: C2_7  and  N1_4 
REMARK    3  A    between atoms: C3_8  and  N1_4 
REMARK    4  A    between atoms: C10_15  and  C13_18 
ROOT
HETATM    1  O1  UNK     1      17.397   5.566  33.792  1.00  0.00    -0.274 OA
HETATM    2  O3  UNK     1      16.676   7.140  35.279  1.00  0.00    -0.259 OA
HETATM    3  C1  UNK     1      18.675   3.551  30.999  1.00  0.00     0.032 A 
HETATM    4  C4  UNK     1      18.309   6.251  31.647  1.00  0.00    -0.001 A 
HETATM    5  C5  UNK     1      17.954   5.246  32.538  1.00  0.00     0.091 A 
HETATM    6  C6  UNK     1      18.129   3.898  32.233  1.00  0.00     0.067 A 
HETATM    7  C7  UNK     1      19.037   4.546  30.090  1.00  0.00     0.030 A 
HETATM    8  C8  UNK     1      18.856   5.895  30.412  1.00  0.00     0.016 A 
HETATM    9  C9  UNK     1      18.101   7.638  32.032  1.00  0.00     0.036 A 
HETATM   10  C10 UNK     1      17.571   7.947  33.225  1.00  0.00     0.093 A 
HETATM   11  C14 UNK     1      17.177   6.883  34.188  1.00  0.00     0.303 A 
ENDROOT
BRANCH  10  12
HETATM   12  C13 UNK     1      17.388   9.321  33.574  1.00  0.00     0.187 A 
HETATM   13  O2  UNK     1      16.132   9.844  33.725  1.00  0.00    -0.289 OA
HETATM   14  C15 UNK     1      16.356  11.152  34.050  1.00  0.00     0.106 A 
HETATM   15  C16 UNK     1      17.728  11.353  34.079  1.00  0.00     0.093 A 
HETATM   16  C17 UNK     1      15.407  12.133  34.311  1.00  0.00     0.040 A 
HETATM   17  C18 UNK     1      18.220  12.628  34.391  1.00  0.00     0.034 A 
HETATM   18  N2  UNK     1      18.374  10.179  33.774  1.00  0.00    -0.221 NA
HETATM   19  C20 UNK     1      17.291  13.645  34.660  1.00  0.00     0.002 A 
HETATM   20  C19 UNK     1      15.913  13.399  34.620  1.00  0.00     0.003 A 
ENDBRANCH  10  12
BRANCH   3  21
HETATM   21  N1  UNK     1      18.861   2.193  30.668  1.00  0.00    -0.382 N 
BRANCH  21  22
HETATM   22  C2  UNK     1      19.066   1.795  29.289  1.00  0.00     0.118 C 
HETATM   23  C11 UNK     1      17.743   1.599  28.571  1.00  0.00     0.026 C 
ENDBRANCH  21  22
BRANCH  21  24
HETATM   24  C3  UNK     1      18.862   1.177  31.702  1.00  0.00     0.118 C 
HETATM   25  C12 UNK     1      19.621  -0.061  31.255  1.00  0.00     0.026 C 
ENDBRANCH  21  24
ENDBRANCH   3  21
TORSDOF 4
ENDMDL
MODEL 5
REMARK VINA RESULT:      -8.2     14.679     19.708
REMARK  4 active torsions:
REMARK  status: ('A' for Active; 'I' for Inactive)
REMARK    1  A    between atoms: C1_6  and  N1_4 
REMARK    2  A    between atoms: C2_7  and  N1_4 
REMARK    3  A    between atoms: C3_8  and  N1_4 
REMARK    4  A    between atoms: C10_15  and  C13_18 
ROOT
HETATM    1  O1  UNK     1      18.159   5.732  30.403  1.00  0.00    -0.274 OA
HETATM    2  O3  UNK     1      18.789   4.094  28.946  1.00  0.00    -0.259 OA
HETATM    3  C1  UNK     1      17.151   7.885  33.204  1.00  0.00     0.032 A 
HETATM    4  C4  UNK     1      17.893   5.220  32.763  1.00  0.00    -0.001 A 
HETATM    5  C5  UNK     1      17.840   6.132  31.716  1.00  0.00     0.091 A 
HETATM    6  C6  UNK     1      17.473   7.461  31.917  1.00  0.00     0.067 A 
HETATM    7  C7  UNK     1      17.198   6.985  34.269  1.00  0.00     0.030 A 
HETATM    8  C8  UNK     1      17.569   5.654  34.051  1.00  0.00     0.016 A 
HETATM    9  C9  UNK     1      18.288   3.849  32.483  1.00  0.00     0.036 A 
HETATM   10  C10 UNK     1      18.591   3.464  31.234  1.00  0.00     0.093 A 
HETATM   11  C14 UNK     1      18.531   4.425  30.098  1.00  0.00     0.303 A 
ENDROOT
BRANCH  10  12
HETATM   12  C13 UNK     1      18.982   2.110  30.995  1.00  0.00     0.187 A 
HETATM   13  O2  UNK     1      19.418   1.714  29.759  1.00  0.00    -0.289 OA
HETATM   14  C15 UNK     1      19.693   0.385  29.916  1.00  0.00     0.106 A 
HETATM   15  C16 UNK     1      19.410   0.046  31.231  1.00  0.00     0.093 A 
HETATM   16  C17 UNK     1      20.169  -0.498  28.956  1.00  0.00     0.040 A 
HETATM   17  C18 UNK     1      19.612  -1.277  31.648  1.00  0.00     0.034 A 
HETATM   18  N2  UNK     1      18.959   1.154  31.908  1.00  0.00    -0.221 NA
HETATM   19  C20 UNK     1      20.092  -2.199  30.706  1.00  0.00     0.002 A 
HETATM   20  C19 UNK     1      20.364  -1.815  29.387  1.00  0.00     0.003 A 
ENDBRANCH  10  12
BRANCH   3  21
HETATM   21  N1  UNK     1      16.776   9.225  33.431  1.00  0.00    -0.382 N 
BRANCH  21  22
HETATM   22  C2  UNK     1      15.447   9.686  33.077  1.00  0.00     0.118 C 
HETATM   23  C11 UNK     1      14.397   9.095  34.000  1.00  0.00     0.026 C 
ENDBRANCH  21  22
BRANCH  21  24
HETATM   24  C3  UNK     1      17.708  10.158  34.034  1.00  0.00     0.118 C 
HETATM   25  C12 UNK     1      17.076  11.528  34.210  1.00  0.00     0.026 C 
ENDBRANCH  21  24
ENDBRANCH   3  21
TORSDOF 4
ENDMDL
MODEL 6
REMARK VINA RESULT:      -8.1     14.804     20.090
REMARK  4 active torsions:
REMARK  status: ('A' for Active; 'I' for Inactive)
REMARK    1  A    between atoms: C1_6  and  N1_4 
REMARK    2  A    between atoms: C2_7  and  N1_4 
REMARK    3  A    between atoms: C3_8  and  N1_4 
REMARK    4  A    between atoms: C10_15  and  C13_18 
ROOT
HETATM    1  O1  UNK     1      17.795   4.440  34.175  1.00  0.00    -0.274 OA
HETATM    2  O3  UNK     1      18.408   2.248  34.339  1.00  0.00    -0.259 OA
HETATM    3  C1  UNK     1      16.967   7.902  33.271  1.00  0.00     0.032 A 
HETATM    4  C4  UNK     1      17.819   5.548  32.014  1.00  0.00    -0.001 A 
HETATM    5  C5  UNK     1      17.596   5.588  33.385  1.00  0.00     0.091 A 
HETATM    6  C6  UNK     1      17.171   6.750  34.027  1.00  0.00     0.067 A 
HETATM    7  C7  UNK     1      17.187   7.882  31.893  1.00  0.00     0.030 A 
HETATM    8  C8  UNK     1      17.612   6.708  31.263  1.00  0.00     0.016 A 
HETATM    9  C9  UNK     1      18.258   4.301  31.409  1.00  0.00     0.036 A 
HETATM   10  C10 UNK     1      18.451   3.205  32.159  1.00  0.00     0.093 A 
HETATM   11  C14 UNK     1      18.225   3.232  33.630  1.00  0.00     0.303 A 
ENDROOT
BRANCH  10  12
HETATM   12  C13 UNK     1      18.876   1.993  31.530  1.00  0.00     0.187 A 
HETATM   13  O2  UNK     1      19.002   0.837  32.252  1.00  0.00    -0.289 OA
HETATM   14  C15 UNK     1      19.419  -0.082  31.331  1.00  0.00     0.106 A 
HETATM   15  C16 UNK     1      19.523   0.561  30.107  1.00  0.00     0.093 A 
HETATM   16  C17 UNK     1      19.698  -1.426  31.546  1.00  0.00     0.040 A 
HETATM   17  C18 UNK     1      19.937  -0.175  28.988  1.00  0.00     0.034 A 
HETATM   18  N2  UNK     1      19.173   1.883  30.247  1.00  0.00    -0.221 NA
HETATM   19  C20 UNK     1      20.229  -1.536  29.166  1.00  0.00     0.002 A 
HETATM   20  C19 UNK     1      20.111  -2.146  30.420  1.00  0.00     0.003 A 
ENDBRANCH  10  12
BRANCH   3  21
HETATM   21  N1  UNK     1      16.538   9.090  33.899  1.00  0.00    -0.382 N 
BRANCH  21  22
HETATM   22  C2  UNK     1      17.357  10.286  33.844  1.00  0.00     0.118 C 
HETATM   23  C11 UNK     1      18.808   9.973  34.164  1.00  0.00     0.026 C 
ENDBRANCH  21  22
BRANCH  21  24
HETATM   24  C3  UNK     1      15.269   9.136  34.596  1.00  0.00     0.118 C 
HETATM   25  C12 UNK     1      14.177   9.715  33.710  1.00  0.00     0.026 C 
ENDBRANCH  21  24
ENDBRANCH   3  21
TORSDOF 4
ENDMDL
MODEL 7
REMARK VINA RESULT:      -8.1      1.400      2.170
REMARK  4 active torsions:
REMARK  status: ('A' for Active; 'I' for Inactive)
REMARK    1  A    between atoms: C1_6  and  N1_4 
REMARK    2  A    between atoms: C2_7  and  N1_4 
REMARK    3  A    between atoms: C3_8  and  N1_4 
REMARK    4  A    between atoms: C10_15  and  C13_18 
ROOT
HETATM    1  O1  UNK     1      19.339  -2.821  13.329  1.00  0.00    -0.274 OA
HETATM    2  O3  UNK     1      19.947  -0.705  13.928  1.00  0.00    -0.259 OA
HETATM    3  C1  UNK     1      18.146  -6.279  12.990  1.00  0.00     0.032 A 
HETATM    4  C4  UNK     1      18.189  -4.250  14.922  1.00  0.00    -0.001 A 
HETATM    5  C5  UNK     1      18.741  -4.052  13.662  1.00  0.00     0.091 A 
HETATM    6  C6  UNK     1      18.729  -5.050  12.689  1.00  0.00     0.067 A 
HETATM    7  C7  UNK     1      17.586  -6.497  14.250  1.00  0.00     0.030 A 
HETATM    8  C8  UNK     1      17.606  -5.486  15.215  1.00  0.00     0.016 A 
HETATM    9  C9  UNK     1      18.234  -3.164  15.888  1.00  0.00     0.036 A 
HETATM   10  C10 UNK     1      18.803  -1.991  15.574  1.00  0.00     0.093 A 
HETATM   11  C14 UNK     1      19.408  -1.764  14.233  1.00  0.00     0.303 A 
ENDROOT
BRANCH  10  12
HETATM   12  C13 UNK     1      18.823  -0.942  16.546  1.00  0.00     0.187 A 
HETATM   13  O2  UNK     1      19.034   0.357  16.170  1.00  0.00    -0.289 OA
HETATM   14  C15 UNK     1      18.986   1.053  17.345  1.00  0.00     0.106 A 
HETATM   15  C16 UNK     1      18.749   0.144  18.367  1.00  0.00     0.093 A 
HETATM   16  C17 UNK     1      19.142   2.421  17.524  1.00  0.00     0.040 A 
HETATM   17  C18 UNK     1      18.655   0.615  19.684  1.00  0.00     0.034 A 
HETATM   18  N2  UNK     1      18.647  -1.123  17.844  1.00  0.00    -0.221 NA
HETATM   19  C20 UNK     1      18.808   1.992  19.904  1.00  0.00     0.002 A 
HETATM   20  C19 UNK     1      19.046   2.875  18.844  1.00  0.00     0.003 A 
ENDBRANCH  10  12
BRANCH   3  21
HETATM   21  N1  UNK     1      18.122  -7.304  12.022  1.00  0.00    -0.382 N 
BRANCH  21  22
HETATM   22  C2  UNK     1      19.351  -7.749  11.394  1.00  0.00     0.118 C 
HETATM   23  C11 UNK     1      20.218  -8.523  12.371  1.00  0.00     0.026 C 
ENDBRANCH  21  22
BRANCH  21  24
HETATM   24  C3  UNK     1      16.872  -7.936  11.651  1.00  0.00     0.118 C 
HETATM   25  C12 UNK     1      16.461  -7.553  10.239  1.00  0.00     0.026 C 
ENDBRANCH  21  24
ENDBRANCH   3  21
TORSDOF 4
ENDMDL
MODEL 8
REMARK VINA RESULT:      -8.0     20.234     21.514
REMARK  4 active torsions:
REMARK  status: ('A' for Active; 'I' for Inactive)
REMARK    1  A    between atoms: C1_6  and  N1_4 
REMARK    2  A    between atoms: C2_7  and  N1_4 
REMARK    3  A    between atoms: C3_8  and  N1_4 
REMARK    4  A    between atoms: C10_15  and  C13_18 
ROOT
HETATM    1  O1  UNK     1      21.251  -5.321  37.432  1.00  0.00    -0.274 OA
HETATM    2  O3  UNK     1      21.608  -3.083  37.694  1.00  0.00    -0.259 OA
HETATM    3  C1  UNK     1      20.073  -8.744  36.804  1.00  0.00     0.032 A 
HETATM    4  C4  UNK     1      19.145  -6.116  36.519  1.00  0.00    -0.001 A 
HETATM    5  C5  UNK     1      20.408  -6.377  37.036  1.00  0.00     0.091 A 
HETATM    6  C6  UNK     1      20.886  -7.678  37.185  1.00  0.00     0.067 A 
HETATM    7  C7  UNK     1      18.802  -8.501  36.283  1.00  0.00     0.030 A 
HETATM    8  C8  UNK     1      18.336  -7.190  36.139  1.00  0.00     0.016 A 
HETATM    9  C9  UNK     1      18.711  -4.734  36.388  1.00  0.00     0.036 A 
HETATM   10  C10 UNK     1      19.512  -3.725  36.765  1.00  0.00     0.093 A 
HETATM   11  C14 UNK     1      20.864  -3.987  37.329  1.00  0.00     0.303 A 
ENDROOT
BRANCH  10  12
HETATM   12  C13 UNK     1      19.056  -2.378  36.615  1.00  0.00     0.187 A 
HETATM   13  O2  UNK     1      18.380  -1.751  37.627  1.00  0.00    -0.289 OA
HETATM   14  C15 UNK     1      18.114  -0.508  37.126  1.00  0.00     0.106 A 
HETATM   15  C16 UNK     1      18.639  -0.447  35.844  1.00  0.00     0.093 A 
HETATM   16  C17 UNK     1      17.442   0.531  37.757  1.00  0.00     0.040 A 
HETATM   17  C18 UNK     1      18.496   0.738  35.108  1.00  0.00     0.034 A 
HETATM   18  N2  UNK     1      19.237  -1.645  35.531  1.00  0.00    -0.221 NA
HETATM   19  C20 UNK     1      17.822   1.810  35.712  1.00  0.00     0.002 A 
HETATM   20  C19 UNK     1      17.307   1.706  37.010  1.00  0.00     0.003 A 
ENDBRANCH  10  12
BRANCH   3  21
HETATM   21  N1  UNK     1      20.535 -10.068  36.946  1.00  0.00    -0.382 N 
BRANCH  21  22
HETATM   22  C2  UNK     1      21.843 -10.447  36.447  1.00  0.00     0.118 C 
HETATM   23  C11 UNK     1      21.830 -10.600  34.936  1.00  0.00     0.026 C 
ENDBRANCH  21  22
BRANCH  21  24
HETATM   24  C3  UNK     1      19.716 -11.066  37.605  1.00  0.00     0.118 C 
HETATM   25  C12 UNK     1      19.380 -10.649  39.027  1.00  0.00     0.026 C 
ENDBRANCH  21  24
ENDBRANCH   3  21
TORSDOF 4
ENDMDL
MODEL 9
REMARK VINA RESULT:      -8.0     20.217     21.466
REMARK  4 active torsions:
REMARK  status: ('A' for Active; 'I' for Inactive)
REMARK    1  A    between atoms: C1_6  and  N1_4 
REMARK    2  A    between atoms: C2_7  and  N1_4 
REMARK    3  A    between atoms: C3_8  and  N1_4 
REMARK    4  A    between atoms: C10_15  and  C13_18 
ROOT
HETATM    1  O1  UNK     1      21.268  -5.327  37.424  1.00  0.00    -0.274 OA
HETATM    2  O3  UNK     1      21.621  -3.089  37.685  1.00  0.00    -0.259 OA
HETATM    3  C1  UNK     1      20.094  -8.752  36.798  1.00  0.00     0.032 A 
HETATM    4  C4  UNK     1      19.162  -6.125  36.512  1.00  0.00    -0.001 A 
HETATM    5  C5  UNK     1      20.426  -6.385  37.029  1.00  0.00     0.091 A 
HETATM    6  C6  UNK     1      20.905  -7.685  37.178  1.00  0.00     0.067 A 
HETATM    7  C7  UNK     1      18.822  -8.511  36.277  1.00  0.00     0.030 A 
HETATM    8  C8  UNK     1      18.355  -7.201  36.133  1.00  0.00     0.016 A 
HETATM    9  C9  UNK     1      18.726  -4.744  36.381  1.00  0.00     0.036 A 
HETATM   10  C10 UNK     1      19.526  -3.734  36.757  1.00  0.00     0.093 A 
HETATM   11  C14 UNK     1      20.878  -3.994  37.321  1.00  0.00     0.303 A 
ENDROOT
BRANCH  10  12
HETATM   12  C13 UNK     1      19.068  -2.388  36.608  1.00  0.00     0.187 A 
HETATM   13  O2  UNK     1      18.415  -1.753  37.629  1.00  0.00    -0.289 OA
HETATM   14  C15 UNK     1      18.139  -0.513  37.125  1.00  0.00     0.106 A 
HETATM   15  C16 UNK     1      18.637  -0.462  35.831  1.00  0.00     0.093 A 
HETATM   16  C17 UNK     1      17.482   0.532  37.762  1.00  0.00     0.040 A 
HETATM   17  C18 UNK     1      18.478   0.718  35.090  1.00  0.00     0.034 A 
HETATM   18  N2  UNK     1      19.226  -1.663  35.514  1.00  0.00    -0.221 NA
HETATM   19  C20 UNK     1      17.819   1.795  35.701  1.00  0.00     0.002 A 
HETATM   20  C19 UNK     1      17.331   1.701  37.010  1.00  0.00     0.003 A 
ENDBRANCH  10  12
BRANCH   3  21
HETATM   21  N1  UNK     1      20.558 -10.075  36.940  1.00  0.00    -0.382 N 
BRANCH  21  22
HETATM   22  C2  UNK     1      19.734 -11.077  37.589  1.00  0.00     0.118 C 
HETATM   23  C11 UNK     1      19.384 -10.663  39.008  1.00  0.00     0.026 C 
ENDBRANCH  21  22
BRANCH  21  24
HETATM   24  C3  UNK     1      21.859 -10.458  36.427  1.00  0.00     0.118 C 
HETATM   25  C12 UNK     1      21.834 -10.593  34.914  1.00  0.00     0.026 C 
ENDBRANCH  21  24
ENDBRANCH   3  21
TORSDOF 4
ENDMDL
MODEL 10
REMARK VINA RESULT:      -8.0     14.109     18.017
REMARK  4 active torsions:
REMARK  status: ('A' for Active; 'I' for Inactive)
REMARK    1  A    between atoms: C1_6  and  N1_4 
REMARK    2  A    between atoms: C2_7  and  N1_4 
REMARK    3  A    between atoms: C3_8  and  N1_4 
REMARK    4  A    between atoms: C10_15  and  C13_18 
ROOT
HETATM    1  O1  UNK     1      19.072   4.237  30.093  1.00  0.00    -0.274 OA
HETATM    2  O3  UNK     1      18.790   6.483  29.810  1.00  0.00    -0.259 OA
HETATM    3  C1  UNK     1      19.282   0.726  31.157  1.00  0.00     0.032 A 
HETATM    4  C4  UNK     1      18.370   3.177  32.163  1.00  0.00    -0.001 A 
HETATM    5  C5  UNK     1      18.939   3.089  30.899  1.00  0.00     0.091 A 
HETATM    6  C6  UNK     1      19.398   1.879  30.382  1.00  0.00     0.067 A 
HETATM    7  C7  UNK     1      18.712   0.795  32.429  1.00  0.00     0.030 A 
HETATM    8  C8  UNK     1      18.256   2.017  32.933  1.00  0.00     0.016 A 
HETATM    9  C9  UNK     1      17.909   4.472  32.638  1.00  0.00     0.036 A 
HETATM   10  C10 UNK     1      18.035   5.567  31.874  1.00  0.00     0.093 A 
HETATM   11  C14 UNK     1      18.651   5.493  30.521  1.00  0.00     0.303 A 
ENDROOT
BRANCH  10  12
HETATM   12  C13 UNK     1      17.565   6.823  32.370  1.00  0.00     0.187 A 
HETATM   13  O2  UNK     1      18.422   7.704  32.972  1.00  0.00    -0.289 OA
HETATM   14  C15 UNK     1      17.626   8.763  33.306  1.00  0.00     0.106 A 
HETATM   15  C16 UNK     1      16.335   8.471  32.891  1.00  0.00     0.093 A 
HETATM   16  C17 UNK     1      18.006   9.937  33.946  1.00  0.00     0.040 A 
HETATM   17  C18 UNK     1      15.320   9.411  33.121  1.00  0.00     0.034 A 
HETATM   18  N2  UNK     1      16.310   7.232  32.296  1.00  0.00    -0.221 NA
HETATM   19  C20 UNK     1      15.666  10.608  33.766  1.00  0.00     0.002 A 
HETATM   20  C19 UNK     1      16.982  10.863  34.169  1.00  0.00     0.003 A 
ENDBRANCH  10  12
BRANCH   3  21
HETATM   21  N1  UNK     1      19.739  -0.509  30.655  1.00  0.00    -0.382 N 
BRANCH  21  22
HETATM   22  C2  UNK     1      20.452  -0.571  29.394  1.00  0.00     0.118 C 
HETATM   23  C11 UNK     1      19.492  -0.734  28.229  1.00  0.00     0.026 C 
ENDBRANCH  21  22
BRANCH  21  24
HETATM   24  C3  UNK     1      19.516  -1.733  31.399  1.00  0.00     0.118 C 
HETATM   25  C12 UNK     1      20.805  -2.235  32.029  1.00  0.00     0.026 C 
ENDBRANCH  21  24
ENDBRANCH   3  21
TORSDOF 4
ENDMDL
