MODEL 1
REMARK VINA RESULT:      -8.2      0.000      0.000
REMARK  3 active torsions:
REMARK  status: ('A' for Active; 'I' for Inactive)
REMARK    1  A    between atoms: C13_18  and  O3_3 
REMARK    2  A    between atoms: C1_6  and  N1_5 
REMARK       I    between atoms: C5_10  and  N1_5 
REMARK    3  A    between atoms: C5_10  and  C6_11 
ROOT
HETATM    1  O1  UNK     1      19.290   0.964  15.165  1.00  0.00    -0.274 OA
HETATM    2  O4  UNK     1      19.287  -0.617  13.515  1.00  0.00    -0.259 OA
HETATM    3  C6  UNK     1      18.926  -1.389  15.727  1.00  0.00     0.108 A 
HETATM    4  C7  UNK     1      18.930   0.290  17.473  1.00  0.00     0.002 A 
HETATM    5  C8  UNK     1      18.810  -1.089  17.025  1.00  0.00     0.037 A 
HETATM    6  C9  UNK     1      19.168   1.286  16.531  1.00  0.00     0.089 A 
HETATM    7  C10 UNK     1      19.179  -0.346  14.707  1.00  0.00     0.304 A 
HETATM    8  C11 UNK     1      18.815   0.649  18.819  1.00  0.00     0.051 A 
HETATM    9  C12 UNK     1      19.292   2.625  16.895  1.00  0.00     0.041 A 
HETATM   10  C13 UNK     1      18.939   1.988  19.198  1.00  0.00     0.069 A 
HETATM   11  C14 UNK     1      19.177   2.973  18.238  1.00  0.00     0.039 A 
ENDROOT
BRANCH   3  12
HETATM   12  C5  UNK     1      18.791  -2.807  15.373  1.00  0.00     0.258 C 
HETATM   13  O2  UNK     1      17.703  -3.274  15.042  1.00  0.00    -0.267 OA
HETATM   14  N1  UNK     1      19.986  -3.500  15.461  1.00  0.00    -0.349 N 
HETATM   15  H1  UNK     1      20.836  -3.003  15.710  1.00  0.00     0.163 HD
BRANCH  14  16
HETATM   16  C1  UNK     1      20.101  -4.909  15.164  1.00  0.00     0.022 C 
HETATM   17  C2  UNK     1      18.956  -5.655  15.856  1.00  0.00     0.037 C 
HETATM   18  C3  UNK     1      20.016  -5.095  13.647  1.00  0.00     0.037 C 
HETATM   19  C4  UNK     1      21.449  -5.416  15.687  1.00  0.00     0.037 C 
ENDBRANCH  14  16
ENDBRANCH   3  12
BRANCH  10  20
HETATM   20  O3  UNK     1      18.825   2.334  20.510  1.00  0.00    -0.356 OA
HETATM   21  C15 UNK     1      19.678   1.659  21.434  1.00  0.00     0.210 C 
ENDBRANCH  10  20
TORSDOF 3
ENDMDL
MODEL 2
REMARK VINA RESULT:      -7.9     12.837     15.944
REMARK  3 active torsions:
REMARK  status: ('A' for Active; 'I' for Inactive)
REMARK    1  A    between atoms: C13_18  and  O3_3 
REMARK    2  A    between atoms: C1_6  and  N1_5 
REMARK       I    between atoms: C5_10  and  N1_5 
REMARK    3  A    between atoms: C5_10  and  C6_11 
ROOT
HETATM    1  O1  UNK     1      18.939   1.468  28.556  1.00  0.00    -0.274 OA
HETATM    2  O4  UNK     1      18.118   3.601  28.538  1.00  0.00    -0.259 OA
HETATM    3  C6  UNK     1      18.676   2.694  30.656  1.00  0.00     0.108 A 
HETATM    4  C7  UNK     1      19.546   0.433  30.670  1.00  0.00     0.002 A 
HETATM    5  C8  UNK     1      19.144   1.653  31.353  1.00  0.00     0.037 A 
HETATM    6  C9  UNK     1      19.432   0.369  29.285  1.00  0.00     0.089 A 
HETATM    7  C10 UNK     1      18.547   2.649  29.182  1.00  0.00     0.304 A 
HETATM    8  C11 UNK     1      20.040  -0.678  31.358  1.00  0.00     0.051 A 
HETATM    9  C12 UNK     1      19.800  -0.770  28.570  1.00  0.00     0.041 A 
HETATM   10  C13 UNK     1      20.412  -1.828  30.654  1.00  0.00     0.069 A 
HETATM   11  C14 UNK     1      20.292  -1.872  29.264  1.00  0.00     0.039 A 
ENDROOT
BRANCH   3  12
HETATM   12  C5  UNK     1      18.297   3.879  31.435  1.00  0.00     0.258 C 
HETATM   13  O2  UNK     1      17.132   4.057  31.785  1.00  0.00    -0.267 OA
HETATM   14  N1  UNK     1      19.368   4.714  31.700  1.00  0.00    -0.349 N 
HETATM   15  H1  UNK     1      20.299   4.448  31.392  1.00  0.00     0.163 HD
BRANCH  14  16
HETATM   16  C1  UNK     1      19.241   5.943  32.449  1.00  0.00     0.022 C 
HETATM   17  C2  UNK     1      18.568   5.636  33.790  1.00  0.00     0.037 C 
HETATM   18  C3  UNK     1      20.640   6.521  32.676  1.00  0.00     0.037 C 
HETATM   19  C4  UNK     1      18.384   6.925  31.645  1.00  0.00     0.037 C 
ENDBRANCH  14  16
ENDBRANCH   3  12
BRANCH  10  20
HETATM   20  O3  UNK     1      20.894  -2.908  31.329  1.00  0.00    -0.356 OA
HETATM   21  C15 UNK     1      21.002  -2.792  32.747  1.00  0.00     0.210 C 
ENDBRANCH  10  20
TORSDOF 3
ENDMDL
MODEL 3
REMARK VINA RESULT:      -7.7     12.011     14.109
REMARK  3 active torsions:
REMARK  status: ('A' for Active; 'I' for Inactive)
REMARK    1  A    between atoms: C13_18  and  O3_3 
REMARK    2  A    between atoms: C1_6  and  N1_5 
REMARK       I    between atoms: C5_10  and  N1_5 
REMARK    3  A    between atoms: C5_10  and  C6_11 
ROOT
HETATM    1  O1  UNK     1      12.060   6.720   6.446  1.00  0.00    -0.274 OA
HETATM    2  O4  UNK     1      14.300   7.108   6.669  1.00  0.00    -0.259 OA
HETATM    3  C6  UNK     1      13.108   6.590   8.652  1.00  0.00     0.108 A 
HETATM    4  C7  UNK     1      10.733   6.180   8.410  1.00  0.00     0.002 A 
HETATM    5  C8  UNK     1      11.936   6.286   9.221  1.00  0.00     0.037 A 
HETATM    6  C9  UNK     1      10.823   6.401   7.039  1.00  0.00     0.089 A 
HETATM    7  C10 UNK     1      13.228   6.828   7.195  1.00  0.00     0.304 A 
HETATM    8  C11 UNK     1       9.488   5.865   8.962  1.00  0.00     0.051 A 
HETATM    9  C12 UNK     1       9.708   6.314   6.208  1.00  0.00     0.041 A 
HETATM   10  C13 UNK     1       8.361   5.776   8.140  1.00  0.00     0.069 A 
HETATM   11  C14 UNK     1       8.472   5.999   6.766  1.00  0.00     0.039 A 
ENDROOT
BRANCH   3  12
HETATM   12  C5  UNK     1      14.265   6.675   9.552  1.00  0.00     0.258 C 
HETATM   13  O2  UNK     1      14.525   5.761  10.332  1.00  0.00    -0.267 OA
HETATM   14  N1  UNK     1      14.973   7.855   9.408  1.00  0.00    -0.349 N 
HETATM   15  H1  UNK     1      14.688   8.528   8.702  1.00  0.00     0.163 HD
BRANCH  14  16
HETATM   16  C1  UNK     1      16.149   8.167  10.188  1.00  0.00     0.022 C 
HETATM   17  C2  UNK     1      16.704   9.517   9.724  1.00  0.00     0.037 C 
HETATM   18  C3  UNK     1      15.750   8.236  11.664  1.00  0.00     0.037 C 
HETATM   19  C4  UNK     1      17.192   7.068   9.970  1.00  0.00     0.037 C 
ENDBRANCH  14  16
ENDBRANCH   3  12
BRANCH  10  20
HETATM   20  O3  UNK     1       7.151   5.468   8.681  1.00  0.00    -0.356 OA
HETATM   21  C15 UNK     1       7.118   4.404   9.632  1.00  0.00     0.210 C 
ENDBRANCH  10  20
TORSDOF 3
ENDMDL
MODEL 4
REMARK VINA RESULT:      -7.5     13.007     17.443
REMARK  3 active torsions:
REMARK  status: ('A' for Active; 'I' for Inactive)
REMARK    1  A    between atoms: C13_18  and  O3_3 
REMARK    2  A    between atoms: C1_6  and  N1_5 
REMARK       I    between atoms: C5_10  and  N1_5 
REMARK    3  A    between atoms: C5_10  and  C6_11 
ROOT
HETATM    1  O1  UNK     1      20.589  -2.497  32.057  1.00  0.00    -0.274 OA
HETATM    2  O4  UNK     1      20.609  -3.264  34.209  1.00  0.00    -0.259 OA
HETATM    3  C6  UNK     1      19.402  -1.264  33.805  1.00  0.00     0.108 A 
HETATM    4  C7  UNK     1      19.384  -0.454  31.521  1.00  0.00     0.002 A 
HETATM    5  C8  UNK     1      19.002  -0.343  32.921  1.00  0.00     0.037 A 
HETATM    6  C9  UNK     1      20.171  -1.530  31.122  1.00  0.00     0.089 A 
HETATM    7  C10 UNK     1      20.239  -2.417  33.402  1.00  0.00     0.304 A 
HETATM    8  C11 UNK     1      18.989   0.484  30.565  1.00  0.00     0.051 A 
HETATM    9  C12 UNK     1      20.570  -1.694  29.797  1.00  0.00     0.041 A 
HETATM   10  C13 UNK     1      19.383   0.333  29.232  1.00  0.00     0.069 A 
HETATM   11  C14 UNK     1      20.172  -0.755  28.850  1.00  0.00     0.039 A 
ENDROOT
BRANCH   3  12
HETATM   12  C5  UNK     1      18.967  -1.064  35.193  1.00  0.00     0.258 C 
HETATM   13  O2  UNK     1      19.584  -1.572  36.127  1.00  0.00    -0.267 OA
HETATM   14  N1  UNK     1      17.835  -0.275  35.293  1.00  0.00    -0.349 N 
HETATM   15  H1  UNK     1      17.427   0.125  34.453  1.00  0.00     0.163 HD
BRANCH  14  16
HETATM   16  C1  UNK     1      17.218   0.059  36.556  1.00  0.00     0.022 C 
HETATM   17  C2  UNK     1      17.953   1.258  37.162  1.00  0.00     0.037 C 
HETATM   18  C3  UNK     1      15.749   0.408  36.303  1.00  0.00     0.037 C 
HETATM   19  C4  UNK     1      17.324  -1.148  37.492  1.00  0.00     0.037 C 
ENDBRANCH  14  16
ENDBRANCH   3  12
BRANCH  10  20
HETATM   20  O3  UNK     1      18.996   1.249  28.303  1.00  0.00    -0.356 OA
HETATM   21  C15 UNK     1      17.852   2.044  28.614  1.00  0.00     0.210 C 
ENDBRANCH  10  20
TORSDOF 3
ENDMDL
MODEL 5
REMARK VINA RESULT:      -7.4     16.107     18.769
REMARK  3 active torsions:
REMARK  status: ('A' for Active; 'I' for Inactive)
REMARK    1  A    between atoms: C13_18  and  O3_3 
REMARK    2  A    between atoms: C1_6  and  N1_5 
REMARK       I    between atoms: C5_10  and  N1_5 
REMARK    3  A    between atoms: C5_10  and  C6_11 
ROOT
HETATM    1  O1  UNK     1      18.262   1.608  32.249  1.00  0.00    -0.274 OA
HETATM    2  O4  UNK     1      18.250   3.217  30.628  1.00  0.00    -0.259 OA
HETATM    3  C6  UNK     1      18.248   3.972  32.874  1.00  0.00     0.108 A 
HETATM    4  C7  UNK     1      18.261   2.262  34.591  1.00  0.00     0.002 A 
HETATM    5  C8  UNK     1      18.252   3.657  34.174  1.00  0.00     0.037 A 
HETATM    6  C9  UNK     1      18.265   1.269  33.617  1.00  0.00     0.089 A 
HETATM    7  C10 UNK     1      18.254   2.932  31.821  1.00  0.00     0.304 A 
HETATM    8  C11 UNK     1      18.264   1.887  35.936  1.00  0.00     0.051 A 
HETATM    9  C12 UNK     1      18.275  -0.084  33.949  1.00  0.00     0.041 A 
HETATM   10  C13 UNK     1      18.273   0.533  36.285  1.00  0.00     0.069 A 
HETATM   11  C14 UNK     1      18.278  -0.449  35.292  1.00  0.00     0.039 A 
ENDROOT
BRANCH   3  12
HETATM   12  C5  UNK     1      18.238   5.405  32.554  1.00  0.00     0.258 C 
HETATM   13  O2  UNK     1      19.166   5.919  31.932  1.00  0.00    -0.267 OA
HETATM   14  N1  UNK     1      17.109   6.053  33.024  1.00  0.00    -0.349 N 
HETATM   15  H1  UNK     1      16.385   5.519  33.496  1.00  0.00     0.163 HD
BRANCH  14  16
HETATM   16  C1  UNK     1      16.877   7.466  32.832  1.00  0.00     0.022 C 
HETATM   17  C2  UNK     1      15.607   7.864  33.591  1.00  0.00     0.037 C 
HETATM   18  C3  UNK     1      18.083   8.236  33.376  1.00  0.00     0.037 C 
HETATM   19  C4  UNK     1      16.701   7.740  31.336  1.00  0.00     0.037 C 
ENDBRANCH  14  16
ENDBRANCH   3  12
BRANCH  10  20
HETATM   20  O3  UNK     1      18.277   0.172  37.597  1.00  0.00    -0.356 OA
HETATM   21  C15 UNK     1      18.086  -1.212  37.889  1.00  0.00     0.210 C 
ENDBRANCH  10  20
TORSDOF 3
ENDMDL
MODEL 6
REMARK VINA RESULT:      -7.4     15.651     17.583
REMARK  3 active torsions:
REMARK  status: ('A' for Active; 'I' for Inactive)
REMARK    1  A    between atoms: C13_18  and  O3_3 
REMARK    2  A    between atoms: C1_6  and  N1_5 
REMARK       I    between atoms: C5_10  and  N1_5 
REMARK    3  A    between atoms: C5_10  and  C6_11 
ROOT
HETATM    1  O1  UNK     1      18.678   3.255  30.822  1.00  0.00    -0.274 OA
HETATM    2  O4  UNK     1      18.618   0.979  31.021  1.00  0.00    -0.259 OA
HETATM    3  C6  UNK     1      18.281   2.229  33.006  1.00  0.00     0.108 A 
HETATM    4  C7  UNK     1      18.346   4.641  32.791  1.00  0.00     0.002 A 
HETATM    5  C8  UNK     1      18.193   3.431  33.585  1.00  0.00     0.037 A 
HETATM    6  C9  UNK     1      18.586   4.524  31.426  1.00  0.00     0.089 A 
HETATM    7  C10 UNK     1      18.536   2.080  31.556  1.00  0.00     0.304 A 
HETATM    8  C11 UNK     1      18.261   5.917  33.353  1.00  0.00     0.051 A 
HETATM    9  C12 UNK     1      18.741   5.642  30.610  1.00  0.00     0.041 A 
HETATM   10  C13 UNK     1      18.416   7.048  32.547  1.00  0.00     0.069 A 
HETATM   11  C14 UNK     1      18.655   6.910  31.178  1.00  0.00     0.039 A 
ENDROOT
BRANCH   3  12
HETATM   12  C5  UNK     1      18.114   1.069  33.890  1.00  0.00     0.258 C 
HETATM   13  O2  UNK     1      18.982   0.201  33.964  1.00  0.00    -0.267 OA
HETATM   14  N1  UNK     1      16.916   1.089  34.583  1.00  0.00    -0.349 N 
HETATM   15  H1  UNK     1      16.287   1.879  34.473  1.00  0.00     0.163 HD
BRANCH  14  16
HETATM   16  C1  UNK     1      16.527   0.053  35.512  1.00  0.00     0.022 C 
HETATM   17  C2  UNK     1      16.248  -1.233  34.727  1.00  0.00     0.037 C 
HETATM   18  C3  UNK     1      17.673  -0.168  36.503  1.00  0.00     0.037 C 
HETATM   19  C4  UNK     1      15.263   0.500  36.251  1.00  0.00     0.037 C 
ENDBRANCH  14  16
ENDBRANCH   3  12
BRANCH  10  20
HETATM   20  O3  UNK     1      18.331   8.290  33.099  1.00  0.00    -0.356 OA
HETATM   21  C15 UNK     1      19.162   8.555  34.229  1.00  0.00     0.210 C 
ENDBRANCH  10  20
TORSDOF 3
ENDMDL
MODEL 7
REMARK VINA RESULT:      -7.3      2.222      6.493
REMARK  3 active torsions:
REMARK  status: ('A' for Active; 'I' for Inactive)
REMARK    1  A    between atoms: C13_18  and  O3_3 
REMARK    2  A    between atoms: C1_6  and  N1_5 
REMARK       I    between atoms: C5_10  and  N1_5 
REMARK    3  A    between atoms: C5_10  and  C6_11 
ROOT
HETATM    1  O1  UNK     1      19.565   0.291  14.536  1.00  0.00    -0.274 OA
HETATM    2  O4  UNK     1      19.617   1.920  16.138  1.00  0.00    -0.259 OA
HETATM    3  C6  UNK     1      18.848  -0.216  16.819  1.00  0.00     0.108 A 
HETATM    4  C7  UNK     1      18.793  -1.940  15.117  1.00  0.00     0.002 A 
HETATM    5  C8  UNK     1      18.578  -1.482  16.482  1.00  0.00     0.037 A 
HETATM    6  C9  UNK     1      19.282  -1.040  14.175  1.00  0.00     0.089 A 
HETATM    7  C10 UNK     1      19.369   0.758  15.833  1.00  0.00     0.304 A 
HETATM    8  C11 UNK     1      18.525  -3.252  14.721  1.00  0.00     0.051 A 
HETATM    9  C12 UNK     1      19.510  -1.415  12.853  1.00  0.00     0.041 A 
HETATM   10  C13 UNK     1      18.748  -3.642  13.397  1.00  0.00     0.069 A 
HETATM   11  C14 UNK     1      19.240  -2.725  12.466  1.00  0.00     0.039 A 
ENDROOT
BRANCH   3  12
HETATM   12  C5  UNK     1      18.597   0.150  18.218  1.00  0.00     0.258 C 
HETATM   13  O2  UNK     1      17.576  -0.219  18.794  1.00  0.00    -0.267 OA
HETATM   14  N1  UNK     1      19.609   0.922  18.761  1.00  0.00    -0.349 N 
HETATM   15  H1  UNK     1      20.430   1.138  18.203  1.00  0.00     0.163 HD
BRANCH  14  16
HETATM   16  C1  UNK     1      19.585   1.406  20.123  1.00  0.00     0.022 C 
HETATM   17  C2  UNK     1      18.246   2.107  20.373  1.00  0.00     0.037 C 
HETATM   18  C3  UNK     1      19.743   0.211  21.067  1.00  0.00     0.037 C 
HETATM   19  C4  UNK     1      20.739   2.394  20.317  1.00  0.00     0.037 C 
ENDBRANCH  14  16
ENDBRANCH   3  12
BRANCH  10  20
HETATM   20  O3  UNK     1      18.486  -4.923  13.015  1.00  0.00    -0.356 OA
HETATM   21  C15 UNK     1      17.966  -5.803  14.011  1.00  0.00     0.210 C 
ENDBRANCH  10  20
TORSDOF 3
ENDMDL
MODEL 8
REMARK VINA RESULT:      -7.1     11.658     13.583
REMARK  3 active torsions:
REMARK  status: ('A' for Active; 'I' for Inactive)
REMARK    1  A    between atoms: C13_18  and  O3_3 
REMARK    2  A    between atoms: C1_6  and  N1_5 
REMARK       I    between atoms: C5_10  and  N1_5 
REMARK    3  A    between atoms: C5_10  and  C6_11 
ROOT
HETATM    1  O1  UNK     1      14.238   5.046   8.975  1.00  0.00    -0.274 OA
HETATM    2  O4  UNK     1      12.284   4.117   8.242  1.00  0.00    -0.259 OA
HETATM    3  C6  UNK     1      12.374   6.484   8.313  1.00  0.00     0.108 A 
HETATM    4  C7  UNK     1      14.448   7.466   9.092  1.00  0.00     0.002 A 
HETATM    5  C8  UNK     1      13.086   7.582   8.593  1.00  0.00     0.037 A 
HETATM    6  C9  UNK     1      14.993   6.198   9.272  1.00  0.00     0.089 A 
HETATM    7  C10 UNK     1      12.933   5.126   8.496  1.00  0.00     0.304 A 
HETATM    8  C11 UNK     1      15.228   8.584   9.397  1.00  0.00     0.051 A 
HETATM    9  C12 UNK     1      16.291   6.018   9.745  1.00  0.00     0.041 A 
HETATM   10  C13 UNK     1      16.531   8.419   9.874  1.00  0.00     0.069 A 
HETATM   11  C14 UNK     1      17.061   7.138  10.047  1.00  0.00     0.039 A 
ENDROOT
BRANCH   3  12
HETATM   12  C5  UNK     1      11.010   6.705   7.816  1.00  0.00     0.258 C 
HETATM   13  O2  UNK     1      10.811   7.326   6.775  1.00  0.00    -0.267 OA
HETATM   14  N1  UNK     1      10.044   6.149   8.636  1.00  0.00    -0.349 N 
HETATM   15  H1  UNK     1      10.325   5.622   9.457  1.00  0.00     0.163 HD
BRANCH  14  16
HETATM   16  C1  UNK     1       8.629   6.238   8.355  1.00  0.00     0.022 C 
HETATM   17  C2  UNK     1       8.407   5.996   6.859  1.00  0.00     0.037 C 
HETATM   18  C3  UNK     1       7.902   5.172   9.178  1.00  0.00     0.037 C 
HETATM   19  C4  UNK     1       8.135   7.635   8.739  1.00  0.00     0.037 C 
ENDBRANCH  14  16
ENDBRANCH   3  12
BRANCH  10  20
HETATM   20  O3  UNK     1      17.288   9.511  10.169  1.00  0.00    -0.356 OA
HETATM   21  C15 UNK     1      17.376  10.528   9.172  1.00  0.00     0.210 C 
ENDBRANCH  10  20
TORSDOF 3
ENDMDL
MODEL 9
REMARK VINA RESULT:      -7.0     15.988     19.301
REMARK  3 active torsions:
REMARK  status: ('A' for Active; 'I' for Inactive)
REMARK    1  A    between atoms: C13_18  and  O3_3 
REMARK    2  A    between atoms: C1_6  and  N1_5 
REMARK       I    between atoms: C5_10  and  N1_5 
REMARK    3  A    between atoms: C5_10  and  C6_11 
ROOT
HETATM    1  O1  UNK     1      18.351  -0.175  36.817  1.00  0.00    -0.274 OA
HETATM    2  O4  UNK     1      18.781  -1.795  38.371  1.00  0.00    -0.259 OA
HETATM    3  C6  UNK     1      19.346  -2.299  36.125  1.00  0.00     0.108 A 
HETATM    4  C7  UNK     1      18.888  -0.580  34.481  1.00  0.00     0.002 A 
HETATM    5  C8  UNK     1      19.380  -1.899  34.849  1.00  0.00     0.037 A 
HETATM    6  C9  UNK     1      18.383   0.252  35.475  1.00  0.00     0.089 A 
HETATM    7  C10 UNK     1      18.814  -1.431  37.200  1.00  0.00     0.304 A 
HETATM    8  C11 UNK     1      18.904  -0.120  33.162  1.00  0.00     0.051 A 
HETATM    9  C12 UNK     1      17.898   1.526  35.189  1.00  0.00     0.041 A 
HETATM   10  C13 UNK     1      18.418   1.156  32.860  1.00  0.00     0.069 A 
HETATM   11  C14 UNK     1      17.917   1.976  33.872  1.00  0.00     0.039 A 
ENDROOT
BRANCH   3  12
HETATM   12  C5  UNK     1      19.864  -3.646  36.396  1.00  0.00     0.258 C 
HETATM   13  O2  UNK     1      21.072  -3.847  36.508  1.00  0.00    -0.267 OA
HETATM   14  N1  UNK     1      18.863  -4.596  36.501  1.00  0.00    -0.349 N 
HETATM   15  H1  UNK     1      17.891  -4.310  36.428  1.00  0.00     0.163 HD
BRANCH  14  16
HETATM   16  C1  UNK     1      19.128  -5.992  36.763  1.00  0.00     0.022 C 
HETATM   17  C2  UNK     1      17.793  -6.727  36.917  1.00  0.00     0.037 C 
HETATM   18  C3  UNK     1      19.917  -6.567  35.584  1.00  0.00     0.037 C 
HETATM   19  C4  UNK     1      19.942  -6.107  38.054  1.00  0.00     0.037 C 
ENDBRANCH  14  16
ENDBRANCH   3  12
BRANCH  10  20
HETATM   20  O3  UNK     1      18.437   1.600  31.573  1.00  0.00    -0.356 OA
HETATM   21  C15 UNK     1      18.239   2.998  31.367  1.00  0.00     0.210 C 
ENDBRANCH  10  20
TORSDOF 3
ENDMDL
MODEL 10
REMARK VINA RESULT:      -7.0     15.640     19.515
REMARK  3 active torsions:
REMARK  status: ('A' for Active; 'I' for Inactive)
REMARK    1  A    between atoms: C13_18  and  O3_3 
REMARK    2  A    between atoms: C1_6  and  N1_5 
REMARK       I    between atoms: C5_10  and  N1_5 
REMARK    3  A    between atoms: C5_10  and  C6_11 
ROOT
HETATM    1  O1  UNK     1      18.554  -0.770  36.581  1.00  0.00    -0.274 OA
HETATM    2  O4  UNK     1      18.943  -2.100  38.397  1.00  0.00    -0.259 OA
HETATM    3  C6  UNK     1      19.716  -2.905  36.306  1.00  0.00     0.108 A 
HETATM    4  C7  UNK     1      19.300  -1.492  34.382  1.00  0.00     0.002 A 
HETATM    5  C8  UNK     1      19.831  -2.704  34.989  1.00  0.00     0.037 A 
HETATM    6  C9  UNK     1      18.672  -0.553  35.194  1.00  0.00     0.089 A 
HETATM    7  C10 UNK     1      19.052  -1.919  37.189  1.00  0.00     0.304 A 
HETATM    8  C11 UNK     1      19.398  -1.241  33.012  1.00  0.00     0.051 A 
HETATM    9  C12 UNK     1      18.143   0.627  34.676  1.00  0.00     0.041 A 
HETATM   10  C13 UNK     1      18.871  -0.061  32.478  1.00  0.00     0.069 A 
HETATM   11  C14 UNK     1      18.245   0.870  33.309  1.00  0.00     0.039 A 
ENDROOT
BRANCH   3  12
HETATM   12  C5  UNK     1      20.282  -4.157  36.824  1.00  0.00     0.258 C 
HETATM   13  O2  UNK     1      21.491  -4.271  37.013  1.00  0.00    -0.267 OA
HETATM   14  N1  UNK     1      19.322  -5.127  37.052  1.00  0.00    -0.349 N 
HETATM   15  H1  UNK     1      18.342  -4.910  36.895  1.00  0.00     0.163 HD
BRANCH  14  16
HETATM   16  C1  UNK     1      19.639  -6.443  37.559  1.00  0.00     0.022 C 
HETATM   17  C2  UNK     1      18.352  -7.272  37.616  1.00  0.00     0.037 C 
HETATM   18  C3  UNK     1      20.650  -7.097  36.615  1.00  0.00     0.037 C 
HETATM   19  C4  UNK     1      20.234  -6.302  38.962  1.00  0.00     0.037 C 
ENDBRANCH  14  16
ENDBRANCH   3  12
BRANCH  10  20
HETATM   20  O3  UNK     1      18.969   0.180  31.141  1.00  0.00    -0.356 OA
HETATM   21  C15 UNK     1      20.251  -0.003  30.542  1.00  0.00     0.210 C 
ENDBRANCH  10  20
TORSDOF 3
ENDMDL
