MODEL 1
REMARK VINA RESULT:      -7.2      0.000      0.000
REMARK  4 active torsions:
REMARK  status: ('A' for Active; 'I' for Inactive)
REMARK    1  A    between atoms: C12_16  and  O3_3 
REMARK    2  A    between atoms: C1_5  and  C4_8 
REMARK    3  A    between atoms: C11_15  and  C4_8 
REMARK    4  A    between atoms: C12_16  and  C9_13 
ROOT
HETATM    1  O1  UNK     1      18.823   0.502  32.265  1.00  0.00    -0.273 OA
HETATM    2  O2  UNK     1      17.887   2.575  32.055  1.00  0.00    -0.259 OA
HETATM    3  C1  UNK     1      19.804  -1.674  32.489  1.00  0.00    -0.020 A 
HETATM    4  C2  UNK     1      19.501  -0.583  31.677  1.00  0.00     0.096 A 
HETATM    5  C3  UNK     1      19.849  -0.553  30.331  1.00  0.00    -0.000 A 
HETATM    6  C5  UNK     1      20.474  -2.763  31.935  1.00  0.00     0.010 A 
HETATM    7  C6  UNK     1      20.522  -1.649  29.783  1.00  0.00     0.014 A 
HETATM    8  C7  UNK     1      19.502   0.617  29.539  1.00  0.00     0.039 A 
HETATM    9  C8  UNK     1      20.833  -2.750  30.586  1.00  0.00     0.002 A 
HETATM   10  C9  UNK     1      18.857   1.645  30.103  1.00  0.00     0.114 A 
HETATM   11  C10 UNK     1      18.477   1.635  31.534  1.00  0.00     0.305 A 
ENDROOT
BRANCH  10  12
HETATM   12  C12 UNK     1      18.549   2.779  29.224  1.00  0.00     0.182 C 
HETATM   13  O4  UNK     1      17.937   2.690  28.177  1.00  0.00    -0.646 OA
BRANCH  12  14
HETATM   14  O3  UNK     1      19.047   3.912  29.760  1.00  0.00    -0.772 OA
HETATM   15  H10 UNK     1      19.118   3.858  30.736  1.00  0.00     0.167 HD
ENDBRANCH  12  14
ENDBRANCH  10  12
BRANCH   3  16
HETATM   16  C4  UNK     1      19.426  -1.698  33.931  1.00  0.00     0.067 C 
BRANCH  16  17
HETATM   17  C11 UNK     1      20.359  -2.529  34.772  1.00  0.00    -0.032 C 
HETATM   18  C13 UNK     1      20.428  -2.466  36.107  1.00  0.00     0.007 C 
ENDBRANCH  16  17
ENDBRANCH   3  16
TORSDOF 4
ENDMDL
MODEL 2
REMARK VINA RESULT:      -7.1      1.989      5.274
REMARK  4 active torsions:
REMARK  status: ('A' for Active; 'I' for Inactive)
REMARK    1  A    between atoms: C12_16  and  O3_3 
REMARK    2  A    between atoms: C1_5  and  C4_8 
REMARK    3  A    between atoms: C11_15  and  C4_8 
REMARK    4  A    between atoms: C12_16  and  C9_13 
ROOT
HETATM    1  O1  UNK     1      18.695   0.947  32.520  1.00  0.00    -0.273 OA
HETATM    2  O2  UNK     1      17.807   1.271  34.600  1.00  0.00    -0.259 OA
HETATM    3  C1  UNK     1      19.627   0.610  30.337  1.00  0.00    -0.020 A 
HETATM    4  C2  UNK     1      19.319   0.090  31.593  1.00  0.00     0.096 A 
HETATM    5  C3  UNK     1      19.611  -1.227  31.932  1.00  0.00    -0.000 A 
HETATM    6  C5  UNK     1      20.245  -0.213  29.399  1.00  0.00     0.010 A 
HETATM    7  C6  UNK     1      20.231  -2.046  30.985  1.00  0.00     0.014 A 
HETATM    8  C7  UNK     1      19.263  -1.706  33.261  1.00  0.00     0.039 A 
HETATM    9  C8  UNK     1      20.545  -1.538  29.721  1.00  0.00     0.002 A 
HETATM   10  C9  UNK     1      18.671  -0.887  34.138  1.00  0.00     0.114 A 
HETATM   11  C10 UNK     1      18.350   0.518  33.799  1.00  0.00     0.305 A 
ENDROOT
BRANCH  10  12
HETATM   12  C12 UNK     1      18.359  -1.460  35.453  1.00  0.00     0.182 C 
HETATM   13  O4  UNK     1      19.194  -1.790  36.274  1.00  0.00    -0.646 OA
BRANCH  12  14
HETATM   14  O3  UNK     1      17.022  -1.558  35.597  1.00  0.00    -0.772 OA
HETATM   15  H10 UNK     1      16.596  -1.973  34.817  1.00  0.00     0.167 HD
ENDBRANCH  12  14
ENDBRANCH  10  12
BRANCH   3  16
HETATM   16  C4  UNK     1      19.311   2.023  29.982  1.00  0.00     0.067 C 
BRANCH  16  17
HETATM   17  C11 UNK     1      17.994   2.172  29.267  1.00  0.00    -0.032 C 
HETATM   18  C13 UNK     1      17.639   1.467  28.187  1.00  0.00     0.007 C 
ENDBRANCH  16  17
ENDBRANCH   3  16
TORSDOF 4
ENDMDL
MODEL 3
REMARK VINA RESULT:      -7.1      5.646      8.236
REMARK  4 active torsions:
REMARK  status: ('A' for Active; 'I' for Inactive)
REMARK    1  A    between atoms: C12_16  and  O3_3 
REMARK    2  A    between atoms: C1_5  and  C4_8 
REMARK    3  A    between atoms: C11_15  and  C4_8 
REMARK    4  A    between atoms: C12_16  and  C9_13 
ROOT
HETATM    1  O1  UNK     1      16.772   6.638  31.433  1.00  0.00    -0.273 OA
HETATM    2  O2  UNK     1      14.520   7.025  31.434  1.00  0.00    -0.259 OA
HETATM    3  C1  UNK     1      19.135   6.230  31.429  1.00  0.00    -0.020 A 
HETATM    4  C2  UNK     1      18.014   6.731  32.089  1.00  0.00     0.096 A 
HETATM    5  C3  UNK     1      18.105   7.307  33.352  1.00  0.00    -0.000 A 
HETATM    6  C5  UNK     1      20.377   6.309  32.053  1.00  0.00     0.010 A 
HETATM    7  C6  UNK     1      19.356   7.382  33.971  1.00  0.00     0.014 A 
HETATM    8  C7  UNK     1      16.896   7.811  33.985  1.00  0.00     0.039 A 
HETATM    9  C8  UNK     1      20.488   6.883  33.321  1.00  0.00     0.002 A 
HETATM   10  C9  UNK     1      15.719   7.720  33.356  1.00  0.00     0.114 A 
HETATM   11  C10 UNK     1      15.598   7.111  32.012  1.00  0.00     0.305 A 
ENDROOT
BRANCH  10  12
HETATM   12  C12 UNK     1      14.556   8.257  34.074  1.00  0.00     0.182 C 
HETATM   13  O4  UNK     1      14.465   9.402  34.475  1.00  0.00    -0.646 OA
BRANCH  12  14
HETATM   14  O3  UNK     1      13.625   7.291  34.211  1.00  0.00    -0.772 OA
HETATM   15  H10 UNK     1      14.027   6.399  34.284  1.00  0.00     0.167 HD
ENDBRANCH  12  14
ENDBRANCH  10  12
BRANCH   3  16
HETATM   16  C4  UNK     1      19.028   5.616  30.075  1.00  0.00     0.067 C 
BRANCH  16  17
HETATM   17  C11 UNK     1      19.058   4.110  30.105  1.00  0.00    -0.032 C 
HETATM   18  C13 UNK     1      18.352   3.360  30.958  1.00  0.00     0.007 C 
ENDBRANCH  16  17
ENDBRANCH   3  16
TORSDOF 4
ENDMDL
MODEL 4
REMARK VINA RESULT:      -6.9      6.371      8.811
REMARK  4 active torsions:
REMARK  status: ('A' for Active; 'I' for Inactive)
REMARK    1  A    between atoms: C12_16  and  O3_3 
REMARK    2  A    between atoms: C1_5  and  C4_8 
REMARK    3  A    between atoms: C11_15  and  C4_8 
REMARK    4  A    between atoms: C12_16  and  C9_13 
ROOT
HETATM    1  O1  UNK     1      16.222   6.459  32.384  1.00  0.00    -0.273 OA
HETATM    2  O2  UNK     1      13.981   6.852  32.177  1.00  0.00    -0.259 OA
HETATM    3  C1  UNK     1      18.574   6.043  32.598  1.00  0.00    -0.020 A 
HETATM    4  C2  UNK     1      17.483   6.870  32.857  1.00  0.00     0.096 A 
HETATM    5  C3  UNK     1      17.619   8.064  33.558  1.00  0.00    -0.000 A 
HETATM    6  C5  UNK     1      19.834   6.424  33.054  1.00  0.00     0.010 A 
HETATM    7  C6  UNK     1      18.887   8.439  34.012  1.00  0.00     0.014 A 
HETATM    8  C7  UNK     1      16.439   8.881  33.794  1.00  0.00     0.039 A 
HETATM    9  C8  UNK     1      19.990   7.618  33.760  1.00  0.00     0.002 A 
HETATM   10  C9  UNK     1      15.244   8.485  33.341  1.00  0.00     0.114 A 
HETATM   11  C10 UNK     1      15.075   7.218  32.593  1.00  0.00     0.305 A 
ENDROOT
BRANCH  10  12
HETATM   12  C12 UNK     1      14.113   9.376  33.627  1.00  0.00     0.182 C 
HETATM   13  O4  UNK     1      13.957   9.974  34.675  1.00  0.00    -0.646 OA
BRANCH  12  14
HETATM   14  O3  UNK     1      13.294   9.421  32.557  1.00  0.00    -0.772 OA
HETATM   15  H10 UNK     1      12.835   8.568  32.407  1.00  0.00     0.167 HD
ENDBRANCH  12  14
ENDBRANCH  10  12
BRANCH   3  16
HETATM   16  C4  UNK     1      18.419   4.766  31.844  1.00  0.00     0.067 C 
BRANCH  16  17
HETATM   17  C11 UNK     1      19.163   4.758  30.535  1.00  0.00    -0.032 C 
HETATM   18  C13 UNK     1      19.224   5.799  29.697  1.00  0.00     0.007 C 
ENDBRANCH  16  17
ENDBRANCH   3  16
TORSDOF 4
ENDMDL
MODEL 5
REMARK VINA RESULT:      -6.9     23.681     25.512
REMARK  4 active torsions:
REMARK  status: ('A' for Active; 'I' for Inactive)
REMARK    1  A    between atoms: C12_16  and  O3_3 
REMARK    2  A    between atoms: C1_5  and  C4_8 
REMARK    3  A    between atoms: C11_15  and  C4_8 
REMARK    4  A    between atoms: C12_16  and  C9_13 
ROOT
HETATM    1  O1  UNK     1      11.214   7.193   9.500  1.00  0.00    -0.273 OA
HETATM    2  O2  UNK     1      12.971   7.432  10.941  1.00  0.00    -0.259 OA
HETATM    3  C1  UNK     1       9.368   6.945   7.990  1.00  0.00    -0.020 A 
HETATM    4  C2  UNK     1      10.735   6.817   8.230  1.00  0.00     0.096 A 
HETATM    5  C3  UNK     1      11.607   6.337   7.259  1.00  0.00    -0.000 A 
HETATM    6  C5  UNK     1       8.865   6.581   6.744  1.00  0.00     0.010 A 
HETATM    7  C6  UNK     1      11.094   5.973   6.011  1.00  0.00     0.014 A 
HETATM    8  C7  UNK     1      13.023   6.229   7.576  1.00  0.00     0.039 A 
HETATM    9  C8  UNK     1       9.725   6.095   5.757  1.00  0.00     0.002 A 
HETATM   10  C9  UNK     1      13.473   6.588   8.783  1.00  0.00     0.114 A 
HETATM   11  C10 UNK     1      12.563   7.102   9.832  1.00  0.00     0.305 A 
ENDROOT
BRANCH  10  12
HETATM   12  C12 UNK     1      14.916   6.445   9.008  1.00  0.00     0.182 C 
HETATM   13  O4  UNK     1      15.546   5.426   8.799  1.00  0.00    -0.646 OA
BRANCH  12  14
HETATM   14  O3  UNK     1      15.417   7.608   9.474  1.00  0.00    -0.772 OA
HETATM   15  H10 UNK     1      15.582   7.577  10.440  1.00  0.00     0.167 HD
ENDBRANCH  12  14
ENDBRANCH  10  12
BRANCH   3  16
HETATM   16  C4  UNK     1       8.440   7.462   9.036  1.00  0.00     0.067 C 
BRANCH  16  17
HETATM   17  C11 UNK     1       7.563   6.391   9.629  1.00  0.00    -0.032 C 
HETATM   18  C13 UNK     1       8.016   5.231  10.117  1.00  0.00     0.007 C 
ENDBRANCH  16  17
ENDBRANCH   3  16
TORSDOF 4
ENDMDL
MODEL 6
REMARK VINA RESULT:      -6.8      6.794      9.858
REMARK  4 active torsions:
REMARK  status: ('A' for Active; 'I' for Inactive)
REMARK    1  A    between atoms: C12_16  and  O3_3 
REMARK    2  A    between atoms: C1_5  and  C4_8 
REMARK    3  A    between atoms: C11_15  and  C4_8 
REMARK    4  A    between atoms: C12_16  and  C9_13 
ROOT
HETATM    1  O1  UNK     1      19.130  -7.445  37.740  1.00  0.00    -0.273 OA
HETATM    2  O2  UNK     1      17.755  -6.202  36.404  1.00  0.00    -0.259 OA
HETATM    3  C1  UNK     1      20.570  -8.753  39.142  1.00  0.00    -0.020 A 
HETATM    4  C2  UNK     1      20.339  -7.564  38.452  1.00  0.00     0.096 A 
HETATM    5  C3  UNK     1      21.262  -6.524  38.457  1.00  0.00    -0.000 A 
HETATM    6  C5  UNK     1      21.757  -8.900  39.855  1.00  0.00     0.010 A 
HETATM    7  C6  UNK     1      22.451  -6.679  39.175  1.00  0.00     0.014 A 
HETATM    8  C7  UNK     1      20.958  -5.309  37.715  1.00  0.00     0.039 A 
HETATM    9  C8  UNK     1      22.695  -7.866  39.872  1.00  0.00     0.002 A 
HETATM   10  C9  UNK     1      19.808  -5.203  37.040  1.00  0.00     0.114 A 
HETATM   11  C10 UNK     1      18.811  -6.297  37.021  1.00  0.00     0.305 A 
ENDROOT
BRANCH  10  12
HETATM   12  C12 UNK     1      19.592  -3.941  36.321  1.00  0.00     0.182 C 
HETATM   13  O4  UNK     1      20.382  -3.454  35.535  1.00  0.00    -0.646 OA
BRANCH  12  14
HETATM   14  O3  UNK     1      18.396  -3.423  36.670  1.00  0.00    -0.772 OA
HETATM   15  H10 UNK     1      18.487  -2.560  37.127  1.00  0.00     0.167 HD
ENDBRANCH  12  14
ENDBRANCH  10  12
BRANCH   3  16
HETATM   16  C4  UNK     1      19.576  -9.864  39.131  1.00  0.00     0.067 C 
BRANCH  16  17
HETATM   17  C11 UNK     1      19.740 -10.791  37.955  1.00  0.00    -0.032 C 
HETATM   18  C13 UNK     1      20.839 -10.859  37.196  1.00  0.00     0.007 C 
ENDBRANCH  16  17
ENDBRANCH   3  16
TORSDOF 4
ENDMDL
MODEL 7
REMARK VINA RESULT:      -6.8      3.324      6.334
REMARK  4 active torsions:
REMARK  status: ('A' for Active; 'I' for Inactive)
REMARK    1  A    between atoms: C12_16  and  O3_3 
REMARK    2  A    between atoms: C1_5  and  C4_8 
REMARK    3  A    between atoms: C11_15  and  C4_8 
REMARK    4  A    between atoms: C12_16  and  C9_13 
ROOT
HETATM    1  O1  UNK     1      17.990   3.374  33.104  1.00  0.00    -0.273 OA
HETATM    2  O2  UNK     1      18.087   1.246  33.929  1.00  0.00    -0.259 OA
HETATM    3  C1  UNK     1      17.888   5.609  32.241  1.00  0.00    -0.020 A 
HETATM    4  C2  UNK     1      18.242   4.274  32.051  1.00  0.00     0.096 A 
HETATM    5  C3  UNK     1      18.824   3.833  30.867  1.00  0.00    -0.000 A 
HETATM    6  C5  UNK     1      18.125   6.523  31.217  1.00  0.00     0.010 A 
HETATM    7  C6  UNK     1      19.058   4.757  29.845  1.00  0.00     0.014 A 
HETATM    8  C7  UNK     1      19.170   2.426  30.734  1.00  0.00     0.039 A 
HETATM    9  C8  UNK     1      18.708   6.099  30.022  1.00  0.00     0.002 A 
HETATM   10  C9  UNK     1      18.929   1.576  31.738  1.00  0.00     0.114 A 
HETATM   11  C10 UNK     1      18.310   2.023  33.007  1.00  0.00     0.305 A 
ENDROOT
BRANCH  10  12
HETATM   12  C12 UNK     1      19.313   0.177  31.511  1.00  0.00     0.182 C 
HETATM   13  O4  UNK     1      20.395  -0.177  31.081  1.00  0.00    -0.646 OA
BRANCH  12  14
HETATM   14  O3  UNK     1      18.290  -0.632  31.851  1.00  0.00    -0.772 OA
HETATM   15  H10 UNK     1      18.115  -0.621  32.816  1.00  0.00     0.167 HD
ENDBRANCH  12  14
ENDBRANCH  10  12
BRANCH   3  16
HETATM   16  C4  UNK     1      17.265   6.074  33.514  1.00  0.00     0.067 C 
BRANCH  16  17
HETATM   17  C11 UNK     1      17.811   7.394  33.991  1.00  0.00    -0.032 C 
HETATM   18  C13 UNK     1      18.954   7.535  34.671  1.00  0.00     0.007 C 
ENDBRANCH  16  17
ENDBRANCH   3  16
TORSDOF 4
ENDMDL
MODEL 8
REMARK VINA RESULT:      -6.8      2.560      4.363
REMARK  4 active torsions:
REMARK  status: ('A' for Active; 'I' for Inactive)
REMARK    1  A    between atoms: C12_16  and  O3_3 
REMARK    2  A    between atoms: C1_5  and  C4_8 
REMARK    3  A    between atoms: C11_15  and  C4_8 
REMARK    4  A    between atoms: C12_16  and  C9_13 
ROOT
HETATM    1  O1  UNK     1      18.987   0.293  32.412  1.00  0.00    -0.273 OA
HETATM    2  O2  UNK     1      19.629  -1.614  31.329  1.00  0.00    -0.259 OA
HETATM    3  C1  UNK     1      18.315   2.293  33.551  1.00  0.00    -0.020 A 
HETATM    4  C2  UNK     1      18.682   1.667  32.361  1.00  0.00     0.096 A 
HETATM    5  C3  UNK     1      18.749   2.362  31.159  1.00  0.00    -0.000 A 
HETATM    6  C5  UNK     1      18.007   3.651  33.532  1.00  0.00     0.010 A 
HETATM    7  C6  UNK     1      18.439   3.725  31.148  1.00  0.00     0.014 A 
HETATM    8  C7  UNK     1      19.140   1.648  29.953  1.00  0.00     0.039 A 
HETATM    9  C8  UNK     1      18.068   4.366  32.335  1.00  0.00     0.002 A 
HETATM   10  C9  UNK     1      19.430   0.343  30.007  1.00  0.00     0.114 A 
HETATM   11  C10 UNK     1      19.365  -0.417  31.276  1.00  0.00     0.305 A 
ENDROOT
BRANCH  10  12
HETATM   12  C12 UNK     1      19.816  -0.289  28.740  1.00  0.00     0.182 C 
HETATM   13  O4  UNK     1      20.949  -0.630  28.459  1.00  0.00    -0.646 OA
BRANCH  12  14
HETATM   14  O3  UNK     1      18.727  -0.427  27.956  1.00  0.00    -0.772 OA
HETATM   15  H10 UNK     1      18.455  -1.365  27.864  1.00  0.00     0.167 HD
ENDBRANCH  12  14
ENDBRANCH  10  12
BRANCH   3  16
HETATM   16  C4  UNK     1      18.246   1.540  34.836  1.00  0.00     0.067 C 
BRANCH  16  17
HETATM   17  C11 UNK     1      16.884   0.957  35.107  1.00  0.00    -0.032 C 
HETATM   18  C13 UNK     1      16.540  -0.308  34.844  1.00  0.00     0.007 C 
ENDBRANCH  16  17
ENDBRANCH   3  16
TORSDOF 4
ENDMDL
MODEL 9
REMARK VINA RESULT:      -6.7      2.756      5.832
REMARK  4 active torsions:
REMARK  status: ('A' for Active; 'I' for Inactive)
REMARK    1  A    between atoms: C12_16  and  O3_3 
REMARK    2  A    between atoms: C1_5  and  C4_8 
REMARK    3  A    between atoms: C11_15  and  C4_8 
REMARK    4  A    between atoms: C12_16  and  C9_13 
ROOT
HETATM    1  O1  UNK     1      18.407   0.957  32.559  1.00  0.00    -0.273 OA
HETATM    2  O2  UNK     1      18.156  -0.368  34.404  1.00  0.00    -0.259 OA
HETATM    3  C1  UNK     1      18.669   2.344  30.622  1.00  0.00    -0.020 A 
HETATM    4  C2  UNK     1      18.494   2.247  32.001  1.00  0.00     0.096 A 
HETATM    5  C3  UNK     1      18.407   3.375  32.810  1.00  0.00    -0.000 A 
HETATM    6  C5  UNK     1      18.759   3.607  30.041  1.00  0.00     0.010 A 
HETATM    7  C6  UNK     1      18.499   4.638  32.219  1.00  0.00     0.014 A 
HETATM    8  C7  UNK     1      18.224   3.201  34.243  1.00  0.00     0.039 A 
HETATM    9  C8  UNK     1      18.675   4.751  30.836  1.00  0.00     0.002 A 
HETATM   10  C9  UNK     1      18.141   1.974  34.767  1.00  0.00     0.114 A 
HETATM   11  C10 UNK     1      18.231   0.759  33.926  1.00  0.00     0.305 A 
ENDROOT
BRANCH  10  12
HETATM   12  C12 UNK     1      17.955   1.900  36.222  1.00  0.00     0.182 C 
HETATM   13  O4  UNK     1      16.938   1.513  36.766  1.00  0.00    -0.646 OA
BRANCH  12  14
HETATM   14  O3  UNK     1      19.075   2.325  36.841  1.00  0.00    -0.772 OA
HETATM   15  H10 UNK     1      19.374   3.197  36.507  1.00  0.00     0.167 HD
ENDBRANCH  12  14
ENDBRANCH  10  12
BRANCH   3  16
HETATM   16  C4  UNK     1      18.760   1.130  29.762  1.00  0.00     0.067 C 
BRANCH  16  17
HETATM   17  C11 UNK     1      20.124   0.491  29.785  1.00  0.00    -0.032 C 
HETATM   18  C13 UNK     1      20.483  -0.545  29.019  1.00  0.00     0.007 C 
ENDBRANCH  16  17
ENDBRANCH   3  16
TORSDOF 4
ENDMDL
MODEL 10
REMARK VINA RESULT:      -6.7      2.409      3.356
REMARK  4 active torsions:
REMARK  status: ('A' for Active; 'I' for Inactive)
REMARK    1  A    between atoms: C12_16  and  O3_3 
REMARK    2  A    between atoms: C1_5  and  C4_8 
REMARK    3  A    between atoms: C11_15  and  C4_8 
REMARK    4  A    between atoms: C12_16  and  C9_13 
ROOT
HETATM    1  O1  UNK     1      18.539   0.511  32.223  1.00  0.00    -0.273 OA
HETATM    2  O2  UNK     1      18.410   1.456  30.146  1.00  0.00    -0.259 OA
HETATM    3  C1  UNK     1      18.671  -0.477  34.403  1.00  0.00    -0.020 A 
HETATM    4  C2  UNK     1      19.037  -0.506  33.059  1.00  0.00     0.096 A 
HETATM    5  C3  UNK     1      19.864  -1.500  32.547  1.00  0.00    -0.000 A 
HETATM    6  C5  UNK     1      19.148  -1.471  35.255  1.00  0.00     0.010 A 
HETATM    7  C6  UNK     1      20.339  -2.493  33.408  1.00  0.00     0.014 A 
HETATM    8  C7  UNK     1      20.207  -1.472  31.133  1.00  0.00     0.039 A 
HETATM    9  C8  UNK     1      19.980  -2.476  34.759  1.00  0.00     0.002 A 
HETATM   10  C9  UNK     1      19.730  -0.503  30.344  1.00  0.00     0.114 A 
HETATM   11  C10 UNK     1      18.848   0.565  30.867  1.00  0.00     0.305 A 
ENDROOT
BRANCH  10  12
HETATM   12  C12 UNK     1      20.130  -0.559  28.932  1.00  0.00     0.182 C 
HETATM   13  O4  UNK     1      21.281  -0.642  28.547  1.00  0.00    -0.646 OA
BRANCH  12  14
HETATM   14  O3  UNK     1      19.032  -0.505  28.151  1.00  0.00    -0.772 OA
HETATM   15  H10 UNK     1      19.217  -0.800  27.234  1.00  0.00     0.167 HD
ENDBRANCH  12  14
ENDBRANCH  10  12
BRANCH   3  16
HETATM   16  C4  UNK     1      17.782   0.591  34.944  1.00  0.00     0.067 C 
BRANCH  16  17
HETATM   17  C11 UNK     1      18.283   1.178  36.237  1.00  0.00    -0.032 C 
HETATM   18  C13 UNK     1      17.572   1.222  37.370  1.00  0.00     0.007 C 
ENDBRANCH  16  17
ENDBRANCH   3  16
TORSDOF 4
ENDMDL
