MODEL 1
REMARK VINA RESULT:      -7.0      0.000      0.000
REMARK  7 active torsions:
REMARK  status: ('A' for Active; 'I' for Inactive)
REMARK    1  A    between atoms: C12_15  and  O2_2 
REMARK    2  A    between atoms: C15_18  and  O2_2 
REMARK    3  A    between atoms: C1_4  and  C2_5 
REMARK    4  A    between atoms: C1_4  and  C3_6 
REMARK    5  A    between atoms: C3_6  and  C6_9 
REMARK    6  A    between atoms: C14_17  and  C15_18 
REMARK    7  A    between atoms: C14_17  and  C17_20 
ROOT
HETATM    1  O1  UNK     1      17.609   4.097  33.317  1.00  0.00    -0.274 OA
HETATM    2  O3  UNK     1      17.984   1.998  32.540  1.00  0.00    -0.259 OA
HETATM    3  C2  UNK     1      18.654   3.785  31.115  1.00  0.00     0.024 A 
HETATM    4  C4  UNK     1      18.705   5.120  30.916  1.00  0.00    -0.037 A 
HETATM    5  C5  UNK     1      18.222   6.031  31.974  1.00  0.00     0.005 A 
HETATM    6  C7  UNK     1      17.688   5.486  33.139  1.00  0.00     0.092 A 
HETATM    7  C8  UNK     1      18.069   3.209  32.360  1.00  0.00     0.295 A 
HETATM    8  C9  UNK     1      18.273   7.431  31.887  1.00  0.00     0.017 A 
HETATM    9  C10 UNK     1      19.220   5.758  29.650  1.00  0.00     0.050 C 
HETATM   10  C11 UNK     1      17.209   6.276  34.187  1.00  0.00     0.075 A 
HETATM   11  C12 UNK     1      17.264   7.660  34.078  1.00  0.00     0.071 A 
HETATM   12  C13 UNK     1      17.798   8.237  32.929  1.00  0.00     0.038 A 
ENDROOT
BRANCH  11  13
HETATM   13  O2  UNK     1      16.803   8.446  35.088  1.00  0.00    -0.351 OA
BRANCH  13  14
HETATM   14  C15 UNK     1      16.025   9.584  34.721  1.00  0.00     0.175 C 
BRANCH  14  15
HETATM   15  C14 UNK     1      14.569   9.158  34.580  1.00  0.00     0.026 C 
BRANCH  15  16
HETATM   16  C17 UNK     1      14.152   9.056  33.116  1.00  0.00    -0.002 C 
HETATM   17  C18 UNK     1      13.994   7.608  32.680  1.00  0.00     0.005 C 
ENDBRANCH  15  16
ENDBRANCH  14  15
ENDBRANCH  13  14
ENDBRANCH  11  13
BRANCH   3  18
HETATM   18  C1  UNK     1      19.171   2.750  30.150  1.00  0.00     0.045 C 
BRANCH  18  19
HETATM   19  C3  UNK     1      18.130   2.413  29.089  1.00  0.00     0.004 C 
BRANCH  19  20
HETATM   20  C6  UNK     1      18.318   0.983  28.581  1.00  0.00    -0.004 C 
HETATM   21  C16 UNK     1      19.634   0.390  29.063  1.00  0.00     0.005 C 
ENDBRANCH  19  20
ENDBRANCH  18  19
ENDBRANCH   3  18
TORSDOF 7
ENDMDL
MODEL 2
REMARK VINA RESULT:      -6.8      1.248      1.937
REMARK  7 active torsions:
REMARK  status: ('A' for Active; 'I' for Inactive)
REMARK    1  A    between atoms: C12_15  and  O2_2 
REMARK    2  A    between atoms: C15_18  and  O2_2 
REMARK    3  A    between atoms: C1_4  and  C2_5 
REMARK    4  A    between atoms: C1_4  and  C3_6 
REMARK    5  A    between atoms: C3_6  and  C6_9 
REMARK    6  A    between atoms: C14_17  and  C15_18 
REMARK    7  A    between atoms: C14_17  and  C17_20 
ROOT
HETATM    1  O1  UNK     1      18.259   2.854  33.630  1.00  0.00    -0.274 OA
HETATM    2  O3  UNK     1      18.438   0.599  33.456  1.00  0.00    -0.259 OA
HETATM    3  C2  UNK     1      18.656   1.834  31.430  1.00  0.00     0.024 A 
HETATM    4  C4  UNK     1      18.626   3.043  30.830  1.00  0.00    -0.037 A 
HETATM    5  C5  UNK     1      18.442   4.257  31.650  1.00  0.00     0.005 A 
HETATM    6  C7  UNK     1      18.262   4.120  33.024  1.00  0.00     0.092 A 
HETATM    7  C8  UNK     1      18.450   1.693  32.900  1.00  0.00     0.295 A 
HETATM    8  C9  UNK     1      18.443   5.562  31.133  1.00  0.00     0.017 A 
HETATM    9  C10 UNK     1      18.759   3.241  29.340  1.00  0.00     0.050 C 
HETATM   10  C11 UNK     1      18.080   5.216  33.872  1.00  0.00     0.075 A 
HETATM   11  C12 UNK     1      18.080   6.498  33.337  1.00  0.00     0.071 A 
HETATM   12  C13 UNK     1      18.263   6.671  31.968  1.00  0.00     0.038 A 
ENDROOT
BRANCH  11  13
HETATM   13  O2  UNK     1      17.904   7.578  34.146  1.00  0.00    -0.351 OA
BRANCH  13  14
HETATM   14  C15 UNK     1      16.698   7.632  34.905  1.00  0.00     0.175 C 
BRANCH  14  15
HETATM   15  C14 UNK     1      15.854   8.795  34.402  1.00  0.00     0.026 C 
BRANCH  15  16
HETATM   16  C17 UNK     1      14.470   8.334  33.954  1.00  0.00    -0.002 C 
HETATM   17  C18 UNK     1      14.550   7.432  32.733  1.00  0.00     0.005 C 
ENDBRANCH  15  16
ENDBRANCH  14  15
ENDBRANCH  13  14
ENDBRANCH  11  13
BRANCH   3  18
HETATM   18  C1  UNK     1      18.901   0.526  30.723  1.00  0.00     0.045 C 
BRANCH  18  19
HETATM   19  C3  UNK     1      20.391   0.232  30.602  1.00  0.00     0.004 C 
BRANCH  19  20
HETATM   20  C6  UNK     1      20.669  -0.657  29.389  1.00  0.00    -0.004 C 
HETATM   21  C16 UNK     1      19.574  -0.528  28.341  1.00  0.00     0.005 C 
ENDBRANCH  19  20
ENDBRANCH  18  19
ENDBRANCH   3  18
TORSDOF 7
ENDMDL
MODEL 3
REMARK VINA RESULT:      -6.5      1.611      7.285
REMARK  7 active torsions:
REMARK  status: ('A' for Active; 'I' for Inactive)
REMARK    1  A    between atoms: C12_15  and  O2_2 
REMARK    2  A    between atoms: C15_18  and  O2_2 
REMARK    3  A    between atoms: C1_4  and  C2_5 
REMARK    4  A    between atoms: C1_4  and  C3_6 
REMARK    5  A    between atoms: C3_6  and  C6_9 
REMARK    6  A    between atoms: C14_17  and  C15_18 
REMARK    7  A    between atoms: C14_17  and  C17_20 
ROOT
HETATM    1  O1  UNK     1      16.020   6.353  32.702  1.00  0.00    -0.274 OA
HETATM    2  O3  UNK     1      14.407   7.519  33.792  1.00  0.00    -0.259 OA
HETATM    3  C2  UNK     1      16.636   8.325  34.033  1.00  0.00     0.024 A 
HETATM    4  C4  UNK     1      17.944   8.146  33.749  1.00  0.00    -0.037 A 
HETATM    5  C5  UNK     1      18.350   7.037  32.861  1.00  0.00     0.005 A 
HETATM    6  C7  UNK     1      17.372   6.177  32.369  1.00  0.00     0.092 A 
HETATM    7  C8  UNK     1      15.596   7.391  33.513  1.00  0.00     0.295 A 
HETATM    8  C9  UNK     1      19.674   6.793  32.466  1.00  0.00     0.017 A 
HETATM    9  C10 UNK     1      19.047   9.015  34.301  1.00  0.00     0.050 C 
HETATM   10  C11 UNK     1      17.670   5.104  31.525  1.00  0.00     0.075 A 
HETATM   11  C12 UNK     1      18.988   4.877  31.151  1.00  0.00     0.071 A 
HETATM   12  C13 UNK     1      19.990   5.723  31.619  1.00  0.00     0.038 A 
ENDROOT
BRANCH  11  13
HETATM   13  O2  UNK     1      19.299   3.838  30.330  1.00  0.00    -0.351 OA
BRANCH  13  14
HETATM   14  C15 UNK     1      18.407   2.725  30.325  1.00  0.00     0.175 C 
BRANCH  14  15
HETATM   15  C14 UNK     1      18.086   2.359  28.882  1.00  0.00     0.026 C 
BRANCH  15  16
HETATM   16  C17 UNK     1      18.427   0.903  28.581  1.00  0.00    -0.002 C 
HETATM   17  C18 UNK     1      19.733   0.487  29.242  1.00  0.00     0.005 C 
ENDBRANCH  15  16
ENDBRANCH  14  15
ENDBRANCH  13  14
ENDBRANCH  11  13
BRANCH   3  18
HETATM   18  C1  UNK     1      16.081   9.449  34.869  1.00  0.00     0.045 C 
BRANCH  18  19
HETATM   19  C3  UNK     1      15.778  10.675  34.017  1.00  0.00     0.004 C 
BRANCH  19  20
HETATM   20  C6  UNK     1      14.367  11.194  34.299  1.00  0.00    -0.004 C 
HETATM   21  C16 UNK     1      13.421  10.889  33.148  1.00  0.00     0.005 C 
ENDBRANCH  19  20
ENDBRANCH  18  19
ENDBRANCH   3  18
TORSDOF 7
ENDMDL
MODEL 4
REMARK VINA RESULT:      -6.5     13.637     18.544
REMARK  7 active torsions:
REMARK  status: ('A' for Active; 'I' for Inactive)
REMARK    1  A    between atoms: C12_15  and  O2_2 
REMARK    2  A    between atoms: C15_18  and  O2_2 
REMARK    3  A    between atoms: C1_4  and  C2_5 
REMARK    4  A    between atoms: C1_4  and  C3_6 
REMARK    5  A    between atoms: C3_6  and  C6_9 
REMARK    6  A    between atoms: C14_17  and  C15_18 
REMARK    7  A    between atoms: C14_17  and  C17_20 
ROOT
HETATM    1  O1  UNK     1      19.356   1.442  15.234  1.00  0.00    -0.274 OA
HETATM    2  O3  UNK     1      19.378   3.524  16.134  1.00  0.00    -0.259 OA
HETATM    3  C2  UNK     1      19.054   1.721  17.657  1.00  0.00     0.024 A 
HETATM    4  C4  UNK     1      18.905   0.389  17.823  1.00  0.00    -0.037 A 
HETATM    5  C5  UNK     1      19.019  -0.506  16.653  1.00  0.00     0.005 A 
HETATM    6  C7  UNK     1      19.239   0.053  15.397  1.00  0.00     0.092 A 
HETATM    7  C8  UNK     1      19.276   2.314  16.306  1.00  0.00     0.295 A 
HETATM    8  C9  UNK     1      18.928  -1.905  16.724  1.00  0.00     0.017 A 
HETATM    9  C10 UNK     1      18.609  -0.261  19.152  1.00  0.00     0.050 C 
HETATM   10  C11 UNK     1      19.358  -0.721  14.240  1.00  0.00     0.075 A 
HETATM   11  C12 UNK     1      19.260  -2.104  14.332  1.00  0.00     0.071 A 
HETATM   12  C13 UNK     1      19.047  -2.696  15.574  1.00  0.00     0.038 A 
ENDROOT
BRANCH  11  13
HETATM   13  O2  UNK     1      19.374  -2.875  13.218  1.00  0.00    -0.351 OA
BRANCH  13  14
HETATM   14  C15 UNK     1      18.951  -4.234  13.322  1.00  0.00     0.175 C 
BRANCH  14  15
HETATM   15  C14 UNK     1      20.114  -5.140  12.941  1.00  0.00     0.026 C 
BRANCH  15  16
HETATM   16  C17 UNK     1      20.215  -6.348  13.868  1.00  0.00    -0.002 C 
HETATM   17  C18 UNK     1      20.788  -5.965  15.223  1.00  0.00     0.005 C 
ENDBRANCH  15  16
ENDBRANCH  14  15
ENDBRANCH  13  14
ENDBRANCH  11  13
BRANCH   3  18
HETATM   18  C1  UNK     1      19.026   2.737  18.769  1.00  0.00     0.045 C 
BRANCH  18  19
HETATM   19  C3  UNK     1      20.432   3.065  19.255  1.00  0.00     0.004 C 
BRANCH  19  20
HETATM   20  C6  UNK     1      20.748   2.309  20.546  1.00  0.00    -0.004 C 
HETATM   21  C16 UNK     1      19.520   2.185  21.434  1.00  0.00     0.005 C 
ENDBRANCH  19  20
ENDBRANCH  18  19
ENDBRANCH   3  18
TORSDOF 7
ENDMDL
MODEL 5
REMARK VINA RESULT:      -6.5      1.680      2.597
REMARK  7 active torsions:
REMARK  status: ('A' for Active; 'I' for Inactive)
REMARK    1  A    between atoms: C12_15  and  O2_2 
REMARK    2  A    between atoms: C15_18  and  O2_2 
REMARK    3  A    between atoms: C1_4  and  C2_5 
REMARK    4  A    between atoms: C1_4  and  C3_6 
REMARK    5  A    between atoms: C3_6  and  C6_9 
REMARK    6  A    between atoms: C14_17  and  C15_18 
REMARK    7  A    between atoms: C14_17  and  C17_20 
ROOT
HETATM    1  O1  UNK     1      18.527   4.707  29.980  1.00  0.00    -0.274 OA
HETATM    2  O3  UNK     1      18.854   2.932  28.606  1.00  0.00    -0.259 OA
HETATM    3  C2  UNK     1      18.539   2.434  30.914  1.00  0.00     0.024 A 
HETATM    4  C4  UNK     1      18.354   2.913  32.163  1.00  0.00    -0.037 A 
HETATM    5  C5  UNK     1      18.205   4.368  32.368  1.00  0.00     0.005 A 
HETATM    6  C7  UNK     1      18.299   5.216  31.268  1.00  0.00     0.092 A 
HETATM    7  C8  UNK     1      18.651   3.349  29.742  1.00  0.00     0.295 A 
HETATM    8  C9  UNK     1      17.963   4.963  33.616  1.00  0.00     0.017 A 
HETATM    9  C10 UNK     1      18.303   2.042  33.394  1.00  0.00     0.050 C 
HETATM   10  C11 UNK     1      18.170   6.603  31.375  1.00  0.00     0.075 A 
HETATM   11  C12 UNK     1      17.936   7.172  32.621  1.00  0.00     0.071 A 
HETATM   12  C13 UNK     1      17.831   6.352  33.741  1.00  0.00     0.038 A 
ENDROOT
BRANCH  11  13
HETATM   13  O2  UNK     1      17.808   8.520  32.746  1.00  0.00    -0.351 OA
BRANCH  13  14
HETATM   14  C15 UNK     1      17.042   9.000  33.850  1.00  0.00     0.175 C 
BRANCH  14  15
HETATM   15  C14 UNK     1      15.705   9.514  33.333  1.00  0.00     0.026 C 
BRANCH  15  16
HETATM   16  C17 UNK     1      14.540   8.688  33.871  1.00  0.00    -0.002 C 
HETATM   17  C18 UNK     1      14.265   7.475  32.995  1.00  0.00     0.005 C 
ENDBRANCH  15  16
ENDBRANCH  14  15
ENDBRANCH  13  14
ENDBRANCH  11  13
BRANCH   3  18
HETATM   18  C1  UNK     1      18.641   0.973  30.557  1.00  0.00     0.045 C 
BRANCH  18  19
HETATM   19  C3  UNK     1      20.054   0.446  30.776  1.00  0.00     0.004 C 
BRANCH  19  20
HETATM   20  C6  UNK     1      20.417  -0.587  29.710  1.00  0.00    -0.004 C 
HETATM   21  C16 UNK     1      19.575  -0.412  28.455  1.00  0.00     0.005 C 
ENDBRANCH  19  20
ENDBRANCH  18  19
ENDBRANCH   3  18
TORSDOF 7
ENDMDL
MODEL 6
REMARK VINA RESULT:      -6.4     22.039     24.460
REMARK  7 active torsions:
REMARK  status: ('A' for Active; 'I' for Inactive)
REMARK    1  A    between atoms: C12_15  and  O2_2 
REMARK    2  A    between atoms: C15_18  and  O2_2 
REMARK    3  A    between atoms: C1_4  and  C2_5 
REMARK    4  A    between atoms: C1_4  and  C3_6 
REMARK    5  A    between atoms: C3_6  and  C6_9 
REMARK    6  A    between atoms: C14_17  and  C15_18 
REMARK    7  A    between atoms: C14_17  and  C17_20 
ROOT
HETATM    1  O1  UNK     1      11.261   5.047  10.015  1.00  0.00    -0.274 OA
HETATM    2  O3  UNK     1       9.017   4.843  10.282  1.00  0.00    -0.259 OA
HETATM    3  C2  UNK     1       9.751   5.803   8.229  1.00  0.00     0.024 A 
HETATM    4  C4  UNK     1      10.795   6.220   7.482  1.00  0.00    -0.037 A 
HETATM    5  C5  UNK     1      12.171   6.023   7.980  1.00  0.00     0.005 A 
HETATM    6  C7  UNK     1      12.356   5.444   9.233  1.00  0.00     0.092 A 
HETATM    7  C8  UNK     1       9.956   5.195   9.576  1.00  0.00     0.295 A 
HETATM    8  C9  UNK     1      13.324   6.377   7.263  1.00  0.00     0.017 A 
HETATM    9  C10 UNK     1      10.646   6.904   6.145  1.00  0.00     0.050 C 
HETATM   10  C11 UNK     1      13.623   5.222   9.779  1.00  0.00     0.075 A 
HETATM   11  C12 UNK     1      14.751   5.585   9.054  1.00  0.00     0.071 A 
HETATM   12  C13 UNK     1      14.602   6.160   7.795  1.00  0.00     0.038 A 
ENDROOT
BRANCH  11  13
HETATM   13  O2  UNK     1      15.993   5.377   9.568  1.00  0.00    -0.351 OA
BRANCH  13  14
HETATM   14  C15 UNK     1      16.826   6.523   9.737  1.00  0.00     0.175 C 
BRANCH  14  15
HETATM   15  C14 UNK     1      16.274   7.367  10.878  1.00  0.00     0.026 C 
BRANCH  15  16
HETATM   16  C17 UNK     1      15.978   8.795  10.430  1.00  0.00    -0.002 C 
HETATM   17  C18 UNK     1      17.112   9.363   9.590  1.00  0.00     0.005 C 
ENDBRANCH  15  16
ENDBRANCH  14  15
ENDBRANCH  13  14
ENDBRANCH  11  13
BRANCH   3  18
HETATM   18  C1  UNK     1       8.305   5.884   7.813  1.00  0.00     0.045 C 
BRANCH  18  19
HETATM   19  C3  UNK     1       7.760   7.298   7.974  1.00  0.00     0.004 C 
BRANCH  19  20
HETATM   20  C6  UNK     1       7.155   7.488   9.366  1.00  0.00    -0.004 C 
HETATM   21  C16 UNK     1       8.001   8.420  10.219  1.00  0.00     0.005 C 
ENDBRANCH  19  20
ENDBRANCH  18  19
ENDBRANCH   3  18
TORSDOF 7
ENDMDL
MODEL 7
REMARK VINA RESULT:      -6.4      3.849      6.038
REMARK  7 active torsions:
REMARK  status: ('A' for Active; 'I' for Inactive)
REMARK    1  A    between atoms: C12_15  and  O2_2 
REMARK    2  A    between atoms: C15_18  and  O2_2 
REMARK    3  A    between atoms: C1_4  and  C2_5 
REMARK    4  A    between atoms: C1_4  and  C3_6 
REMARK    5  A    between atoms: C3_6  and  C6_9 
REMARK    6  A    between atoms: C14_17  and  C15_18 
REMARK    7  A    between atoms: C14_17  and  C17_20 
ROOT
HETATM    1  O1  UNK     1      18.523   0.648  32.128  1.00  0.00    -0.274 OA
HETATM    2  O3  UNK     1      18.666  -1.551  32.673  1.00  0.00    -0.259 OA
HETATM    3  C2  UNK     1      18.383  -0.032  34.486  1.00  0.00     0.024 A 
HETATM    4  C4  UNK     1      18.276   1.254  34.882  1.00  0.00    -0.037 A 
HETATM    5  C5  UNK     1      18.249   2.328  33.867  1.00  0.00     0.005 A 
HETATM    6  C7  UNK     1      18.376   1.986  32.524  1.00  0.00     0.092 A 
HETATM    7  C8  UNK     1      18.532  -0.389  33.046  1.00  0.00     0.295 A 
HETATM    8  C9  UNK     1      18.094   3.689  34.169  1.00  0.00     0.017 A 
HETATM    9  C10 UNK     1      18.193   1.681  36.327  1.00  0.00     0.050 C 
HETATM   10  C11 UNK     1      18.362   2.938  31.501  1.00  0.00     0.075 A 
HETATM   11  C12 UNK     1      18.212   4.281  31.823  1.00  0.00     0.071 A 
HETATM   12  C13 UNK     1      18.076   4.657  33.157  1.00  0.00     0.038 A 
ENDROOT
BRANCH  11  13
HETATM   13  O2  UNK     1      18.195   5.224  30.842  1.00  0.00    -0.351 OA
BRANCH  13  14
HETATM   14  C15 UNK     1      19.110   6.312  30.971  1.00  0.00     0.175 C 
BRANCH  14  15
HETATM   15  C14 UNK     1      20.497   5.837  30.560  1.00  0.00     0.026 C 
BRANCH  15  16
HETATM   16  C17 UNK     1      21.492   5.945  31.711  1.00  0.00    -0.002 C 
HETATM   17  C18 UNK     1      20.874   6.627  32.922  1.00  0.00     0.005 C 
ENDBRANCH  15  16
ENDBRANCH  14  15
ENDBRANCH  13  14
ENDBRANCH  11  13
BRANCH   3  18
HETATM   18  C1  UNK     1      18.358  -1.223  35.409  1.00  0.00     0.045 C 
BRANCH  18  19
HETATM   19  C3  UNK     1      19.755  -1.568  35.908  1.00  0.00     0.004 C 
BRANCH  19  20
HETATM   20  C6  UNK     1      19.981  -3.080  35.881  1.00  0.00    -0.004 C 
HETATM   21  C16 UNK     1      20.413  -3.602  37.243  1.00  0.00     0.005 C 
ENDBRANCH  19  20
ENDBRANCH  18  19
ENDBRANCH   3  18
TORSDOF 7
ENDMDL
MODEL 8
REMARK VINA RESULT:      -6.4     17.133     19.071
REMARK  7 active torsions:
REMARK  status: ('A' for Active; 'I' for Inactive)
REMARK    1  A    between atoms: C12_15  and  O2_2 
REMARK    2  A    between atoms: C15_18  and  O2_2 
REMARK    3  A    between atoms: C1_4  and  C2_5 
REMARK    4  A    between atoms: C1_4  and  C3_6 
REMARK    5  A    between atoms: C3_6  and  C6_9 
REMARK    6  A    between atoms: C14_17  and  C15_18 
REMARK    7  A    between atoms: C14_17  and  C17_20 
ROOT
HETATM    1  O1  UNK     1      30.534  -4.192  38.135  1.00  0.00    -0.274 OA
HETATM    2  O3  UNK     1      29.063  -4.240  39.863  1.00  0.00    -0.259 OA
HETATM    3  C2  UNK     1      28.641  -5.759  38.077  1.00  0.00     0.024 A 
HETATM    4  C4  UNK     1      29.012  -6.209  36.859  1.00  0.00    -0.037 A 
HETATM    5  C5  UNK     1      30.233  -5.670  36.226  1.00  0.00     0.005 A 
HETATM    6  C7  UNK     1      30.951  -4.676  36.886  1.00  0.00     0.092 A 
HETATM    7  C8  UNK     1      29.408  -4.685  38.772  1.00  0.00     0.295 A 
HETATM    8  C9  UNK     1      30.731  -6.103  34.987  1.00  0.00     0.017 A 
HETATM    9  C10 UNK     1      28.238  -7.242  36.077  1.00  0.00     0.050 C 
HETATM   10  C11 UNK     1      32.114  -4.112  36.357  1.00  0.00     0.075 A 
HETATM   11  C12 UNK     1      32.586  -4.552  35.127  1.00  0.00     0.071 A 
HETATM   12  C13 UNK     1      31.896  -5.548  34.443  1.00  0.00     0.038 A 
ENDROOT
BRANCH  11  13
HETATM   13  O2  UNK     1      33.718  -4.015  34.595  1.00  0.00    -0.351 OA
BRANCH  13  14
HETATM   14  C15 UNK     1      34.824  -4.895  34.400  1.00  0.00     0.175 C 
BRANCH  14  15
HETATM   15  C14 UNK     1      35.295  -5.399  35.757  1.00  0.00     0.026 C 
BRANCH  15  16
HETATM   16  C17 UNK     1      35.092  -6.905  35.899  1.00  0.00    -0.002 C 
HETATM   17  C18 UNK     1      34.130  -7.235  37.029  1.00  0.00     0.005 C 
ENDBRANCH  15  16
ENDBRANCH  14  15
ENDBRANCH  13  14
ENDBRANCH  11  13
BRANCH   3  18
HETATM   18  C1  UNK     1      27.460  -6.268  38.861  1.00  0.00     0.045 C 
BRANCH  18  19
HETATM   19  C3  UNK     1      27.829  -7.495  39.685  1.00  0.00     0.004 C 
BRANCH  19  20
HETATM   20  C6  UNK     1      26.896  -8.663  39.362  1.00  0.00    -0.004 C 
HETATM   21  C16 UNK     1      27.674  -9.951  39.136  1.00  0.00     0.005 C 
ENDBRANCH  19  20
ENDBRANCH  18  19
ENDBRANCH   3  18
TORSDOF 7
ENDMDL
MODEL 9
REMARK VINA RESULT:      -6.4      2.005      3.061
REMARK  7 active torsions:
REMARK  status: ('A' for Active; 'I' for Inactive)
REMARK    1  A    between atoms: C12_15  and  O2_2 
REMARK    2  A    between atoms: C15_18  and  O2_2 
REMARK    3  A    between atoms: C1_4  and  C2_5 
REMARK    4  A    between atoms: C1_4  and  C3_6 
REMARK    5  A    between atoms: C3_6  and  C6_9 
REMARK    6  A    between atoms: C14_17  and  C15_18 
REMARK    7  A    between atoms: C14_17  and  C17_20 
ROOT
HETATM    1  O1  UNK     1      18.277   2.507  33.457  1.00  0.00    -0.274 OA
HETATM    2  O3  UNK     1      18.588   0.287  33.107  1.00  0.00    -0.259 OA
HETATM    3  C2  UNK     1      18.693   1.682  31.179  1.00  0.00     0.024 A 
HETATM    4  C4  UNK     1      18.580   2.929  30.674  1.00  0.00    -0.037 A 
HETATM    5  C5  UNK     1      18.338   4.064  31.588  1.00  0.00     0.005 A 
HETATM    6  C7  UNK     1      18.192   3.813  32.949  1.00  0.00     0.092 A 
HETATM    7  C8  UNK     1      18.523   1.418  32.637  1.00  0.00     0.295 A 
HETATM    8  C9  UNK     1      18.251   5.402  31.172  1.00  0.00     0.017 A 
HETATM    9  C10 UNK     1      18.672   3.247  29.202  1.00  0.00     0.050 C 
HETATM   10  C11 UNK     1      17.961   4.828  33.881  1.00  0.00     0.075 A 
HETATM   11  C12 UNK     1      17.874   6.144  33.446  1.00  0.00     0.071 A 
HETATM   12  C13 UNK     1      18.021   6.432  32.092  1.00  0.00     0.038 A 
ENDROOT
BRANCH  11  13
HETATM   13  O2  UNK     1      17.649   7.147  34.338  1.00  0.00    -0.351 OA
BRANCH  13  14
HETATM   14  C15 UNK     1      18.721   8.059  34.573  1.00  0.00     0.175 C 
BRANCH  14  15
HETATM   15  C14 UNK     1      18.319   9.433  34.055  1.00  0.00     0.026 C 
BRANCH  15  16
HETATM   16  C17 UNK     1      19.467  10.433  34.159  1.00  0.00    -0.002 C 
HETATM   17  C18 UNK     1      20.768   9.749  34.552  1.00  0.00     0.005 C 
ENDBRANCH  15  16
ENDBRANCH  14  15
ENDBRANCH  13  14
ENDBRANCH  11  13
BRANCH   3  18
HETATM   18  C1  UNK     1      19.002   0.449  30.371  1.00  0.00     0.045 C 
BRANCH  18  19
HETATM   19  C3  UNK     1      20.504   0.206  30.282  1.00  0.00     0.004 C 
BRANCH  19  20
HETATM   20  C6  UNK     1      20.807  -0.974  29.359  1.00  0.00    -0.004 C 
HETATM   21  C16 UNK     1      20.472  -2.301  30.023  1.00  0.00     0.005 C 
ENDBRANCH  19  20
ENDBRANCH  18  19
ENDBRANCH   3  18
TORSDOF 7
ENDMDL
MODEL 10
REMARK VINA RESULT:      -6.3     21.928     23.960
REMARK  7 active torsions:
REMARK  status: ('A' for Active; 'I' for Inactive)
REMARK    1  A    between atoms: C12_15  and  O2_2 
REMARK    2  A    between atoms: C15_18  and  O2_2 
REMARK    3  A    between atoms: C1_4  and  C2_5 
REMARK    4  A    between atoms: C1_4  and  C3_6 
REMARK    5  A    between atoms: C3_6  and  C6_9 
REMARK    6  A    between atoms: C14_17  and  C15_18 
REMARK    7  A    between atoms: C14_17  and  C17_20 
ROOT
HETATM    1  O1  UNK     1      13.928   5.212   8.791  1.00  0.00    -0.274 OA
HETATM    2  O3  UNK     1      16.066   4.955   9.507  1.00  0.00    -0.259 OA
HETATM    3  C2  UNK     1      14.993   6.997  10.102  1.00  0.00     0.024 A 
HETATM    4  C4  UNK     1      13.889   7.768  10.007  1.00  0.00    -0.037 A 
HETATM    5  C5  UNK     1      12.699   7.249   9.302  1.00  0.00     0.005 A 
HETATM    6  C7  UNK     1      12.761   5.987   8.716  1.00  0.00     0.092 A 
HETATM    7  C8  UNK     1      15.057   5.652   9.460  1.00  0.00     0.295 A 
HETATM    8  C9  UNK     1      11.487   7.948   9.188  1.00  0.00     0.017 A 
HETATM    9  C10 UNK     1      13.790   9.162  10.575  1.00  0.00     0.050 C 
HETATM   10  C11 UNK     1      11.682   5.423   8.031  1.00  0.00     0.075 A 
HETATM   11  C12 UNK     1      10.494   6.135   7.925  1.00  0.00     0.071 A 
HETATM   12  C13 UNK     1      10.395   7.396   8.505  1.00  0.00     0.038 A 
ENDROOT
BRANCH  11  13
HETATM   13  O2  UNK     1       9.432   5.602   7.262  1.00  0.00    -0.351 OA
BRANCH  13  14
HETATM   14  C15 UNK     1       8.131   5.994   7.699  1.00  0.00     0.175 C 
BRANCH  14  15
HETATM   15  C14 UNK     1       7.735   5.135   8.892  1.00  0.00     0.026 C 
BRANCH  15  16
HETATM   16  C17 UNK     1       7.372   5.988  10.104  1.00  0.00    -0.002 C 
HETATM   17  C18 UNK     1       7.027   5.128  11.309  1.00  0.00     0.005 C 
ENDBRANCH  15  16
ENDBRANCH  14  15
ENDBRANCH  13  14
ENDBRANCH  11  13
BRANCH   3  18
HETATM   18  C1  UNK     1      16.248   7.376  10.845  1.00  0.00     0.045 C 
BRANCH  18  19
HETATM   19  C3  UNK     1      17.262   8.038   9.920  1.00  0.00     0.004 C 
BRANCH  19  20
HETATM   20  C6  UNK     1      17.283   9.552  10.135  1.00  0.00    -0.004 C 
HETATM   21  C16 UNK     1      16.837  10.297   8.887  1.00  0.00     0.005 C 
ENDBRANCH  19  20
ENDBRANCH  18  19
ENDBRANCH   3  18
TORSDOF 7
ENDMDL
