MODEL 1
REMARK VINA RESULT:      -8.3      0.000      0.000
REMARK  4 active torsions:
REMARK  status: ('A' for Active; 'I' for Inactive)
REMARK    1  A    between atoms: C7_12  and  O2_2 
REMARK    2  A    between atoms: C11_16  and  O4_4 
REMARK    3  A    between atoms: C12_17  and  O5_5 
REMARK    4  A    between atoms: C1_6  and  C3_8 
ROOT
HETATM    1  O1  UNK     1      19.403  -0.324  32.859  1.00  0.00    -0.340 OA
HETATM    2  O3  UNK     1      21.043  -3.152  30.381  1.00  0.00    -0.292 OA
HETATM    3  C1  UNK     1      19.351  -1.718  33.201  1.00  0.00     0.172 C 
HETATM    4  C2  UNK     1      20.552  -2.468  32.627  1.00  0.00     0.121 C 
HETATM    5  C4  UNK     1      20.560  -2.311  31.129  1.00  0.00     0.165 C 
HETATM    6  C5  UNK     1      20.014  -1.040  30.609  1.00  0.00     0.043 A 
HETATM    7  C6  UNK     1      19.485  -0.108  31.508  1.00  0.00     0.086 A 
HETATM    8  C9  UNK     1      20.062  -0.754  29.243  1.00  0.00     0.021 A 
HETATM    9  C10 UNK     1      19.036   1.128  31.041  1.00  0.00     0.074 A 
HETATM   10  C12 UNK     1      19.086   1.417  29.677  1.00  0.00     0.070 A 
HETATM   11  C14 UNK     1      19.593   0.476  28.779  1.00  0.00     0.038 A 
ENDROOT
BRANCH   3  12
HETATM   12  C3  UNK     1      19.301  -1.839  34.709  1.00  0.00     0.008 A 
HETATM   13  C7  UNK     1      18.325  -1.170  35.448  1.00  0.00     0.110 A 
HETATM   14  C11 UNK     1      18.293  -1.293  36.838  1.00  0.00     0.102 A 
HETATM   15  C15 UNK     1      19.240  -2.085  37.489  1.00  0.00     0.039 A 
HETATM   16  C13 UNK     1      20.216  -2.754  36.751  1.00  0.00     0.003 A 
HETATM   17  C8  UNK     1      20.247  -2.631  35.361  1.00  0.00     0.013 A 
BRANCH  13  18
HETATM   18  O2  UNK     1      17.398  -0.395  34.816  1.00  0.00    -0.352 OA
HETATM   19  C16 UNK     1      16.086  -0.939  34.677  1.00  0.00     0.210 C 
ENDBRANCH  13  18
BRANCH  14  20
HETATM   20  O4  UNK     1      17.346  -0.644  37.570  1.00  0.00    -0.353 OA
HETATM   21  C17 UNK     1      17.643   0.690  37.979  1.00  0.00     0.210 C 
ENDBRANCH  14  20
ENDBRANCH   3  12
BRANCH  10  22
HETATM   22  O5  UNK     1      18.637   2.618  29.219  1.00  0.00    -0.356 OA
HETATM   23  C18 UNK     1      18.777   3.739  30.090  1.00  0.00     0.210 C 
ENDBRANCH  10  22
TORSDOF 4
ENDMDL
MODEL 2
REMARK VINA RESULT:      -8.0      1.925      7.242
REMARK  4 active torsions:
REMARK  status: ('A' for Active; 'I' for Inactive)
REMARK    1  A    between atoms: C7_12  and  O2_2 
REMARK    2  A    between atoms: C11_16  and  O4_4 
REMARK    3  A    between atoms: C12_17  and  O5_5 
REMARK    4  A    between atoms: C1_6  and  C3_8 
ROOT
HETATM    1  O1  UNK     1      19.097   0.302  34.382  1.00  0.00    -0.340 OA
HETATM    2  O3  UNK     1      16.960   1.252  37.752  1.00  0.00    -0.292 OA
HETATM    3  C1  UNK     1      17.982   1.204  34.313  1.00  0.00     0.172 C 
HETATM    4  C2  UNK     1      17.812   1.967  35.627  1.00  0.00     0.121 C 
HETATM    5  C4  UNK     1      17.600   0.979  36.744  1.00  0.00     0.165 C 
HETATM    6  C5  UNK     1      18.275  -0.326  36.591  1.00  0.00     0.043 A 
HETATM    7  C6  UNK     1      19.004  -0.583  35.425  1.00  0.00     0.086 A 
HETATM    8  C9  UNK     1      18.221  -1.277  37.613  1.00  0.00     0.021 A 
HETATM    9  C10 UNK     1      19.710  -1.780  35.298  1.00  0.00     0.074 A 
HETATM   10  C12 UNK     1      19.660  -2.729  36.319  1.00  0.00     0.070 A 
HETATM   11  C14 UNK     1      18.913  -2.481  37.472  1.00  0.00     0.038 A 
ENDROOT
BRANCH   3  12
HETATM   12  C3  UNK     1      18.206   2.154  33.156  1.00  0.00     0.008 A 
HETATM   13  C7  UNK     1      18.474   1.670  31.875  1.00  0.00     0.110 A 
HETATM   14  C11 UNK     1      18.678   2.559  30.820  1.00  0.00     0.102 A 
HETATM   15  C15 UNK     1      18.614   3.935  31.046  1.00  0.00     0.039 A 
HETATM   16  C13 UNK     1      18.346   4.420  32.325  1.00  0.00     0.003 A 
HETATM   17  C8  UNK     1      18.142   3.530  33.380  1.00  0.00     0.013 A 
BRANCH  13  18
HETATM   18  O2  UNK     1      18.537   0.326  31.650  1.00  0.00    -0.352 OA
HETATM   19  C16 UNK     1      19.797  -0.203  31.242  1.00  0.00     0.210 C 
ENDBRANCH  13  18
BRANCH  14  20
HETATM   20  O4  UNK     1      18.942   2.099  29.565  1.00  0.00    -0.353 OA
HETATM   21  C17 UNK     1      17.835   1.980  28.673  1.00  0.00     0.210 C 
ENDBRANCH  14  20
ENDBRANCH   3  12
BRANCH  10  22
HETATM   22  O5  UNK     1      20.339  -3.902  36.191  1.00  0.00    -0.356 OA
HETATM   23  C18 UNK     1      20.598  -4.636  37.386  1.00  0.00     0.210 C 
ENDBRANCH  10  22
TORSDOF 4
ENDMDL
MODEL 3
REMARK VINA RESULT:      -8.0      2.391      4.469
REMARK  4 active torsions:
REMARK  status: ('A' for Active; 'I' for Inactive)
REMARK    1  A    between atoms: C7_12  and  O2_2 
REMARK    2  A    between atoms: C11_16  and  O4_4 
REMARK    3  A    between atoms: C12_17  and  O5_5 
REMARK    4  A    between atoms: C1_6  and  C3_8 
ROOT
HETATM    1  O1  UNK     1      17.894   2.061  33.075  1.00  0.00    -0.340 OA
HETATM    2  O3  UNK     1      19.066   5.929  33.782  1.00  0.00    -0.292 OA
HETATM    3  C1  UNK     1      18.565   2.413  34.295  1.00  0.00     0.172 C 
HETATM    4  C2  UNK     1      18.263   3.858  34.690  1.00  0.00     0.121 C 
HETATM    5  C4  UNK     1      18.710   4.774  33.580  1.00  0.00     0.165 C 
HETATM    6  C5  UNK     1      18.626   4.222  32.213  1.00  0.00     0.043 A 
HETATM    7  C6  UNK     1      18.201   2.901  32.036  1.00  0.00     0.086 A 
HETATM    8  C9  UNK     1      18.925   5.020  31.106  1.00  0.00     0.021 A 
HETATM    9  C10 UNK     1      18.043   2.390  30.747  1.00  0.00     0.074 A 
HETATM   10  C12 UNK     1      18.339   3.186  29.641  1.00  0.00     0.070 A 
HETATM   11  C14 UNK     1      18.784   4.497  29.820  1.00  0.00     0.038 A 
ENDROOT
BRANCH   3  12
HETATM   12  C3  UNK     1      18.126   1.449  35.377  1.00  0.00     0.008 A 
HETATM   13  C7  UNK     1      18.477   0.100  35.318  1.00  0.00     0.110 A 
HETATM   14  C11 UNK     1      18.065  -0.775  36.323  1.00  0.00     0.102 A 
HETATM   15  C15 UNK     1      17.301  -0.300  37.390  1.00  0.00     0.039 A 
HETATM   16  C13 UNK     1      16.950   1.048  37.451  1.00  0.00     0.003 A 
HETATM   17  C8  UNK     1      17.363   1.923  36.444  1.00  0.00     0.013 A 
BRANCH  13  18
HETATM   18  O2  UNK     1      19.224  -0.369  34.277  1.00  0.00    -0.352 OA
HETATM   19  C16 UNK     1      18.536  -1.102  33.266  1.00  0.00     0.210 C 
ENDBRANCH  13  18
BRANCH  14  20
HETATM   20  O4  UNK     1      18.400  -2.094  36.276  1.00  0.00    -0.353 OA
HETATM   21  C17 UNK     1      19.516  -2.508  37.062  1.00  0.00     0.210 C 
ENDBRANCH  14  20
ENDBRANCH   3  12
BRANCH  10  22
HETATM   22  O5  UNK     1      18.195   2.685  28.383  1.00  0.00    -0.356 OA
HETATM   23  C18 UNK     1      17.876   1.299  28.269  1.00  0.00     0.210 C 
ENDBRANCH  10  22
TORSDOF 4
ENDMDL
MODEL 4
REMARK VINA RESULT:      -7.9      5.585      9.175
REMARK  4 active torsions:
REMARK  status: ('A' for Active; 'I' for Inactive)
REMARK    1  A    between atoms: C7_12  and  O2_2 
REMARK    2  A    between atoms: C11_16  and  O4_4 
REMARK    3  A    between atoms: C12_17  and  O5_5 
REMARK    4  A    between atoms: C1_6  and  C3_8 
ROOT
HETATM    1  O1  UNK     1      16.863   6.599  33.045  1.00  0.00    -0.340 OA
HETATM    2  O3  UNK     1      19.992   8.858  34.437  1.00  0.00    -0.292 OA
HETATM    3  C1  UNK     1      18.214   6.296  32.662  1.00  0.00     0.172 C 
HETATM    4  C2  UNK     1      19.198   6.697  33.761  1.00  0.00     0.121 C 
HETATM    5  C4  UNK     1      19.062   8.174  34.025  1.00  0.00     0.165 C 
HETATM    6  C5  UNK     1      17.714   8.746  33.830  1.00  0.00     0.043 A 
HETATM    7  C6  UNK     1      16.684   7.918  33.371  1.00  0.00     0.086 A 
HETATM    8  C9  UNK     1      17.459  10.084  34.140  1.00  0.00     0.021 A 
HETATM    9  C10 UNK     1      15.388   8.424  33.254  1.00  0.00     0.074 A 
HETATM   10  C12 UNK     1      15.131   9.759  33.566  1.00  0.00     0.070 A 
HETATM   11  C14 UNK     1      16.165  10.588  34.003  1.00  0.00     0.038 A 
ENDROOT
BRANCH   3  12
HETATM   12  C3  UNK     1      18.305   4.815  32.363  1.00  0.00     0.008 A 
HETATM   13  C7  UNK     1      18.610   4.362  31.079  1.00  0.00     0.110 A 
HETATM   14  C11 UNK     1      18.691   2.994  30.820  1.00  0.00     0.102 A 
HETATM   15  C15 UNK     1      18.466   2.076  31.847  1.00  0.00     0.039 A 
HETATM   16  C13 UNK     1      18.162   2.527  33.131  1.00  0.00     0.003 A 
HETATM   17  C8  UNK     1      18.081   3.896  33.390  1.00  0.00     0.013 A 
BRANCH  13  18
HETATM   18  O2  UNK     1      18.830   5.256  30.072  1.00  0.00    -0.352 OA
HETATM   19  C16 UNK     1      20.121   5.860  30.015  1.00  0.00     0.210 C 
ENDBRANCH  13  18
BRANCH  14  20
HETATM   20  O4  UNK     1      18.986   2.540  29.571  1.00  0.00    -0.353 OA
HETATM   21  C17 UNK     1      17.915   1.978  28.815  1.00  0.00     0.210 C 
ENDBRANCH  14  20
ENDBRANCH   3  12
BRANCH  10  22
HETATM   22  O5  UNK     1      13.869  10.256  33.442  1.00  0.00    -0.356 OA
HETATM   23  C18 UNK     1      13.736  11.557  32.875  1.00  0.00     0.210 C 
ENDBRANCH  10  22
TORSDOF 4
ENDMDL
MODEL 5
REMARK VINA RESULT:      -7.8     23.837     26.578
REMARK  4 active torsions:
REMARK  status: ('A' for Active; 'I' for Inactive)
REMARK    1  A    between atoms: C7_12  and  O2_2 
REMARK    2  A    between atoms: C11_16  and  O4_4 
REMARK    3  A    between atoms: C12_17  and  O5_5 
REMARK    4  A    between atoms: C1_6  and  C3_8 
ROOT
HETATM    1  O1  UNK     1      11.210   7.810   9.504  1.00  0.00    -0.340 OA
HETATM    2  O3  UNK     1      11.969   6.353   5.745  1.00  0.00    -0.292 OA
HETATM    3  C1  UNK     1      12.453   7.155   9.208  1.00  0.00     0.172 C 
HETATM    4  C2  UNK     1      12.842   7.352   7.743  1.00  0.00     0.121 C 
HETATM    5  C4  UNK     1      11.751   6.794   6.867  1.00  0.00     0.165 C 
HETATM    6  C5  UNK     1      10.379   6.876   7.409  1.00  0.00     0.043 A 
HETATM    7  C6  UNK     1      10.184   7.401   8.691  1.00  0.00     0.086 A 
HETATM    8  C9  UNK     1       9.286   6.475   6.638  1.00  0.00     0.021 A 
HETATM    9  C10 UNK     1       8.889   7.556   9.187  1.00  0.00     0.074 A 
HETATM   10  C12 UNK     1       7.796   7.159   8.417  1.00  0.00     0.070 A 
HETATM   11  C14 UNK     1       7.994   6.615   7.147  1.00  0.00     0.038 A 
ENDROOT
BRANCH   3  12
HETATM   12  C3  UNK     1      13.516   7.708  10.133  1.00  0.00     0.008 A 
HETATM   13  C7  UNK     1      14.798   7.157  10.159  1.00  0.00     0.110 A 
HETATM   14  C11 UNK     1      15.766   7.678  11.018  1.00  0.00     0.102 A 
HETATM   15  C15 UNK     1      15.453   8.752  11.851  1.00  0.00     0.039 A 
HETATM   16  C13 UNK     1      14.173   9.304  11.826  1.00  0.00     0.003 A 
HETATM   17  C8  UNK     1      13.204   8.782  10.967  1.00  0.00     0.013 A 
BRANCH  13  18
HETATM   18  O2  UNK     1      15.109   6.107   9.345  1.00  0.00    -0.352 OA
HETATM   19  C16 UNK     1      14.999   4.800   9.906  1.00  0.00     0.210 C 
ENDBRANCH  13  18
BRANCH  14  20
HETATM   20  O4  UNK     1      17.020   7.148  11.052  1.00  0.00    -0.353 OA
HETATM   21  C17 UNK     1      17.890   7.468   9.967  1.00  0.00     0.210 C 
ENDBRANCH  14  20
ENDBRANCH   3  12
BRANCH  10  22
HETATM   22  O5  UNK     1       6.533   7.300   8.905  1.00  0.00    -0.356 OA
HETATM   23  C18 UNK     1       6.404   7.669  10.276  1.00  0.00     0.210 C 
ENDBRANCH  10  22
TORSDOF 4
ENDMDL
MODEL 6
REMARK VINA RESULT:      -7.7      3.844      7.404
REMARK  4 active torsions:
REMARK  status: ('A' for Active; 'I' for Inactive)
REMARK    1  A    between atoms: C7_12  and  O2_2 
REMARK    2  A    between atoms: C11_16  and  O4_4 
REMARK    3  A    between atoms: C12_17  and  O5_5 
REMARK    4  A    between atoms: C1_6  and  C3_8 
ROOT
HETATM    1  O1  UNK     1      17.881   3.290  33.211  1.00  0.00    -0.340 OA
HETATM    2  O3  UNK     1      19.141   1.976  29.535  1.00  0.00    -0.292 OA
HETATM    3  C1  UNK     1      18.540   4.183  32.299  1.00  0.00     0.172 C 
HETATM    4  C2  UNK     1      18.269   3.784  30.849  1.00  0.00     0.121 C 
HETATM    5  C4  UNK     1      18.759   2.376  30.628  1.00  0.00     0.165 C 
HETATM    6  C5  UNK     1      18.683   1.474  31.795  1.00  0.00     0.043 A 
HETATM    7  C6  UNK     1      18.227   1.978  33.017  1.00  0.00     0.086 A 
HETATM    8  C9  UNK     1      19.022   0.124  31.671  1.00  0.00     0.021 A 
HETATM    9  C10 UNK     1      18.077   1.121  34.108  1.00  0.00     0.074 A 
HETATM   10  C12 UNK     1      18.412  -0.227  33.986  1.00  0.00     0.070 A 
HETATM   11  C14 UNK     1      18.888  -0.724  32.772  1.00  0.00     0.038 A 
ENDROOT
BRANCH   3  12
HETATM   12  C3  UNK     1      18.058   5.591  32.576  1.00  0.00     0.008 A 
HETATM   13  C7  UNK     1      18.886   6.518  33.211  1.00  0.00     0.110 A 
HETATM   14  C11 UNK     1      18.426   7.812  33.459  1.00  0.00     0.102 A 
HETATM   15  C15 UNK     1      17.137   8.179  33.070  1.00  0.00     0.039 A 
HETATM   16  C13 UNK     1      16.310   7.254  32.435  1.00  0.00     0.003 A 
HETATM   17  C8  UNK     1      16.770   5.960  32.187  1.00  0.00     0.013 A 
BRANCH  13  18
HETATM   18  O2  UNK     1      20.146   6.163  33.592  1.00  0.00    -0.352 OA
HETATM   19  C16 UNK     1      21.197   6.407  32.659  1.00  0.00     0.210 C 
ENDBRANCH  13  18
BRANCH  14  20
HETATM   20  O4  UNK     1      19.224   8.725  34.079  1.00  0.00    -0.353 OA
HETATM   21  C17 UNK     1      18.816  10.090  34.016  1.00  0.00     0.210 C 
ENDBRANCH  14  20
ENDBRANCH   3  12
BRANCH  10  22
HETATM   22  O5  UNK     1      18.276  -1.062  35.053  1.00  0.00    -0.356 OA
HETATM   23  C18 UNK     1      17.054  -0.988  35.784  1.00  0.00     0.210 C 
ENDBRANCH  10  22
TORSDOF 4
ENDMDL
MODEL 7
REMARK VINA RESULT:      -7.7     24.465     26.755
REMARK  4 active torsions:
REMARK  status: ('A' for Active; 'I' for Inactive)
REMARK    1  A    between atoms: C7_12  and  O2_2 
REMARK    2  A    between atoms: C11_16  and  O4_4 
REMARK    3  A    between atoms: C12_17  and  O5_5 
REMARK    4  A    between atoms: C1_6  and  C3_8 
ROOT
HETATM    1  O1  UNK     1       9.914   4.978   9.232  1.00  0.00    -0.340 OA
HETATM    2  O3  UNK     1       9.099   6.785   5.640  1.00  0.00    -0.292 OA
HETATM    3  C1  UNK     1       8.689   5.700   9.036  1.00  0.00     0.172 C 
HETATM    4  C2  UNK     1       8.249   5.646   7.573  1.00  0.00     0.121 C 
HETATM    5  C4  UNK     1       9.334   6.240   6.712  1.00  0.00     0.165 C 
HETATM    6  C5  UNK     1      10.717   6.061   7.199  1.00  0.00     0.043 A 
HETATM    7  C6  UNK     1      10.930   5.419   8.424  1.00  0.00     0.086 A 
HETATM    8  C9  UNK     1      11.801   6.488   6.429  1.00  0.00     0.021 A 
HETATM    9  C10 UNK     1      12.232   5.175   8.862  1.00  0.00     0.074 A 
HETATM   10  C12 UNK     1      13.316   5.599   8.093  1.00  0.00     0.070 A 
HETATM   11  C14 UNK     1      13.101   6.258   6.881  1.00  0.00     0.038 A 
ENDROOT
BRANCH   3  12
HETATM   12  C3  UNK     1       7.633   5.108   9.945  1.00  0.00     0.008 A 
HETATM   13  C7  UNK     1       7.057   5.869  10.963  1.00  0.00     0.110 A 
HETATM   14  C11 UNK     1       6.086   5.307  11.792  1.00  0.00     0.102 A 
HETATM   15  C15 UNK     1       5.689   3.983  11.602  1.00  0.00     0.039 A 
HETATM   16  C13 UNK     1       6.263   3.222  10.585  1.00  0.00     0.003 A 
HETATM   17  C8  UNK     1       7.235   3.784   9.756  1.00  0.00     0.013 A 
BRANCH  13  18
HETATM   18  O2  UNK     1       7.443   7.163  11.152  1.00  0.00    -0.352 OA
HETATM   19  C16 UNK     1       6.635   8.172  10.549  1.00  0.00     0.210 C 
ENDBRANCH  13  18
BRANCH  14  20
HETATM   20  O4  UNK     1       5.518   6.039  12.790  1.00  0.00    -0.353 OA
HETATM   21  C17 UNK     1       5.542   5.477  14.101  1.00  0.00     0.210 C 
ENDBRANCH  14  20
ENDBRANCH   3  12
BRANCH  10  22
HETATM   22  O5  UNK     1      14.587   5.370   8.524  1.00  0.00    -0.356 OA
HETATM   23  C18 UNK     1      14.757   5.053   9.904  1.00  0.00     0.210 C 
ENDBRANCH  10  22
TORSDOF 4
ENDMDL
MODEL 8
REMARK VINA RESULT:      -7.7     24.750     27.164
REMARK  4 active torsions:
REMARK  status: ('A' for Active; 'I' for Inactive)
REMARK    1  A    between atoms: C7_12  and  O2_2 
REMARK    2  A    between atoms: C11_16  and  O4_4 
REMARK    3  A    between atoms: C12_17  and  O5_5 
REMARK    4  A    between atoms: C1_6  and  C3_8 
ROOT
HETATM    1  O1  UNK     1      13.133   8.423   8.239  1.00  0.00    -0.340 OA
HETATM    2  O3  UNK     1      15.044   5.763  10.709  1.00  0.00    -0.292 OA
HETATM    3  C1  UNK     1      12.891   7.013   8.126  1.00  0.00     0.172 C 
HETATM    4  C2  UNK     1      13.062   6.316   9.475  1.00  0.00     0.121 C 
HETATM    5  C4  UNK     1      14.464   6.553   9.975  1.00  0.00     0.165 C 
HETATM    6  C5  UNK     1      15.080   7.839   9.588  1.00  0.00     0.043 A 
HETATM    7  C6  UNK     1      14.369   8.712   8.758  1.00  0.00     0.086 A 
HETATM    8  C9  UNK     1      16.338   8.199  10.077  1.00  0.00     0.021 A 
HETATM    9  C10 UNK     1      14.904   9.962   8.446  1.00  0.00     0.074 A 
HETATM   10  C12 UNK     1      16.159  10.325   8.936  1.00  0.00     0.070 A 
HETATM   11  C14 UNK     1      16.877   9.443   9.746  1.00  0.00     0.038 A 
ENDROOT
BRANCH   3  12
HETATM   12  C3  UNK     1      11.492   6.810   7.582  1.00  0.00     0.008 A 
HETATM   13  C7  UNK     1      10.373   7.172   8.334  1.00  0.00     0.110 A 
HETATM   14  C11 UNK     1       9.092   6.979   7.818  1.00  0.00     0.102 A 
HETATM   15  C15 UNK     1       8.928   6.424   6.548  1.00  0.00     0.039 A 
HETATM   16  C13 UNK     1      10.045   6.062   5.796  1.00  0.00     0.003 A 
HETATM   17  C8  UNK     1      11.327   6.256   6.312  1.00  0.00     0.013 A 
BRANCH  13  18
HETATM   18  O2  UNK     1      10.529   7.715   9.575  1.00  0.00    -0.352 OA
HETATM   19  C16 UNK     1      10.299   9.117   9.701  1.00  0.00     0.210 C 
ENDBRANCH  13  18
BRANCH  14  20
HETATM   20  O4  UNK     1       7.993   7.327   8.543  1.00  0.00    -0.353 OA
HETATM   21  C17 UNK     1       7.452   6.337   9.417  1.00  0.00     0.210 C 
ENDBRANCH  14  20
ENDBRANCH   3  12
BRANCH  10  22
HETATM   22  O5  UNK     1      16.687  11.540   8.623  1.00  0.00    -0.356 OA
HETATM   23  C18 UNK     1      16.320  12.103   7.365  1.00  0.00     0.210 C 
ENDBRANCH  10  22
TORSDOF 4
ENDMDL
MODEL 9
REMARK VINA RESULT:      -7.6     24.531     26.581
REMARK  4 active torsions:
REMARK  status: ('A' for Active; 'I' for Inactive)
REMARK    1  A    between atoms: C7_12  and  O2_2 
REMARK    2  A    between atoms: C11_16  and  O4_4 
REMARK    3  A    between atoms: C12_17  and  O5_5 
REMARK    4  A    between atoms: C1_6  and  C3_8 
ROOT
HETATM    1  O1  UNK     1      13.174   7.464   8.791  1.00  0.00    -0.340 OA
HETATM    2  O3  UNK     1      15.498   4.173   9.564  1.00  0.00    -0.292 OA
HETATM    3  C1  UNK     1      13.047   6.273   7.999  1.00  0.00     0.172 C 
HETATM    4  C2  UNK     1      13.385   5.029   8.819  1.00  0.00     0.121 C 
HETATM    5  C4  UNK     1      14.796   5.150   9.334  1.00  0.00     0.165 C 
HETATM    6  C5  UNK     1      15.265   6.521   9.621  1.00  0.00     0.043 A 
HETATM    7  C6  UNK     1      14.417   7.601   9.353  1.00  0.00     0.086 A 
HETATM    8  C9  UNK     1      16.522   6.735  10.192  1.00  0.00     0.021 A 
HETATM    9  C10 UNK     1      14.816   8.895   9.689  1.00  0.00     0.074 A 
HETATM   10  C12 UNK     1      16.070   9.111  10.261  1.00  0.00     0.070 A 
HETATM   11  C14 UNK     1      16.923   8.034  10.508  1.00  0.00     0.038 A 
ENDROOT
BRANCH   3  12
HETATM   12  C3  UNK     1      11.633   6.205   7.463  1.00  0.00     0.008 A 
HETATM   13  C7  UNK     1      10.554   5.971   8.318  1.00  0.00     0.110 A 
HETATM   14  C11 UNK     1       9.257   5.911   7.808  1.00  0.00     0.102 A 
HETATM   15  C15 UNK     1       9.038   6.086   6.441  1.00  0.00     0.039 A 
HETATM   16  C13 UNK     1      10.114   6.320   5.586  1.00  0.00     0.003 A 
HETATM   17  C8  UNK     1      11.411   6.380   6.096  1.00  0.00     0.013 A 
BRANCH  13  18
HETATM   18  O2  UNK     1      10.765   5.800   9.654  1.00  0.00    -0.352 OA
HETATM   19  C16 UNK     1      10.453   4.520  10.199  1.00  0.00     0.210 C 
ENDBRANCH  13  18
BRANCH  14  20
HETATM   20  O4  UNK     1       8.198   5.683   8.632  1.00  0.00    -0.353 OA
HETATM   21  C17 UNK     1       7.543   6.826   9.179  1.00  0.00     0.210 C 
ENDBRANCH  14  20
ENDBRANCH   3  12
BRANCH  10  22
HETATM   22  O5  UNK     1      16.464  10.375  10.579  1.00  0.00    -0.356 OA
HETATM   23  C18 UNK     1      17.642  10.867   9.944  1.00  0.00     0.210 C 
ENDBRANCH  10  22
TORSDOF 4
ENDMDL
MODEL 10
REMARK VINA RESULT:      -7.4      3.713      7.010
REMARK  4 active torsions:
REMARK  status: ('A' for Active; 'I' for Inactive)
REMARK    1  A    between atoms: C7_12  and  O2_2 
REMARK    2  A    between atoms: C11_16  and  O4_4 
REMARK    3  A    between atoms: C12_17  and  O5_5 
REMARK    4  A    between atoms: C1_6  and  C3_8 
ROOT
HETATM    1  O1  UNK     1      17.798   4.235  32.821  1.00  0.00    -0.340 OA
HETATM    2  O3  UNK     1      19.317   6.360  29.658  1.00  0.00    -0.292 OA
HETATM    3  C1  UNK     1      18.110   3.582  31.581  1.00  0.00     0.172 C 
HETATM    4  C2  UNK     1      19.261   4.287  30.865  1.00  0.00     0.121 C 
HETATM    5  C4  UNK     1      18.872   5.719  30.602  1.00  0.00     0.165 C 
HETATM    6  C5  UNK     1      17.972   6.337  31.598  1.00  0.00     0.043 A 
HETATM    7  C6  UNK     1      17.503   5.564  32.665  1.00  0.00     0.086 A 
HETATM    8  C9  UNK     1      17.628   7.688  31.500  1.00  0.00     0.021 A 
HETATM    9  C10 UNK     1      16.715   6.154  33.654  1.00  0.00     0.074 A 
HETATM   10  C12 UNK     1      16.372   7.503  33.560  1.00  0.00     0.070 A 
HETATM   11  C14 UNK     1      16.824   8.267  32.483  1.00  0.00     0.038 A 
ENDROOT
BRANCH   3  12
HETATM   12  C3  UNK     1      18.455   2.137  31.875  1.00  0.00     0.008 A 
HETATM   13  C7  UNK     1      18.966   1.306  30.877  1.00  0.00     0.110 A 
HETATM   14  C11 UNK     1      19.279  -0.022  31.164  1.00  0.00     0.102 A 
HETATM   15  C15 UNK     1      19.081  -0.521  32.452  1.00  0.00     0.039 A 
HETATM   16  C13 UNK     1      18.571   0.307  33.451  1.00  0.00     0.003 A 
HETATM   17  C8  UNK     1      18.258   1.637  33.163  1.00  0.00     0.013 A 
BRANCH  13  18
HETATM   18  O2  UNK     1      19.161   1.791  29.616  1.00  0.00    -0.352 OA
HETATM   19  C16 UNK     1      18.102   1.601  28.680  1.00  0.00     0.210 C 
ENDBRANCH  13  18
BRANCH  14  20
HETATM   20  O4  UNK     1      19.777  -0.843  30.198  1.00  0.00    -0.353 OA
HETATM   21  C17 UNK     1      20.370  -2.066  30.629  1.00  0.00     0.210 C 
ENDBRANCH  14  20
ENDBRANCH   3  12
BRANCH  10  22
HETATM   22  O5  UNK     1      15.594   8.076  34.519  1.00  0.00    -0.356 OA
HETATM   23  C18 UNK     1      14.785   9.181  34.124  1.00  0.00     0.210 C 
ENDBRANCH  10  22
TORSDOF 4
ENDMDL
