MODEL 1
REMARK VINA RESULT:      -7.1      0.000      0.000
REMARK  4 active torsions:
REMARK  status: ('A' for Active; 'I' for Inactive)
REMARK    1  A    between atoms: C11_15  and  O2_2 
REMARK    2  A    between atoms: C2_6  and  N1_4 
REMARK    3  A    between atoms: C6_10  and  N1_4 
REMARK    4  A    between atoms: C11_15  and  C6_10 
ROOT
HETATM    1  O1  UNK     1      21.219  -8.476  34.563  1.00  0.00    -0.275 OA
HETATM    2  O3  UNK     1      21.060  -6.709  33.124  1.00  0.00    -0.260 OA
HETATM    3  C1  UNK     1      19.635  -8.654  36.421  1.00  0.00     0.025 A 
HETATM    4  C2  UNK     1      18.996  -7.405  35.968  1.00  0.00     0.047 A 
HETATM    5  C3  UNK     1      20.727  -9.147  35.701  1.00  0.00     0.092 A 
HETATM    6  C4  UNK     1      19.220  -9.393  37.538  1.00  0.00     0.023 A 
HETATM    7  C5  UNK     1      19.878 -10.573  37.908  1.00  0.00    -0.061 A 
HETATM    8  C7  UNK     1      21.393 -10.323  36.057  1.00  0.00     0.039 A 
HETATM    9  C8  UNK     1      19.494  -6.796  34.880  1.00  0.00     0.112 A 
HETATM   10  C9  UNK     1      20.963 -11.037  37.169  1.00  0.00     0.009 A 
HETATM   11  C10 UNK     1      20.643  -7.302  34.112  1.00  0.00     0.290 A 
HETATM   12  C12 UNK     1      19.413 -11.339  39.102  1.00  0.00     0.048 C 
ENDROOT
BRANCH   4  13
HETATM   13  N1  UNK     1      17.926  -6.902  36.656  1.00  0.00    -0.387 N 
HETATM   14  H2  UNK     1      17.961  -6.881  37.668  1.00  0.00     0.159 HD
BRANCH  13  15
HETATM   15  C6  UNK     1      16.733  -6.419  36.016  1.00  0.00     0.146 C 
BRANCH  15  16
HETATM   16  C11 UNK     1      16.234  -7.387  34.959  1.00  0.00     0.183 C 
BRANCH  16  17
HETATM   17  O2  UNK     1      14.937  -6.994  34.532  1.00  0.00    -0.399 OA
HETATM   18  H13 UNK     1      14.950  -6.977  33.560  1.00  0.00     0.209 HD
ENDBRANCH  16  17
ENDBRANCH  15  16
ENDBRANCH  13  15
ENDBRANCH   4  13
TORSDOF 4
ENDMDL
MODEL 2
REMARK VINA RESULT:      -7.0     18.772     20.993
REMARK  4 active torsions:
REMARK  status: ('A' for Active; 'I' for Inactive)
REMARK    1  A    between atoms: C11_15  and  O2_2 
REMARK    2  A    between atoms: C2_6  and  N1_4 
REMARK    3  A    between atoms: C6_10  and  N1_4 
REMARK    4  A    between atoms: C11_15  and  C6_10 
ROOT
HETATM    1  O1  UNK     1      19.384   1.327  15.082  1.00  0.00    -0.275 OA
HETATM    2  O3  UNK     1      19.495   3.395  16.047  1.00  0.00    -0.260 OA
HETATM    3  C1  UNK     1      19.015  -0.635  16.497  1.00  0.00     0.025 A 
HETATM    4  C2  UNK     1      18.976   0.248  17.676  1.00  0.00     0.047 A 
HETATM    5  C3  UNK     1      19.218  -0.063  15.238  1.00  0.00     0.092 A 
HETATM    6  C4  UNK     1      18.860  -2.029  16.548  1.00  0.00     0.023 A 
HETATM    7  C5  UNK     1      18.909  -2.804  15.383  1.00  0.00    -0.061 A 
HETATM    8  C7  UNK     1      19.268  -0.823  14.066  1.00  0.00     0.039 A 
HETATM    9  C8  UNK     1      19.139   1.567  17.487  1.00  0.00     0.112 A 
HETATM   10  C9  UNK     1      19.113  -2.202  14.144  1.00  0.00     0.009 A 
HETATM   11  C10 UNK     1      19.353   2.184  16.168  1.00  0.00     0.290 A 
HETATM   12  C12 UNK     1      18.741  -4.285  15.469  1.00  0.00     0.048 C 
ENDROOT
BRANCH   4  13
HETATM   13  N1  UNK     1      18.779  -0.288  18.920  1.00  0.00    -0.387 N 
HETATM   14  H2  UNK     1      18.917  -1.282  19.051  1.00  0.00     0.159 HD
BRANCH  13  15
HETATM   15  C6  UNK     1      18.359   0.487  20.056  1.00  0.00     0.146 C 
BRANCH  15  16
HETATM   16  C11 UNK     1      19.522   0.799  20.979  1.00  0.00     0.183 C 
BRANCH  16  17
HETATM   17  O2  UNK     1      19.848  -0.359  21.736  1.00  0.00    -0.399 OA
HETATM   18  H13 UNK     1      20.055  -0.061  22.638  1.00  0.00     0.209 HD
ENDBRANCH  16  17
ENDBRANCH  15  16
ENDBRANCH  13  15
ENDBRANCH   4  13
TORSDOF 4
ENDMDL
MODEL 3
REMARK VINA RESULT:      -6.8      8.822     10.449
REMARK  4 active torsions:
REMARK  status: ('A' for Active; 'I' for Inactive)
REMARK    1  A    between atoms: C11_15  and  O2_2 
REMARK    2  A    between atoms: C2_6  and  N1_4 
REMARK    3  A    between atoms: C6_10  and  N1_4 
REMARK    4  A    between atoms: C11_15  and  C6_10 
ROOT
HETATM    1  O1  UNK     1      18.697   2.376  30.441  1.00  0.00    -0.275 OA
HETATM    2  O3  UNK     1      17.744   4.082  31.624  1.00  0.00    -0.260 OA
HETATM    3  C1  UNK     1      19.241   0.283  31.586  1.00  0.00     0.025 A 
HETATM    4  C2  UNK     1      18.714   0.855  32.839  1.00  0.00     0.047 A 
HETATM    5  C3  UNK     1      19.214   1.065  30.428  1.00  0.00     0.092 A 
HETATM    6  C4  UNK     1      19.774  -1.010  31.472  1.00  0.00     0.023 A 
HETATM    7  C5  UNK     1      20.256  -1.486  30.246  1.00  0.00    -0.061 A 
HETATM    8  C7  UNK     1      19.690   0.603  29.198  1.00  0.00     0.039 A 
HETATM    9  C8  UNK     1      18.232   2.108  32.810  1.00  0.00     0.112 A 
HETATM   10  C9  UNK     1      20.214  -0.681  29.111  1.00  0.00     0.009 A 
HETATM   11  C10 UNK     1      18.196   2.943  31.599  1.00  0.00     0.290 A 
HETATM   12  C12 UNK     1      20.817  -2.866  30.155  1.00  0.00     0.048 C 
ENDROOT
BRANCH   4  13
HETATM   13  N1  UNK     1      18.730   0.109  33.986  1.00  0.00    -0.387 N 
HETATM   14  H2  UNK     1      19.340  -0.698  34.036  1.00  0.00     0.159 HD
BRANCH  13  15
HETATM   15  C6  UNK     1      17.903   0.397  35.126  1.00  0.00     0.146 C 
BRANCH  15  16
HETATM   16  C11 UNK     1      16.567  -0.318  35.040  1.00  0.00     0.183 C 
BRANCH  16  17
HETATM   17  O2  UNK     1      15.602   0.553  34.465  1.00  0.00    -0.399 OA
HETATM   18  H13 UNK     1      15.014   0.006  33.918  1.00  0.00     0.209 HD
ENDBRANCH  16  17
ENDBRANCH  15  16
ENDBRANCH  13  15
ENDBRANCH   4  13
TORSDOF 4
ENDMDL
MODEL 4
REMARK VINA RESULT:      -6.8      7.120      9.573
REMARK  4 active torsions:
REMARK  status: ('A' for Active; 'I' for Inactive)
REMARK    1  A    between atoms: C11_15  and  O2_2 
REMARK    2  A    between atoms: C2_6  and  N1_4 
REMARK    3  A    between atoms: C6_10  and  N1_4 
REMARK    4  A    between atoms: C11_15  and  C6_10 
ROOT
HETATM    1  O1  UNK     1      20.913  -2.815  30.730  1.00  0.00    -0.275 OA
HETATM    2  O3  UNK     1      21.468  -4.403  32.275  1.00  0.00    -0.260 OA
HETATM    3  C1  UNK     1      19.726  -0.802  31.456  1.00  0.00     0.025 A 
HETATM    4  C2  UNK     1      19.746  -1.314  32.838  1.00  0.00     0.047 A 
HETATM    5  C3  UNK     1      20.312  -1.572  30.448  1.00  0.00     0.092 A 
HETATM    6  C4  UNK     1      19.154   0.421  31.075  1.00  0.00     0.023 A 
HETATM    7  C5  UNK     1      19.174   0.843  29.739  1.00  0.00    -0.061 A 
HETATM    8  C7  UNK     1      20.341  -1.164  29.111  1.00  0.00     0.039 A 
HETATM    9  C8  UNK     1      20.327  -2.502  33.066  1.00  0.00     0.112 A 
HETATM   10  C9  UNK     1      19.767   0.051  28.759  1.00  0.00     0.009 A 
HETATM   11  C10 UNK     1      20.948  -3.324  32.016  1.00  0.00     0.290 A 
HETATM   12  C12 UNK     1      18.557   2.149  29.364  1.00  0.00     0.048 C 
ENDROOT
BRANCH   4  13
HETATM   13  N1  UNK     1      19.178  -0.578  33.843  1.00  0.00    -0.387 N 
HETATM   14  H2  UNK     1      19.754   0.081  34.352  1.00  0.00     0.159 HD
BRANCH  13  15
HETATM   15  C6  UNK     1      17.801  -0.708  34.234  1.00  0.00     0.146 C 
BRANCH  15  16
HETATM   16  C11 UNK     1      17.199   0.633  34.612  1.00  0.00     0.183 C 
BRANCH  16  17
HETATM   17  O2  UNK     1      15.792   0.594  34.409  1.00  0.00    -0.399 OA
HETATM   18  H13 UNK     1      15.471  -0.235  34.803  1.00  0.00     0.209 HD
ENDBRANCH  16  17
ENDBRANCH  15  16
ENDBRANCH  13  15
ENDBRANCH   4  13
TORSDOF 4
ENDMDL
MODEL 5
REMARK VINA RESULT:      -6.7      8.538     10.507
REMARK  4 active torsions:
REMARK  status: ('A' for Active; 'I' for Inactive)
REMARK    1  A    between atoms: C11_15  and  O2_2 
REMARK    2  A    between atoms: C2_6  and  N1_4 
REMARK    3  A    between atoms: C6_10  and  N1_4 
REMARK    4  A    between atoms: C11_15  and  C6_10 
ROOT
HETATM    1  O1  UNK     1      19.338   1.334  28.943  1.00  0.00    -0.275 OA
HETATM    2  O3  UNK     1      18.324   3.377  28.805  1.00  0.00    -0.260 OA
HETATM    3  C1  UNK     1      19.377   0.160  31.090  1.00  0.00     0.025 A 
HETATM    4  C2  UNK     1      18.639   1.284  31.694  1.00  0.00     0.047 A 
HETATM    5  C3  UNK     1      19.701   0.224  29.732  1.00  0.00     0.092 A 
HETATM    6  C4  UNK     1      19.781  -0.987  31.790  1.00  0.00     0.023 A 
HETATM    7  C5  UNK     1      20.480  -2.016  31.146  1.00  0.00    -0.061 A 
HETATM    8  C7  UNK     1      20.397  -0.795  29.076  1.00  0.00     0.039 A 
HETATM    9  C8  UNK     1      18.312   2.323  30.910  1.00  0.00     0.112 A 
HETATM   10  C9  UNK     1      20.787  -1.920  29.792  1.00  0.00     0.009 A 
HETATM   11  C10 UNK     1      18.646   2.406  29.479  1.00  0.00     0.290 A 
HETATM   12  C12 UNK     1      20.897  -3.224  31.917  1.00  0.00     0.048 C 
ENDROOT
BRANCH   4  13
HETATM   13  N1  UNK     1      18.310   1.244  33.022  1.00  0.00    -0.387 N 
HETATM   14  H2  UNK     1      18.086   0.351  33.444  1.00  0.00     0.159 HD
BRANCH  13  15
HETATM   15  C6  UNK     1      18.240   2.415  33.853  1.00  0.00     0.146 C 
BRANCH  15  16
HETATM   16  C11 UNK     1      18.608   2.101  35.292  1.00  0.00     0.183 C 
BRANCH  16  17
HETATM   17  O2  UNK     1      19.274   0.847  35.346  1.00  0.00    -0.399 OA
HETATM   18  H13 UNK     1      18.760   0.227  34.800  1.00  0.00     0.209 HD
ENDBRANCH  16  17
ENDBRANCH  15  16
ENDBRANCH  13  15
ENDBRANCH   4  13
TORSDOF 4
ENDMDL
MODEL 6
REMARK VINA RESULT:      -6.7     10.958     13.295
REMARK  4 active torsions:
REMARK  status: ('A' for Active; 'I' for Inactive)
REMARK    1  A    between atoms: C11_15  and  O2_2 
REMARK    2  A    between atoms: C2_6  and  N1_4 
REMARK    3  A    between atoms: C6_10  and  N1_4 
REMARK    4  A    between atoms: C11_15  and  C6_10 
ROOT
HETATM    1  O1  UNK     1      19.035   3.272  29.414  1.00  0.00    -0.275 OA
HETATM    2  O3  UNK     1      19.051   1.052  28.874  1.00  0.00    -0.260 OA
HETATM    3  C1  UNK     1      18.415   3.948  31.683  1.00  0.00     0.025 A 
HETATM    4  C2  UNK     1      18.223   2.528  32.031  1.00  0.00     0.047 A 
HETATM    5  C3  UNK     1      18.816   4.271  30.384  1.00  0.00     0.092 A 
HETATM    6  C4  UNK     1      18.223   5.012  32.576  1.00  0.00     0.023 A 
HETATM    7  C5  UNK     1      18.426   6.338  32.173  1.00  0.00    -0.061 A 
HETATM    8  C7  UNK     1      19.023   5.588  29.967  1.00  0.00     0.039 A 
HETATM    9  C8  UNK     1      18.441   1.606  31.079  1.00  0.00     0.112 A 
HETATM   10  C9  UNK     1      18.825   6.626  30.870  1.00  0.00     0.009 A 
HETATM   11  C10 UNK     1      18.863   1.931  29.708  1.00  0.00     0.290 A 
HETATM   12  C12 UNK     1      18.214   7.450  33.145  1.00  0.00     0.048 C 
ENDROOT
BRANCH   4  13
HETATM   13  N1  UNK     1      17.831   2.186  33.297  1.00  0.00    -0.387 N 
HETATM   14  H2  UNK     1      17.229   2.818  33.810  1.00  0.00     0.159 HD
BRANCH  13  15
HETATM   15  C6  UNK     1      18.251   0.978  33.954  1.00  0.00     0.146 C 
BRANCH  15  16
HETATM   16  C11 UNK     1      17.165   0.430  34.862  1.00  0.00     0.183 C 
BRANCH  16  17
HETATM   17  O2  UNK     1      15.894   0.656  34.268  1.00  0.00    -0.399 OA
HETATM   18  H13 UNK     1      15.934   0.300  33.364  1.00  0.00     0.209 HD
ENDBRANCH  16  17
ENDBRANCH  15  16
ENDBRANCH  13  15
ENDBRANCH   4  13
TORSDOF 4
ENDMDL
MODEL 7
REMARK VINA RESULT:      -6.7      6.973      8.683
REMARK  4 active torsions:
REMARK  status: ('A' for Active; 'I' for Inactive)
REMARK    1  A    between atoms: C11_15  and  O2_2 
REMARK    2  A    between atoms: C2_6  and  N1_4 
REMARK    3  A    between atoms: C6_10  and  N1_4 
REMARK    4  A    between atoms: C11_15  and  C6_10 
ROOT
HETATM    1  O1  UNK     1      20.438  -2.821  34.080  1.00  0.00    -0.275 OA
HETATM    2  O3  UNK     1      21.627  -3.621  32.301  1.00  0.00    -0.260 OA
HETATM    3  C1  UNK     1      18.838  -1.003  33.730  1.00  0.00     0.025 A 
HETATM    4  C2  UNK     1      19.191  -0.996  32.299  1.00  0.00     0.047 A 
HETATM    5  C3  UNK     1      19.475  -1.918  34.573  1.00  0.00     0.092 A 
HETATM    6  C4  UNK     1      17.895  -0.145  34.315  1.00  0.00     0.023 A 
HETATM    7  C5  UNK     1      17.611  -0.210  35.685  1.00  0.00    -0.061 A 
HETATM    8  C7  UNK     1      19.203  -1.995  35.941  1.00  0.00     0.039 A 
HETATM    9  C8  UNK     1      20.113  -1.871  31.868  1.00  0.00     0.112 A 
HETATM   10  C9  UNK     1      18.264  -1.134  36.497  1.00  0.00     0.009 A 
HETATM   11  C10 UNK     1      20.792  -2.840  32.743  1.00  0.00     0.290 A 
HETATM   12  C12 UNK     1      16.602   0.715  36.279  1.00  0.00     0.048 C 
ENDROOT
BRANCH   4  13
HETATM   13  N1  UNK     1      18.581  -0.109  31.453  1.00  0.00    -0.387 N 
HETATM   14  H2  UNK     1      17.590  -0.208  31.272  1.00  0.00     0.159 HD
BRANCH  13  15
HETATM   15  C6  UNK     1      19.282   0.952  30.783  1.00  0.00     0.146 C 
BRANCH  15  16
HETATM   16  C11 UNK     1      18.908   1.029  29.315  1.00  0.00     0.183 C 
BRANCH  16  17
HETATM   17  O2  UNK     1      17.511   1.262  29.195  1.00  0.00    -0.399 OA
HETATM   18  H13 UNK     1      17.308   1.296  28.244  1.00  0.00     0.209 HD
ENDBRANCH  16  17
ENDBRANCH  15  16
ENDBRANCH  13  15
ENDBRANCH   4  13
TORSDOF 4
ENDMDL
MODEL 8
REMARK VINA RESULT:      -6.7      2.553      2.687
REMARK  4 active torsions:
REMARK  status: ('A' for Active; 'I' for Inactive)
REMARK    1  A    between atoms: C11_15  and  O2_2 
REMARK    2  A    between atoms: C2_6  and  N1_4 
REMARK    3  A    between atoms: C6_10  and  N1_4 
REMARK    4  A    between atoms: C11_15  and  C6_10 
ROOT
HETATM    1  O1  UNK     1      21.257  -5.584  37.867  1.00  0.00    -0.275 OA
HETATM    2  O3  UNK     1      20.911  -3.604  36.781  1.00  0.00    -0.260 OA
HETATM    3  C1  UNK     1      19.490  -7.277  37.863  1.00  0.00     0.025 A 
HETATM    4  C2  UNK     1      18.651  -6.369  37.058  1.00  0.00     0.047 A 
HETATM    5  C3  UNK     1      20.766  -6.851  38.239  1.00  0.00     0.092 A 
HETATM    6  C4  UNK     1      19.092  -8.555  38.283  1.00  0.00     0.023 A 
HETATM    7  C5  UNK     1      19.945  -9.362  39.046  1.00  0.00    -0.061 A 
HETATM    8  C7  UNK     1      21.629  -7.645  39.000  1.00  0.00     0.039 A 
HETATM    9  C8  UNK     1      19.154  -5.170  36.724  1.00  0.00     0.112 A 
HETATM   10  C9  UNK     1      21.212  -8.907  39.404  1.00  0.00     0.009 A 
HETATM   11  C10 UNK     1      20.496  -4.709  37.113  1.00  0.00     0.290 A 
HETATM   12  C12 UNK     1      19.494 -10.717  39.478  1.00  0.00     0.048 C 
ENDROOT
BRANCH   4  13
HETATM   13  N1  UNK     1      17.397  -6.763  36.677  1.00  0.00    -0.387 N 
HETATM   14  H2  UNK     1      16.648  -6.738  37.358  1.00  0.00     0.159 HD
BRANCH  13  15
HETATM   15  C6  UNK     1      17.086  -7.237  35.356  1.00  0.00     0.146 C 
BRANCH  15  16
HETATM   16  C11 UNK     1      15.631  -6.994  35.003  1.00  0.00     0.183 C 
BRANCH  16  17
HETATM   17  O2  UNK     1      15.378  -7.469  33.688  1.00  0.00    -0.399 OA
HETATM   18  H13 UNK     1      14.739  -8.198  33.765  1.00  0.00     0.209 HD
ENDBRANCH  16  17
ENDBRANCH  15  16
ENDBRANCH  13  15
ENDBRANCH   4  13
TORSDOF 4
ENDMDL
MODEL 9
REMARK VINA RESULT:      -6.6      7.571      9.964
REMARK  4 active torsions:
REMARK  status: ('A' for Active; 'I' for Inactive)
REMARK    1  A    between atoms: C11_15  and  O2_2 
REMARK    2  A    between atoms: C2_6  and  N1_4 
REMARK    3  A    between atoms: C6_10  and  N1_4 
REMARK    4  A    between atoms: C11_15  and  C6_10 
ROOT
HETATM    1  O1  UNK     1      20.601  -2.197  32.230  1.00  0.00    -0.275 OA
HETATM    2  O3  UNK     1      20.645  -3.319  34.219  1.00  0.00    -0.260 OA
HETATM    3  C1  UNK     1      19.153  -0.238  31.993  1.00  0.00     0.025 A 
HETATM    4  C2  UNK     1      18.709  -0.424  33.387  1.00  0.00     0.047 A 
HETATM    5  C3  UNK     1      20.086  -1.133  31.462  1.00  0.00     0.092 A 
HETATM    6  C4  UNK     1      18.701   0.788  31.149  1.00  0.00     0.023 A 
HETATM    7  C5  UNK     1      19.169   0.901  29.834  1.00  0.00    -0.061 A 
HETATM    8  C7  UNK     1      20.564  -1.033  30.153  1.00  0.00     0.039 A 
HETATM    9  C8  UNK     1      19.222  -1.449  34.085  1.00  0.00     0.112 A 
HETATM   10  C9  UNK     1      20.099  -0.008  29.337  1.00  0.00     0.009 A 
HETATM   11  C10 UNK     1      20.205  -2.399  33.540  1.00  0.00     0.290 A 
HETATM   12  C12 UNK     1      18.670   2.003  28.961  1.00  0.00     0.048 C 
ENDROOT
BRANCH   4  13
HETATM   13  N1  UNK     1      17.796   0.440  33.929  1.00  0.00    -0.387 N 
HETATM   14  H2  UNK     1      16.810   0.256  33.796  1.00  0.00     0.159 HD
BRANCH  13  15
HETATM   15  C6  UNK     1      18.166   1.619  34.663  1.00  0.00     0.146 C 
BRANCH  15  16
HETATM   16  C11 UNK     1      18.020   1.413  36.160  1.00  0.00     0.183 C 
BRANCH  16  17
HETATM   17  O2  UNK     1      18.931   2.262  36.844  1.00  0.00    -0.399 OA
HETATM   18  H13 UNK     1      19.798   1.822  36.829  1.00  0.00     0.209 HD
ENDBRANCH  16  17
ENDBRANCH  15  16
ENDBRANCH  13  15
ENDBRANCH   4  13
TORSDOF 4
ENDMDL
MODEL 10
REMARK VINA RESULT:      -6.6     14.732     17.076
REMARK  4 active torsions:
REMARK  status: ('A' for Active; 'I' for Inactive)
REMARK    1  A    between atoms: C11_15  and  O2_2 
REMARK    2  A    between atoms: C2_6  and  N1_4 
REMARK    3  A    between atoms: C6_10  and  N1_4 
REMARK    4  A    between atoms: C11_15  and  C6_10 
ROOT
HETATM    1  O1  UNK     1      15.387   8.366  32.694  1.00  0.00    -0.275 OA
HETATM    2  O3  UNK     1      13.914   6.904  31.742  1.00  0.00    -0.260 OA
HETATM    3  C1  UNK     1      17.702   7.662  33.064  1.00  0.00     0.025 A 
HETATM    4  C2  UNK     1      17.373   6.348  32.482  1.00  0.00     0.047 A 
HETATM    5  C3  UNK     1      16.695   8.628  33.150  1.00  0.00     0.092 A 
HETATM    6  C4  UNK     1      18.971   8.018  33.545  1.00  0.00     0.023 A 
HETATM    7  C5  UNK     1      19.208   9.288  34.086  1.00  0.00    -0.061 A 
HETATM    8  C7  UNK     1      16.916   9.899  33.686  1.00  0.00     0.039 A 
HETATM    9  C8  UNK     1      16.117   6.138  32.059  1.00  0.00     0.112 A 
HETATM   10  C9  UNK     1      18.182  10.227  34.157  1.00  0.00     0.009 A 
HETATM   11  C10 UNK     1      15.046   7.144  32.143  1.00  0.00     0.290 A 
HETATM   12  C12 UNK     1      20.569   9.638  34.589  1.00  0.00     0.048 C 
ENDROOT
BRANCH   4  13
HETATM   13  N1  UNK     1      18.342   5.387  32.387  1.00  0.00    -0.387 N 
HETATM   14  H2  UNK     1      18.718   4.985  33.237  1.00  0.00     0.159 HD
BRANCH  13  15
HETATM   15  C6  UNK     1      18.878   4.928  31.134  1.00  0.00     0.146 C 
BRANCH  15  16
HETATM   16  C11 UNK     1      20.069   5.761  30.697  1.00  0.00     0.183 C 
BRANCH  16  17
HETATM   17  O2  UNK     1      19.877   6.192  29.356  1.00  0.00    -0.399 OA
HETATM   18  H13 UNK     1      20.696   5.992  28.873  1.00  0.00     0.209 HD
ENDBRANCH  16  17
ENDBRANCH  15  16
ENDBRANCH  13  15
ENDBRANCH   4  13
TORSDOF 4
ENDMDL
