MODEL 1
REMARK VINA RESULT:      -9.7      0.000      0.000
REMARK  10 active torsions:
REMARK  status: ('A' for Active; 'I' for Inactive)
REMARK    1  A    between atoms: C20_29  and  O2_3 
REMARK    2  A    between atoms: C7_16  and  O2_3 
REMARK    3  A    between atoms: C11_20  and  O3_4 
REMARK    4  A    between atoms: C21_30  and  O3_4 
REMARK    5  A    between atoms: C19_28  and  N1_7 
REMARK    6  A    between atoms: C6_15  and  N1_7 
REMARK       I    between atoms: C17_26  and  N2_8 
REMARK    7  A    between atoms: N2_8  and  N3_9 
REMARK    8  A    between atoms: C19_28  and  N3_9 
REMARK    9  A    between atoms: C2_11  and  C5_14 
REMARK   10  A    between atoms: C17_26  and  C5_14 
ROOT
HETATM    1  N3  UNK     1      18.839   0.565  30.561  1.00  0.00    -0.274 N 
HETATM    2  H19 UNK     1      17.876   0.466  30.865  1.00  0.00     0.189 HD
ENDROOT
BRANCH   1   3
HETATM    3  C19 UNK     1      19.677  -0.532  30.399  1.00  0.00     0.191 C 
HETATM    4  S1  UNK     1      20.543  -0.632  28.966  1.00  0.00    -0.039 SA
BRANCH   3   5
HETATM    5  N1  UNK     1      19.656  -1.442  31.472  1.00  0.00    -0.332 N 
HETATM    6  H13 UNK     1      19.938  -2.382  31.202  1.00  0.00     0.168 HD
BRANCH   5   7
HETATM    7  C6  UNK     1      19.218  -1.355  32.794  1.00  0.00     0.037 A 
HETATM    8  C10 UNK     1      18.049  -0.666  33.099  1.00  0.00     0.067 A 
HETATM    9  C3  UNK     1      17.629  -0.593  34.427  1.00  0.00     0.092 A 
HETATM   10  C1  UNK     1      18.340  -1.190  35.469  1.00  0.00     0.004 A 
HETATM   11  O1  UNK     1      16.437   0.118  34.673  1.00  0.00    -0.275 OA
HETATM   12  C9  UNK     1      19.515  -1.880  35.142  1.00  0.00     0.017 A 
HETATM   13  C4  UNK     1      17.824  -1.063  36.838  1.00  0.00    -0.043 A 
HETATM   14  C13 UNK     1      19.950  -1.962  33.813  1.00  0.00     0.030 A 
HETATM   15  C15 UNK     1      16.688  -0.380  37.042  1.00  0.00     0.090 A 
HETATM   16  C16 UNK     1      18.567  -1.693  37.980  1.00  0.00     0.049 C 
HETATM   17  C18 UNK     1      15.926   0.255  35.955  1.00  0.00     0.288 A 
HETATM   18  O5  UNK     1      14.889   0.872  36.180  1.00  0.00    -0.260 OA
ENDBRANCH   5   7
ENDBRANCH   3   5
ENDBRANCH   1   3
BRANCH   1  19
HETATM   19  N2  UNK     1      19.273   1.847  30.317  1.00  0.00    -0.268 N 
HETATM   20  C17 UNK     1      18.383   2.893  30.467  1.00  0.00     0.240 C 
HETATM   21  O4  UNK     1      17.206   2.786  30.807  1.00  0.00    -0.272 OA
HETATM   22  H14 UNK     1      20.239   1.954  30.028  1.00  0.00     0.190 HD
BRANCH  20  23
HETATM   23  C5  UNK     1      18.993   4.233  30.116  1.00  0.00     0.143 C 
BRANCH  23  24
HETATM   24  C2  UNK     1      19.047   5.138  31.318  1.00  0.00    -0.047 A 
HETATM   25  C12 UNK     1      20.264   5.681  31.730  1.00  0.00     0.010 A 
HETATM   26  C14 UNK     1      20.314   6.519  32.844  1.00  0.00     0.040 A 
HETATM   27  C11 UNK     1      19.145   6.814  33.548  1.00  0.00     0.102 A 
HETATM   28  C7  UNK     1      17.928   6.271  33.136  1.00  0.00     0.102 A 
HETATM   29  C8  UNK     1      17.879   5.433  32.022  1.00  0.00     0.047 A 
BRANCH  27  30
HETATM   30  O3  UNK     1      19.207   7.633  34.634  1.00  0.00    -0.349 OA
BRANCH  30  31
HETATM   31  C21 UNK     1      19.606   8.983  34.406  1.00  0.00     0.171 C 
HETATM   32  C23 UNK     1      18.421   9.765  33.881  1.00  0.00     0.034 C 
ENDBRANCH  30  31
ENDBRANCH  27  30
BRANCH  28  33
HETATM   33  O2  UNK     1      16.780   6.552  33.814  1.00  0.00    -0.349 OA
BRANCH  33  34
HETATM   34  C20 UNK     1      15.723   7.160  33.075  1.00  0.00     0.171 C 
HETATM   35  C22 UNK     1      14.675   7.668  34.042  1.00  0.00     0.034 C 
ENDBRANCH  33  34
ENDBRANCH  28  33
ENDBRANCH  23  24
ENDBRANCH  20  23
ENDBRANCH   1  19
TORSDOF 10
ENDMDL
MODEL 2
REMARK VINA RESULT:      -9.7      2.031      7.964
REMARK  10 active torsions:
REMARK  status: ('A' for Active; 'I' for Inactive)
REMARK    1  A    between atoms: C20_29  and  O2_3 
REMARK    2  A    between atoms: C7_16  and  O2_3 
REMARK    3  A    between atoms: C11_20  and  O3_4 
REMARK    4  A    between atoms: C21_30  and  O3_4 
REMARK    5  A    between atoms: C19_28  and  N1_7 
REMARK    6  A    between atoms: C6_15  and  N1_7 
REMARK       I    between atoms: C17_26  and  N2_8 
REMARK    7  A    between atoms: N2_8  and  N3_9 
REMARK    8  A    between atoms: C19_28  and  N3_9 
REMARK    9  A    between atoms: C2_11  and  C5_14 
REMARK   10  A    between atoms: C17_26  and  C5_14 
ROOT
HETATM    1  N3  UNK     1      19.617   1.858  30.552  1.00  0.00    -0.274 N 
HETATM    2  H19 UNK     1      20.555   2.123  30.832  1.00  0.00     0.189 HD
ENDROOT
BRANCH   1   3
HETATM    3  C19 UNK     1      18.865   2.630  29.674  1.00  0.00     0.191 C 
HETATM    4  S1  UNK     1      17.818   1.821  28.643  1.00  0.00    -0.039 SA
BRANCH   3   5
HETATM    5  N1  UNK     1      19.116   4.012  29.755  1.00  0.00    -0.332 N 
HETATM    6  H13 UNK     1      19.524   4.393  28.903  1.00  0.00     0.168 HD
BRANCH   5   7
HETATM    7  C6  UNK     1      19.038   4.941  30.792  1.00  0.00     0.037 A 
HETATM    8  C10 UNK     1      17.816   5.209  31.400  1.00  0.00     0.067 A 
HETATM    9  C3  UNK     1      17.760   6.141  32.437  1.00  0.00     0.092 A 
HETATM   10  C1  UNK     1      18.892   6.820  32.890  1.00  0.00     0.004 A 
HETATM   11  O1  UNK     1      16.495   6.369  33.013  1.00  0.00    -0.275 OA
HETATM   12  C9  UNK     1      20.114   6.537  32.266  1.00  0.00     0.017 A 
HETATM   13  C4  UNK     1      18.741   7.786  33.987  1.00  0.00    -0.043 A 
HETATM   14  C13 UNK     1      20.185   5.604  31.225  1.00  0.00     0.030 A 
HETATM   15  C15 UNK     1      17.525   7.982  34.516  1.00  0.00     0.090 A 
HETATM   16  C16 UNK     1      19.939   8.532  34.497  1.00  0.00     0.049 C 
HETATM   17  C18 UNK     1      16.322   7.274  34.049  1.00  0.00     0.288 A 
HETATM   18  O5  UNK     1      15.225   7.480  34.558  1.00  0.00    -0.260 OA
ENDBRANCH   5   7
ENDBRANCH   3   5
ENDBRANCH   1   3
BRANCH   1  19
HETATM   19  N2  UNK     1      19.127   0.691  31.088  1.00  0.00    -0.268 N 
HETATM   20  C17 UNK     1      20.006  -0.341  31.357  1.00  0.00     0.240 C 
HETATM   21  O4  UNK     1      21.219  -0.316  31.157  1.00  0.00    -0.272 OA
HETATM   22  H14 UNK     1      18.127   0.650  31.254  1.00  0.00     0.190 HD
BRANCH  20  23
HETATM   23  C5  UNK     1      19.312  -1.573  31.898  1.00  0.00     0.143 C 
BRANCH  23  24
HETATM   24  C2  UNK     1      19.031  -1.437  33.371  1.00  0.00    -0.047 A 
HETATM   25  C12 UNK     1      17.979  -0.633  33.810  1.00  0.00     0.010 A 
HETATM   26  C14 UNK     1      17.719  -0.507  35.174  1.00  0.00     0.040 A 
HETATM   27  C11 UNK     1      18.512  -1.185  36.101  1.00  0.00     0.102 A 
HETATM   28  C7  UNK     1      19.564  -1.989  35.662  1.00  0.00     0.102 A 
HETATM   29  C8  UNK     1      19.824  -2.115  34.297  1.00  0.00     0.047 A 
BRANCH  27  30
HETATM   30  O3  UNK     1      18.249  -1.053  37.431  1.00  0.00    -0.349 OA
BRANCH  30  31
HETATM   31  C21 UNK     1      17.166  -0.200  37.795  1.00  0.00     0.171 C 
HETATM   32  C23 UNK     1      17.723   1.119  38.289  1.00  0.00     0.034 C 
ENDBRANCH  30  31
ENDBRANCH  27  30
BRANCH  28  33
HETATM   33  O2  UNK     1      20.345  -2.656  36.557  1.00  0.00    -0.349 OA
BRANCH  33  34
HETATM   34  C20 UNK     1      20.037  -4.029  36.788  1.00  0.00     0.171 C 
HETATM   35  C22 UNK     1      21.127  -4.641  37.643  1.00  0.00     0.034 C 
ENDBRANCH  33  34
ENDBRANCH  28  33
ENDBRANCH  23  24
ENDBRANCH  20  23
ENDBRANCH   1  19
TORSDOF 10
ENDMDL
MODEL 3
REMARK VINA RESULT:      -9.6      4.278     10.478
REMARK  10 active torsions:
REMARK  status: ('A' for Active; 'I' for Inactive)
REMARK    1  A    between atoms: C20_29  and  O2_3 
REMARK    2  A    between atoms: C7_16  and  O2_3 
REMARK    3  A    between atoms: C11_20  and  O3_4 
REMARK    4  A    between atoms: C21_30  and  O3_4 
REMARK    5  A    between atoms: C19_28  and  N1_7 
REMARK    6  A    between atoms: C6_15  and  N1_7 
REMARK       I    between atoms: C17_26  and  N2_8 
REMARK    7  A    between atoms: N2_8  and  N3_9 
REMARK    8  A    between atoms: C19_28  and  N3_9 
REMARK    9  A    between atoms: C2_11  and  C5_14 
REMARK   10  A    between atoms: C17_26  and  C5_14 
ROOT
HETATM    1  N3  UNK     1      20.396  -1.606  32.800  1.00  0.00    -0.274 N 
HETATM    2  H19 UNK     1      21.396  -1.482  32.926  1.00  0.00     0.189 HD
ENDROOT
BRANCH   1   3
HETATM    3  C19 UNK     1      19.754  -1.251  31.620  1.00  0.00     0.191 C 
HETATM    4  S1  UNK     1      20.278  -1.990  30.208  1.00  0.00    -0.039 SA
BRANCH   3   5
HETATM    5  N1  UNK     1      18.750  -0.277  31.775  1.00  0.00    -0.332 N 
HETATM    6  H13 UNK     1      17.839  -0.677  31.989  1.00  0.00     0.168 HD
BRANCH   5   7
HETATM    7  C6  UNK     1      18.716   1.103  31.579  1.00  0.00     0.037 A 
HETATM    8  C10 UNK     1      18.313   1.945  32.609  1.00  0.00     0.067 A 
HETATM    9  C3  UNK     1      18.287   3.324  32.392  1.00  0.00     0.092 A 
HETATM   10  C1  UNK     1      18.653   3.893  31.172  1.00  0.00     0.004 A 
HETATM   11  O1  UNK     1      17.869   4.125  33.473  1.00  0.00    -0.275 OA
HETATM   12  C9  UNK     1      19.056   3.028  30.146  1.00  0.00     0.017 A 
HETATM   13  C4  UNK     1      18.595   5.354  31.031  1.00  0.00    -0.043 A 
HETATM   14  C13 UNK     1      19.088   1.643  30.349  1.00  0.00     0.030 A 
HETATM   15  C15 UNK     1      18.194   6.091  32.077  1.00  0.00     0.090 A 
HETATM   16  C16 UNK     1      18.982   5.997  29.731  1.00  0.00     0.049 C 
HETATM   17  C18 UNK     1      17.805   5.506  33.370  1.00  0.00     0.288 A 
HETATM   18  O5  UNK     1      17.443   6.213  34.305  1.00  0.00    -0.260 OA
ENDBRANCH   5   7
ENDBRANCH   3   5
ENDBRANCH   1   3
BRANCH   1  19
HETATM   19  N2  UNK     1      19.710  -2.145  33.863  1.00  0.00    -0.268 N 
HETATM   20  C17 UNK     1      20.375  -2.339  35.058  1.00  0.00     0.240 C 
HETATM   21  O4  UNK     1      21.556  -2.069  35.270  1.00  0.00    -0.272 OA
HETATM   22  H14 UNK     1      18.736  -2.380  33.704  1.00  0.00     0.190 HD
BRANCH  20  23
HETATM   23  C5  UNK     1      19.502  -2.983  36.113  1.00  0.00     0.143 C 
BRANCH  23  24
HETATM   24  C2  UNK     1      20.114  -4.263  36.620  1.00  0.00    -0.047 A 
HETATM   25  C12 UNK     1      20.967  -4.240  37.723  1.00  0.00     0.010 A 
HETATM   26  C14 UNK     1      21.534  -5.425  38.191  1.00  0.00     0.040 A 
HETATM   27  C11 UNK     1      21.248  -6.634  37.556  1.00  0.00     0.102 A 
HETATM   28  C7  UNK     1      20.395  -6.657  36.453  1.00  0.00     0.102 A 
HETATM   29  C8  UNK     1      19.828  -5.471  35.985  1.00  0.00     0.047 A 
BRANCH  27  30
HETATM   30  O3  UNK     1      21.808  -7.784  38.023  1.00  0.00    -0.349 OA
BRANCH  30  31
HETATM   31  C21 UNK     1      21.453  -8.189  39.343  1.00  0.00     0.171 C 
HETATM   32  C23 UNK     1      20.059  -8.779  39.319  1.00  0.00     0.034 C 
ENDBRANCH  30  31
ENDBRANCH  27  30
BRANCH  28  33
HETATM   33  O2  UNK     1      20.108  -7.831  35.824  1.00  0.00    -0.349 OA
BRANCH  33  34
HETATM   34  C20 UNK     1      20.983  -8.234  34.773  1.00  0.00     0.171 C 
HETATM   35  C22 UNK     1      21.588  -9.577  35.124  1.00  0.00     0.034 C 
ENDBRANCH  33  34
ENDBRANCH  28  33
ENDBRANCH  23  24
ENDBRANCH  20  23
ENDBRANCH   1  19
TORSDOF 10
ENDMDL
MODEL 4
REMARK VINA RESULT:      -9.6      5.113      7.228
REMARK  10 active torsions:
REMARK  status: ('A' for Active; 'I' for Inactive)
REMARK    1  A    between atoms: C20_29  and  O2_3 
REMARK    2  A    between atoms: C7_16  and  O2_3 
REMARK    3  A    between atoms: C11_20  and  O3_4 
REMARK    4  A    between atoms: C21_30  and  O3_4 
REMARK    5  A    between atoms: C19_28  and  N1_7 
REMARK    6  A    between atoms: C6_15  and  N1_7 
REMARK       I    between atoms: C17_26  and  N2_8 
REMARK    7  A    between atoms: N2_8  and  N3_9 
REMARK    8  A    between atoms: C19_28  and  N3_9 
REMARK    9  A    between atoms: C2_11  and  C5_14 
REMARK   10  A    between atoms: C17_26  and  C5_14 
ROOT
HETATM    1  N3  UNK     1      20.037  -2.495  35.239  1.00  0.00    -0.274 N 
HETATM    2  H19 UNK     1      20.983  -2.268  35.528  1.00  0.00     0.189 HD
ENDROOT
BRANCH   1   3
HETATM    3  C19 UNK     1      19.036  -2.787  36.159  1.00  0.00     0.191 C 
HETATM    4  S1  UNK     1      18.204  -1.492  36.825  1.00  0.00    -0.039 SA
BRANCH   3   5
HETATM    5  N1  UNK     1      18.879  -4.158  36.430  1.00  0.00    -0.332 N 
HETATM    6  H13 UNK     1      17.908  -4.425  36.580  1.00  0.00     0.168 HD
BRANCH   5   7
HETATM    7  C6  UNK     1      19.779  -5.200  36.656  1.00  0.00     0.037 A 
HETATM    8  C10 UNK     1      19.860  -6.260  35.760  1.00  0.00     0.067 A 
HETATM    9  C3  UNK     1      20.768  -7.291  36.004  1.00  0.00     0.092 A 
HETATM   10  C1  UNK     1      21.604  -7.299  37.121  1.00  0.00     0.004 A 
HETATM   11  O1  UNK     1      20.803  -8.337  35.060  1.00  0.00    -0.275 OA
HETATM   12  C9  UNK     1      21.508  -6.223  38.013  1.00  0.00     0.017 A 
HETATM   13  C4  UNK     1      22.529  -8.426  37.300  1.00  0.00    -0.043 A 
HETATM   14  C13 UNK     1      20.602  -5.181  37.781  1.00  0.00     0.030 A 
HETATM   15  C15 UNK     1      22.541  -9.407  36.386  1.00  0.00     0.090 A 
HETATM   16  C16 UNK     1      23.441  -8.464  38.491  1.00  0.00     0.049 C 
HETATM   17  C18 UNK     1      21.666  -9.413  35.203  1.00  0.00     0.288 A 
HETATM   18  O5  UNK     1      21.706 -10.328  34.387  1.00  0.00    -0.260 OA
ENDBRANCH   5   7
ENDBRANCH   3   5
ENDBRANCH   1   3
BRANCH   1  19
HETATM   19  N2  UNK     1      19.798  -2.499  33.885  1.00  0.00    -0.268 N 
HETATM   20  C17 UNK     1      20.848  -2.259  33.020  1.00  0.00     0.240 C 
HETATM   21  O4  UNK     1      22.010  -2.036  33.354  1.00  0.00    -0.272 OA
HETATM   22  H14 UNK     1      18.842  -2.674  33.592  1.00  0.00     0.190 HD
BRANCH  20  23
HETATM   23  C5  UNK     1      20.418  -2.248  31.569  1.00  0.00     0.143 C 
BRANCH  23  24
HETATM   24  C2  UNK     1      19.917  -0.888  31.161  1.00  0.00    -0.047 A 
HETATM   25  C12 UNK     1      20.255  -0.366  29.912  1.00  0.00     0.010 A 
HETATM   26  C14 UNK     1      19.791   0.895  29.534  1.00  0.00     0.040 A 
HETATM   27  C11 UNK     1      18.989   1.633  30.405  1.00  0.00     0.102 A 
HETATM   28  C7  UNK     1      18.651   1.111  31.653  1.00  0.00     0.102 A 
HETATM   29  C8  UNK     1      19.115  -0.149  32.032  1.00  0.00     0.047 A 
BRANCH  27  30
HETATM   30  O3  UNK     1      18.542   2.862  30.025  1.00  0.00    -0.349 OA
BRANCH  30  31
HETATM   31  C21 UNK     1      18.976   3.978  30.800  1.00  0.00     0.171 C 
HETATM   32  C23 UNK     1      19.168   5.168  29.884  1.00  0.00     0.034 C 
ENDBRANCH  30  31
ENDBRANCH  27  30
BRANCH  28  33
HETATM   33  O2  UNK     1      17.869   1.822  32.513  1.00  0.00    -0.349 OA
BRANCH  33  34
HETATM   34  C20 UNK     1      18.098   1.630  33.907  1.00  0.00     0.171 C 
HETATM   35  C22 UNK     1      18.379   2.973  34.549  1.00  0.00     0.034 C 
ENDBRANCH  33  34
ENDBRANCH  28  33
ENDBRANCH  23  24
ENDBRANCH  20  23
ENDBRANCH   1  19
TORSDOF 10
ENDMDL
MODEL 5
REMARK VINA RESULT:      -9.5      1.772      2.394
REMARK  10 active torsions:
REMARK  status: ('A' for Active; 'I' for Inactive)
REMARK    1  A    between atoms: C20_29  and  O2_3 
REMARK    2  A    between atoms: C7_16  and  O2_3 
REMARK    3  A    between atoms: C11_20  and  O3_4 
REMARK    4  A    between atoms: C21_30  and  O3_4 
REMARK    5  A    between atoms: C19_28  and  N1_7 
REMARK    6  A    between atoms: C6_15  and  N1_7 
REMARK       I    between atoms: C17_26  and  N2_8 
REMARK    7  A    between atoms: N2_8  and  N3_9 
REMARK    8  A    between atoms: C19_28  and  N3_9 
REMARK    9  A    between atoms: C2_11  and  C5_14 
REMARK   10  A    between atoms: C17_26  and  C5_14 
ROOT
HETATM    1  N3  UNK     1      18.894   0.609  30.687  1.00  0.00    -0.274 N 
HETATM    2  H19 UNK     1      17.986   0.493  31.124  1.00  0.00     0.189 HD
ENDROOT
BRANCH   1   3
HETATM    3  C19 UNK     1      19.708  -0.476  30.381  1.00  0.00     0.191 C 
HETATM    4  S1  UNK     1      20.608  -0.386  28.968  1.00  0.00    -0.039 SA
BRANCH   3   5
HETATM    5  N1  UNK     1      19.637  -1.534  31.305  1.00  0.00    -0.332 N 
HETATM    6  H13 UNK     1      19.650  -2.450  30.862  1.00  0.00     0.168 HD
BRANCH   5   7
HETATM    7  C6  UNK     1      19.432  -1.590  32.684  1.00  0.00     0.037 A 
HETATM    8  C10 UNK     1      20.150  -2.491  33.461  1.00  0.00     0.067 A 
HETATM    9  C3  UNK     1      19.930  -2.530  34.839  1.00  0.00     0.092 A 
HETATM   10  C1  UNK     1      19.010  -1.692  35.470  1.00  0.00     0.004 A 
HETATM   11  O1  UNK     1      20.688  -3.464  35.573  1.00  0.00    -0.275 OA
HETATM   12  C9  UNK     1      18.295  -0.791  34.670  1.00  0.00     0.017 A 
HETATM   13  C4  UNK     1      18.842  -1.801  36.926  1.00  0.00    -0.043 A 
HETATM   14  C13 UNK     1      18.506  -0.740  33.287  1.00  0.00     0.030 A 
HETATM   15  C15 UNK     1      19.576  -2.699  37.598  1.00  0.00     0.090 A 
HETATM   16  C16 UNK     1      17.860  -0.915  37.634  1.00  0.00     0.049 C 
HETATM   17  C18 UNK     1      20.551  -3.589  36.946  1.00  0.00     0.288 A 
HETATM   18  O5  UNK     1      21.206  -4.399  37.595  1.00  0.00    -0.260 OA
ENDBRANCH   5   7
ENDBRANCH   3   5
ENDBRANCH   1   3
BRANCH   1  19
HETATM   19  N2  UNK     1      19.278   1.900  30.412  1.00  0.00    -0.268 N 
HETATM   20  C17 UNK     1      18.339   2.910  30.504  1.00  0.00     0.240 C 
HETATM   21  O4  UNK     1      17.160   2.761  30.817  1.00  0.00    -0.272 OA
HETATM   22  H14 UNK     1      20.246   2.041  30.145  1.00  0.00     0.190 HD
BRANCH  20  23
HETATM   23  C5  UNK     1      18.900   4.264  30.126  1.00  0.00     0.143 C 
BRANCH  23  24
HETATM   24  C2  UNK     1      18.964   5.179  31.320  1.00  0.00    -0.047 A 
HETATM   25  C12 UNK     1      20.174   5.772  31.680  1.00  0.00     0.010 A 
HETATM   26  C14 UNK     1      20.233   6.620  32.787  1.00  0.00     0.040 A 
HETATM   27  C11 UNK     1      19.082   6.874  33.533  1.00  0.00     0.102 A 
HETATM   28  C7  UNK     1      17.872   6.281  33.173  1.00  0.00     0.102 A 
HETATM   29  C8  UNK     1      17.813   5.434  32.066  1.00  0.00     0.047 A 
BRANCH  27  30
HETATM   30  O3  UNK     1      19.153   7.704  34.612  1.00  0.00    -0.349 OA
BRANCH  30  31
HETATM   31  C21 UNK     1      19.977   8.861  34.486  1.00  0.00     0.171 C 
HETATM   32  C23 UNK     1      19.109  10.046  34.121  1.00  0.00     0.034 C 
ENDBRANCH  30  31
ENDBRANCH  27  30
BRANCH  28  33
HETATM   33  O2  UNK     1      16.741   6.522  33.893  1.00  0.00    -0.349 OA
BRANCH  33  34
HETATM   34  C20 UNK     1      15.675   7.190  33.222  1.00  0.00     0.171 C 
HETATM   35  C22 UNK     1      15.726   8.664  33.560  1.00  0.00     0.034 C 
ENDBRANCH  33  34
ENDBRANCH  28  33
ENDBRANCH  23  24
ENDBRANCH  20  23
ENDBRANCH   1  19
TORSDOF 10
ENDMDL
MODEL 6
REMARK VINA RESULT:      -9.5      5.606      7.847
REMARK  10 active torsions:
REMARK  status: ('A' for Active; 'I' for Inactive)
REMARK    1  A    between atoms: C20_29  and  O2_3 
REMARK    2  A    between atoms: C7_16  and  O2_3 
REMARK    3  A    between atoms: C11_20  and  O3_4 
REMARK    4  A    between atoms: C21_30  and  O3_4 
REMARK    5  A    between atoms: C19_28  and  N1_7 
REMARK    6  A    between atoms: C6_15  and  N1_7 
REMARK       I    between atoms: C17_26  and  N2_8 
REMARK    7  A    between atoms: N2_8  and  N3_9 
REMARK    8  A    between atoms: C19_28  and  N3_9 
REMARK    9  A    between atoms: C2_11  and  C5_14 
REMARK   10  A    between atoms: C17_26  and  C5_14 
ROOT
HETATM    1  N3  UNK     1      17.804  -2.676  36.613  1.00  0.00    -0.274 N 
HETATM    2  H19 UNK     1      16.820  -2.886  36.741  1.00  0.00     0.189 HD
ENDROOT
BRANCH   1   3
HETATM    3  C19 UNK     1      18.790  -3.644  36.766  1.00  0.00     0.191 C 
HETATM    4  S1  UNK     1      20.362  -3.109  37.001  1.00  0.00    -0.039 SA
BRANCH   3   5
HETATM    5  N1  UNK     1      18.324  -4.968  36.669  1.00  0.00    -0.332 N 
HETATM    6  H13 UNK     1      17.326  -5.052  36.853  1.00  0.00     0.168 HD
BRANCH   5   7
HETATM    7  C6  UNK     1      18.959  -6.198  36.495  1.00  0.00     0.037 A 
HETATM    8  C10 UNK     1      18.661  -7.263  37.337  1.00  0.00     0.067 A 
HETATM    9  C3  UNK     1      19.307  -8.485  37.145  1.00  0.00     0.092 A 
HETATM   10  C1  UNK     1      20.246  -8.680  36.131  1.00  0.00     0.004 A 
HETATM   11  O1  UNK     1      18.963  -9.526  38.030  1.00  0.00    -0.275 OA
HETATM   12  C9  UNK     1      20.533  -7.595  35.293  1.00  0.00     0.017 A 
HETATM   13  C4  UNK     1      20.878 -10.000  36.001  1.00  0.00    -0.043 A 
HETATM   14  C13 UNK     1      19.893  -6.363  35.474  1.00  0.00     0.030 A 
HETATM   15  C15 UNK     1      20.532 -10.972  36.858  1.00  0.00     0.090 A 
HETATM   16  C16 UNK     1      21.893 -10.241  34.922  1.00  0.00     0.049 C 
HETATM   17  C18 UNK     1      19.543 -10.782  37.931  1.00  0.00     0.288 A 
HETATM   18  O5  UNK     1      19.251 -11.696  38.696  1.00  0.00    -0.260 OA
ENDBRANCH   5   7
ENDBRANCH   3   5
ENDBRANCH   1   3
BRANCH   1  19
HETATM   19  N2  UNK     1      18.112  -1.379  36.277  1.00  0.00    -0.268 N 
HETATM   20  C17 UNK     1      17.225  -0.662  35.496  1.00  0.00     0.240 C 
HETATM   21  O4  UNK     1      16.157  -1.085  35.059  1.00  0.00    -0.272 OA
HETATM   22  H14 UNK     1      18.993  -1.015  36.624  1.00  0.00     0.190 HD
BRANCH  20  23
HETATM   23  C5  UNK     1      17.725   0.729  35.173  1.00  0.00     0.143 C 
BRANCH  23  24
HETATM   24  C2  UNK     1      18.212   0.816  33.751  1.00  0.00    -0.047 A 
HETATM   25  C12 UNK     1      18.681  -0.327  33.103  1.00  0.00     0.010 A 
HETATM   26  C14 UNK     1      19.133  -0.246  31.785  1.00  0.00     0.040 A 
HETATM   27  C11 UNK     1      19.117   0.978  31.116  1.00  0.00     0.102 A 
HETATM   28  C7  UNK     1      18.648   2.121  31.764  1.00  0.00     0.102 A 
HETATM   29  C8  UNK     1      18.196   2.040  33.081  1.00  0.00     0.047 A 
BRANCH  27  30
HETATM   30  O3  UNK     1      19.561   1.044  29.830  1.00  0.00    -0.349 OA
BRANCH  30  31
HETATM   31  C21 UNK     1      20.301  -0.073  29.342  1.00  0.00     0.171 C 
HETATM   32  C23 UNK     1      19.532  -0.717  28.209  1.00  0.00     0.034 C 
ENDBRANCH  30  31
ENDBRANCH  27  30
BRANCH  28  33
HETATM   33  O2  UNK     1      18.627   3.322  31.121  1.00  0.00    -0.349 OA
BRANCH  33  34
HETATM   34  C20 UNK     1      18.086   4.430  31.837  1.00  0.00     0.171 C 
HETATM   35  C22 UNK     1      18.941   5.651  31.574  1.00  0.00     0.034 C 
ENDBRANCH  33  34
ENDBRANCH  28  33
ENDBRANCH  23  24
ENDBRANCH  20  23
ENDBRANCH   1  19
TORSDOF 10
ENDMDL
MODEL 7
REMARK VINA RESULT:      -9.4      4.795     10.990
REMARK  10 active torsions:
REMARK  status: ('A' for Active; 'I' for Inactive)
REMARK    1  A    between atoms: C20_29  and  O2_3 
REMARK    2  A    between atoms: C7_16  and  O2_3 
REMARK    3  A    between atoms: C11_20  and  O3_4 
REMARK    4  A    between atoms: C21_30  and  O3_4 
REMARK    5  A    between atoms: C19_28  and  N1_7 
REMARK    6  A    between atoms: C6_15  and  N1_7 
REMARK       I    between atoms: C17_26  and  N2_8 
REMARK    7  A    between atoms: N2_8  and  N3_9 
REMARK    8  A    between atoms: C19_28  and  N3_9 
REMARK    9  A    between atoms: C2_11  and  C5_14 
REMARK   10  A    between atoms: C17_26  and  C5_14 
ROOT
HETATM    1  N3  UNK     1      19.101  -1.535  34.163  1.00  0.00    -0.274 N 
HETATM    2  H19 UNK     1      19.758  -1.902  33.483  1.00  0.00     0.189 HD
ENDROOT
BRANCH   1   3
HETATM    3  C19 UNK     1      18.251  -0.475  33.868  1.00  0.00     0.191 C 
HETATM    4  S1  UNK     1      16.956  -0.218  34.903  1.00  0.00    -0.039 SA
BRANCH   3   5
HETATM    5  N1  UNK     1      18.588   0.231  32.699  1.00  0.00    -0.332 N 
HETATM    6  H13 UNK     1      19.035  -0.354  31.996  1.00  0.00     0.168 HD
BRANCH   5   7
HETATM    7  C6  UNK     1      18.550   1.581  32.350  1.00  0.00     0.037 A 
HETATM    8  C10 UNK     1      18.248   2.542  33.308  1.00  0.00     0.067 A 
HETATM    9  C3  UNK     1      18.216   3.887  32.937  1.00  0.00     0.092 A 
HETATM   10  C1  UNK     1      18.478   4.308  31.632  1.00  0.00     0.004 A 
HETATM   11  O1  UNK     1      17.905   4.814  33.952  1.00  0.00    -0.275 OA
HETATM   12  C9  UNK     1      18.779   3.324  30.681  1.00  0.00     0.017 A 
HETATM   13  C4  UNK     1      18.422   5.744  31.330  1.00  0.00    -0.043 A 
HETATM   14  C13 UNK     1      18.815   1.971  31.038  1.00  0.00     0.030 A 
HETATM   15  C15 UNK     1      18.123   6.603  32.316  1.00  0.00     0.090 A 
HETATM   16  C16 UNK     1      18.698   6.228  29.936  1.00  0.00     0.049 C 
HETATM   17  C18 UNK     1      17.845   6.176  33.697  1.00  0.00     0.288 A 
HETATM   18  O5  UNK     1      17.576   6.991  34.573  1.00  0.00    -0.260 OA
ENDBRANCH   5   7
ENDBRANCH   3   5
ENDBRANCH   1   3
BRANCH   1  19
HETATM   19  N2  UNK     1      19.095  -2.144  35.395  1.00  0.00    -0.268 N 
HETATM   20  C17 UNK     1      20.299  -2.375  36.033  1.00  0.00     0.240 C 
HETATM   21  O4  UNK     1      21.407  -2.079  35.592  1.00  0.00    -0.272 OA
HETATM   22  H14 UNK     1      18.189  -2.402  35.772  1.00  0.00     0.190 HD
BRANCH  20  23
HETATM   23  C5  UNK     1      20.131  -3.094  37.354  1.00  0.00     0.143 C 
BRANCH  23  24
HETATM   24  C2  UNK     1      20.301  -4.581  37.189  1.00  0.00    -0.047 A 
HETATM   25  C12 UNK     1      19.316  -5.329  36.545  1.00  0.00     0.010 A 
HETATM   26  C14 UNK     1      19.474  -6.707  36.393  1.00  0.00     0.040 A 
HETATM   27  C11 UNK     1      20.617  -7.337  36.886  1.00  0.00     0.102 A 
HETATM   28  C7  UNK     1      21.602  -6.589  37.530  1.00  0.00     0.102 A 
HETATM   29  C8  UNK     1      21.445  -5.211  37.682  1.00  0.00     0.047 A 
BRANCH  27  30
HETATM   30  O3  UNK     1      20.759  -8.683  36.732  1.00  0.00    -0.349 OA
BRANCH  30  31
HETATM   31  C21 UNK     1      21.303  -9.139  35.495  1.00  0.00     0.171 C 
HETATM   32  C23 UNK     1      22.184 -10.341  35.759  1.00  0.00     0.034 C 
ENDBRANCH  30  31
ENDBRANCH  27  30
BRANCH  28  33
HETATM   33  O2  UNK     1      22.724  -7.192  38.015  1.00  0.00    -0.349 OA
BRANCH  33  34
HETATM   34  C20 UNK     1      22.925  -7.145  39.426  1.00  0.00     0.171 C 
HETATM   35  C22 UNK     1      22.286  -8.365  40.056  1.00  0.00     0.034 C 
ENDBRANCH  33  34
ENDBRANCH  28  33
ENDBRANCH  23  24
ENDBRANCH  20  23
ENDBRANCH   1  19
TORSDOF 10
ENDMDL
MODEL 8
REMARK VINA RESULT:      -9.3      6.171     12.010
REMARK  10 active torsions:
REMARK  status: ('A' for Active; 'I' for Inactive)
REMARK    1  A    between atoms: C20_29  and  O2_3 
REMARK    2  A    between atoms: C7_16  and  O2_3 
REMARK    3  A    between atoms: C11_20  and  O3_4 
REMARK    4  A    between atoms: C21_30  and  O3_4 
REMARK    5  A    between atoms: C19_28  and  N1_7 
REMARK    6  A    between atoms: C6_15  and  N1_7 
REMARK       I    between atoms: C17_26  and  N2_8 
REMARK    7  A    between atoms: N2_8  and  N3_9 
REMARK    8  A    between atoms: C19_28  and  N3_9 
REMARK    9  A    between atoms: C2_11  and  C5_14 
REMARK   10  A    between atoms: C17_26  and  C5_14 
ROOT
HETATM    1  N3  UNK     1      18.770  -2.709  37.155  1.00  0.00    -0.274 N 
HETATM    2  H19 UNK     1      19.305  -2.552  38.002  1.00  0.00     0.189 HD
ENDROOT
BRANCH   1   3
HETATM    3  C19 UNK     1      18.356  -1.661  36.341  1.00  0.00     0.191 C 
HETATM    4  S1  UNK     1      17.488  -0.422  37.066  1.00  0.00    -0.039 SA
BRANCH   3   5
HETATM    5  N1  UNK     1      18.705  -1.806  34.986  1.00  0.00    -0.332 N 
HETATM    6  H13 UNK     1      19.085  -2.726  34.769  1.00  0.00     0.168 HD
BRANCH   5   7
HETATM    7  C6  UNK     1      18.753  -0.921  33.908  1.00  0.00     0.037 A 
HETATM    8  C10 UNK     1      19.213  -1.353  32.670  1.00  0.00     0.067 A 
HETATM    9  C3  UNK     1      19.252  -0.452  31.605  1.00  0.00     0.092 A 
HETATM   10  C1  UNK     1      18.843   0.876  31.737  1.00  0.00     0.004 A 
HETATM   11  O1  UNK     1      19.728  -0.949  30.375  1.00  0.00    -0.275 OA
HETATM   12  C9  UNK     1      18.383   1.292  32.993  1.00  0.00     0.017 A 
HETATM   13  C4  UNK     1      18.919   1.755  30.563  1.00  0.00    -0.043 A 
HETATM   14  C13 UNK     1      18.338   0.399  34.070  1.00  0.00     0.030 A 
HETATM   15  C15 UNK     1      19.376   1.256  29.406  1.00  0.00     0.090 A 
HETATM   16  C16 UNK     1      18.487   3.189  30.672  1.00  0.00     0.049 C 
HETATM   17  C18 UNK     1      19.810  -0.142  29.251  1.00  0.00     0.288 A 
HETATM   18  O5  UNK     1      20.223  -0.564  28.175  1.00  0.00    -0.260 OA
ENDBRANCH   5   7
ENDBRANCH   3   5
ENDBRANCH   1   3
BRANCH   1  19
HETATM   19  N2  UNK     1      18.476  -4.018  36.854  1.00  0.00    -0.268 N 
HETATM   20  C17 UNK     1      19.495  -4.853  36.437  1.00  0.00     0.240 C 
HETATM   21  O4  UNK     1      20.674  -4.529  36.305  1.00  0.00    -0.272 OA
HETATM   22  H14 UNK     1      17.507  -4.301  36.951  1.00  0.00     0.190 HD
BRANCH  20  23
HETATM   23  C5  UNK     1      19.007  -6.245  36.098  1.00  0.00     0.143 C 
BRANCH  23  24
HETATM   24  C2  UNK     1      20.128  -7.248  36.172  1.00  0.00    -0.047 A 
HETATM   25  C12 UNK     1      20.478  -7.988  35.043  1.00  0.00     0.010 A 
HETATM   26  C14 UNK     1      21.516  -8.917  35.111  1.00  0.00     0.040 A 
HETATM   27  C11 UNK     1      22.205  -9.106  36.310  1.00  0.00     0.102 A 
HETATM   28  C7  UNK     1      21.855  -8.366  37.439  1.00  0.00     0.102 A 
HETATM   29  C8  UNK     1      20.817  -7.437  37.370  1.00  0.00     0.047 A 
BRANCH  27  30
HETATM   30  O3  UNK     1      23.216 -10.017  36.364  1.00  0.00    -0.349 OA
BRANCH  30  31
HETATM   31  C21 UNK     1      22.980 -11.285  35.756  1.00  0.00     0.171 C 
HETATM   32  C23 UNK     1      24.241 -12.118  35.848  1.00  0.00     0.034 C 
ENDBRANCH  30  31
ENDBRANCH  27  30
BRANCH  28  33
HETATM   33  O2  UNK     1      22.520  -8.542  38.615  1.00  0.00    -0.349 OA
BRANCH  33  34
HETATM   34  C20 UNK     1      23.463  -7.537  38.982  1.00  0.00     0.171 C 
HETATM   35  C22 UNK     1      24.863  -8.089  38.810  1.00  0.00     0.034 C 
ENDBRANCH  33  34
ENDBRANCH  28  33
ENDBRANCH  23  24
ENDBRANCH  20  23
ENDBRANCH   1  19
TORSDOF 10
ENDMDL
MODEL 9
REMARK VINA RESULT:      -9.3      6.540     12.424
REMARK  10 active torsions:
REMARK  status: ('A' for Active; 'I' for Inactive)
REMARK    1  A    between atoms: C20_29  and  O2_3 
REMARK    2  A    between atoms: C7_16  and  O2_3 
REMARK    3  A    between atoms: C11_20  and  O3_4 
REMARK    4  A    between atoms: C21_30  and  O3_4 
REMARK    5  A    between atoms: C19_28  and  N1_7 
REMARK    6  A    between atoms: C6_15  and  N1_7 
REMARK       I    between atoms: C17_26  and  N2_8 
REMARK    7  A    between atoms: N2_8  and  N3_9 
REMARK    8  A    between atoms: C19_28  and  N3_9 
REMARK    9  A    between atoms: C2_11  and  C5_14 
REMARK   10  A    between atoms: C17_26  and  C5_14 
ROOT
HETATM    1  N3  UNK     1      18.680  -4.375  36.405  1.00  0.00    -0.274 N 
HETATM    2  H19 UNK     1      17.810  -4.424  35.886  1.00  0.00     0.189 HD
ENDROOT
BRANCH   1   3
HETATM    3  C19 UNK     1      19.513  -3.264  36.342  1.00  0.00     0.191 C 
HETATM    4  S1  UNK     1      20.943  -3.325  37.217  1.00  0.00    -0.039 SA
BRANCH   3   5
HETATM    5  N1  UNK     1      19.014  -2.208  35.558  1.00  0.00    -0.332 N 
HETATM    6  H13 UNK     1      18.235  -1.720  35.998  1.00  0.00     0.168 HD
BRANCH   5   7
HETATM    7  C6  UNK     1      19.279  -1.767  34.262  1.00  0.00     0.037 A 
HETATM    8  C10 UNK     1      18.701  -0.594  33.790  1.00  0.00     0.067 A 
HETATM    9  C3  UNK     1      18.981  -0.171  32.490  1.00  0.00     0.092 A 
HETATM   10  C1  UNK     1      19.825  -0.885  31.639  1.00  0.00     0.004 A 
HETATM   11  O1  UNK     1      18.365   1.025  32.070  1.00  0.00    -0.275 OA
HETATM   12  C9  UNK     1      20.398  -2.065  32.132  1.00  0.00     0.017 A 
HETATM   13  C4  UNK     1      20.064  -0.366  30.286  1.00  0.00    -0.043 A 
HETATM   14  C13 UNK     1      20.127  -2.502  33.434  1.00  0.00     0.030 A 
HETATM   15  C15 UNK     1      19.465   0.774  29.913  1.00  0.00     0.090 A 
HETATM   16  C16 UNK     1      20.967  -1.112  29.347  1.00  0.00     0.049 C 
HETATM   17  C18 UNK     1      18.572   1.539  30.799  1.00  0.00     0.288 A 
HETATM   18  O5  UNK     1      18.041   2.579  30.422  1.00  0.00    -0.260 OA
ENDBRANCH   5   7
ENDBRANCH   3   5
ENDBRANCH   1   3
BRANCH   1  19
HETATM   19  N2  UNK     1      18.992  -5.468  37.178  1.00  0.00    -0.268 N 
HETATM   20  C17 UNK     1      18.344  -6.664  36.937  1.00  0.00     0.240 C 
HETATM   21  O4  UNK     1      17.490  -6.850  36.072  1.00  0.00    -0.272 OA
HETATM   22  H14 UNK     1      19.690  -5.331  37.901  1.00  0.00     0.190 HD
BRANCH  20  23
HETATM   23  C5  UNK     1      18.758  -7.757  37.897  1.00  0.00     0.143 C 
BRANCH  23  24
HETATM   24  C2  UNK     1      20.012  -8.447  37.429  1.00  0.00    -0.047 A 
HETATM   25  C12 UNK     1      19.928  -9.658  36.742  1.00  0.00     0.010 A 
HETATM   26  C14 UNK     1      21.090 -10.297  36.308  1.00  0.00     0.040 A 
HETATM   27  C11 UNK     1      22.337  -9.725  36.563  1.00  0.00     0.102 A 
HETATM   28  C7  UNK     1      22.421  -8.514  37.250  1.00  0.00     0.102 A 
HETATM   29  C8  UNK     1      21.259  -7.875  37.683  1.00  0.00     0.047 A 
BRANCH  27  30
HETATM   30  O3  UNK     1      23.464 -10.359  36.134  1.00  0.00    -0.349 OA
BRANCH  30  31
HETATM   31  C21 UNK     1      23.319 -11.704  35.683  1.00  0.00     0.171 C 
HETATM   32  C23 UNK     1      24.616 -12.447  35.926  1.00  0.00     0.034 C 
ENDBRANCH  30  31
ENDBRANCH  27  30
BRANCH  28  33
HETATM   33  O2  UNK     1      23.633  -7.946  37.504  1.00  0.00    -0.349 OA
BRANCH  33  34
HETATM   34  C20 UNK     1      24.070  -7.932  38.862  1.00  0.00     0.171 C 
HETATM   35  C22 UNK     1      25.548  -8.256  38.908  1.00  0.00     0.034 C 
ENDBRANCH  33  34
ENDBRANCH  28  33
ENDBRANCH  23  24
ENDBRANCH  20  23
ENDBRANCH   1  19
TORSDOF 10
ENDMDL
MODEL 10
REMARK VINA RESULT:      -9.3      4.962     11.122
REMARK  10 active torsions:
REMARK  status: ('A' for Active; 'I' for Inactive)
REMARK    1  A    between atoms: C20_29  and  O2_3 
REMARK    2  A    between atoms: C7_16  and  O2_3 
REMARK    3  A    between atoms: C11_20  and  O3_4 
REMARK    4  A    between atoms: C21_30  and  O3_4 
REMARK    5  A    between atoms: C19_28  and  N1_7 
REMARK    6  A    between atoms: C6_15  and  N1_7 
REMARK       I    between atoms: C17_26  and  N2_8 
REMARK    7  A    between atoms: N2_8  and  N3_9 
REMARK    8  A    between atoms: C19_28  and  N3_9 
REMARK    9  A    between atoms: C2_11  and  C5_14 
REMARK   10  A    between atoms: C17_26  and  C5_14 
ROOT
HETATM    1  N3  UNK     1      18.688  -1.571  34.408  1.00  0.00    -0.274 N 
HETATM    2  H19 UNK     1      19.260  -1.907  33.640  1.00  0.00     0.189 HD
ENDROOT
BRANCH   1   3
HETATM    3  C19 UNK     1      17.780  -0.530  34.250  1.00  0.00     0.191 C 
HETATM    4  S1  UNK     1      16.432  -0.530  35.248  1.00  0.00    -0.039 SA
BRANCH   3   5
HETATM    5  N1  UNK     1      18.113   0.381  33.231  1.00  0.00    -0.332 N 
HETATM    6  H13 UNK     1      18.401  -0.076  32.368  1.00  0.00     0.168 HD
BRANCH   5   7
HETATM    7  C6  UNK     1      18.246   1.769  33.193  1.00  0.00     0.037 A 
HETATM    8  C10 UNK     1      18.404   2.422  31.975  1.00  0.00     0.067 A 
HETATM    9  C3  UNK     1      18.535   3.811  31.959  1.00  0.00     0.092 A 
HETATM   10  C1  UNK     1      18.513   4.575  33.126  1.00  0.00     0.004 A 
HETATM   11  O1  UNK     1      18.692   4.415  30.696  1.00  0.00    -0.275 OA
HETATM   12  C9  UNK     1      18.353   3.900  34.343  1.00  0.00     0.017 A 
HETATM   13  C4  UNK     1      18.658   6.033  33.016  1.00  0.00    -0.043 A 
HETATM   14  C13 UNK     1      18.220   2.506  34.375  1.00  0.00     0.030 A 
HETATM   15  C15 UNK     1      18.805   6.580  31.801  1.00  0.00     0.090 A 
HETATM   16  C16 UNK     1      18.638   6.883  34.253  1.00  0.00     0.049 C 
HETATM   17  C18 UNK     1      18.830   5.788  30.561  1.00  0.00     0.288 A 
HETATM   18  O5  UNK     1      18.967   6.324  29.466  1.00  0.00    -0.260 OA
ENDBRANCH   5   7
ENDBRANCH   3   5
ENDBRANCH   1   3
BRANCH   1  19
HETATM   19  N2  UNK     1      18.860  -2.203  35.617  1.00  0.00    -0.268 N 
HETATM   20  C17 UNK     1      20.143  -2.466  36.057  1.00  0.00     0.240 C 
HETATM   21  O4  UNK     1      21.176  -2.182  35.455  1.00  0.00    -0.272 OA
HETATM   22  H14 UNK     1      18.018  -2.452  36.124  1.00  0.00     0.190 HD
BRANCH  20  23
HETATM   23  C5  UNK     1      20.167  -3.207  37.377  1.00  0.00     0.143 C 
BRANCH  23  24
HETATM   24  C2  UNK     1      20.234  -4.696  37.164  1.00  0.00    -0.047 A 
HETATM   25  C12 UNK     1      19.163  -5.366  36.573  1.00  0.00     0.010 A 
HETATM   26  C14 UNK     1      19.226  -6.746  36.376  1.00  0.00     0.040 A 
HETATM   27  C11 UNK     1      20.361  -7.456  36.771  1.00  0.00     0.102 A 
HETATM   28  C7  UNK     1      21.432  -6.786  37.361  1.00  0.00     0.102 A 
HETATM   29  C8  UNK     1      21.369  -5.406  37.558  1.00  0.00     0.047 A 
BRANCH  27  30
HETATM   30  O3  UNK     1      20.410  -8.803  36.574  1.00  0.00    -0.349 OA
BRANCH  30  31
HETATM   31  C21 UNK     1      19.295  -9.566  37.030  1.00  0.00     0.171 C 
HETATM   32  C23 UNK     1      19.801 -10.745  37.833  1.00  0.00     0.034 C 
ENDBRANCH  30  31
ENDBRANCH  27  30
BRANCH  28  33
HETATM   33  O2  UNK     1      22.545  -7.468  37.751  1.00  0.00    -0.349 OA
BRANCH  33  34
HETATM   34  C20 UNK     1      23.015  -7.237  39.078  1.00  0.00     0.171 C 
HETATM   35  C22 UNK     1      22.344  -8.218  40.015  1.00  0.00     0.034 C 
ENDBRANCH  33  34
ENDBRANCH  28  33
ENDBRANCH  23  24
ENDBRANCH  20  23
ENDBRANCH   1  19
TORSDOF 10
ENDMDL
