MODEL 1
REMARK VINA RESULT:      -9.3      0.000      0.000
REMARK  5 active torsions:
REMARK  status: ('A' for Active; 'I' for Inactive)
REMARK    1  A    between atoms: C8_13  and  N1_4 
REMARK    2  A    between atoms: C11_16  and  N2_5 
REMARK    3  A    between atoms: C8_13  and  N2_5 
REMARK    4  A    between atoms: C1_6  and  C6_11 
REMARK    5  A    between atoms: C6_11  and  C7_12 
ROOT
HETATM    1  S1  UNK     1      19.057   7.980  33.799  1.00  0.00    -0.041 SA
HETATM    2  C8  UNK     1      18.055   6.749  33.257  1.00  0.00     0.174 C 
ENDROOT
BRANCH   2   3
HETATM    3  N1  UNK     1      18.588   5.656  32.656  1.00  0.00    -0.358 N 
HETATM    4  C4  UNK     1      18.381   4.316  33.190  1.00  0.00     0.125 C 
HETATM    5  C2  UNK     1      17.890   3.366  32.100  1.00  0.00     0.025 C 
HETATM    6  C1  UNK     1      18.814   3.401  30.871  1.00  0.00    -0.007 C 
HETATM    7  C3  UNK     1      18.976   4.845  30.368  1.00  0.00     0.025 C 
HETATM    8  C5  UNK     1      19.449   5.771  31.486  1.00  0.00     0.125 C 
BRANCH   6   9
HETATM    9  C6  UNK     1      18.279   2.497  29.763  1.00  0.00     0.043 C 
BRANCH   9  10
HETATM   10  C7  UNK     1      19.046   1.206  29.681  1.00  0.00    -0.058 A 
HETATM   11  C10 UNK     1      19.779   0.774  30.777  1.00  0.00     0.007 A 
HETATM   12  C13 UNK     1      20.490  -0.424  30.700  1.00  0.00     0.001 A 
HETATM   13  C14 UNK     1      20.462  -1.178  29.527  1.00  0.00     0.000 A 
HETATM   14  C12 UNK     1      19.723  -0.734  28.431  1.00  0.00     0.001 A 
HETATM   15  C9  UNK     1      19.012   0.464  28.507  1.00  0.00     0.007 A 
ENDBRANCH   9  10
ENDBRANCH   6   9
ENDBRANCH   2   3
BRANCH   2  16
HETATM   16  N2  UNK     1      16.704   6.818  33.476  1.00  0.00    -0.333 N 
HETATM   17  H14 UNK     1      16.236   5.918  33.558  1.00  0.00     0.168 HD
BRANCH  16  18
HETATM   18  C11 UNK     1      15.841   7.931  33.628  1.00  0.00     0.036 A 
HETATM   19  C15 UNK     1      15.888   8.670  34.793  1.00  0.00     0.067 A 
HETATM   20  C17 UNK     1      15.030   9.763  34.922  1.00  0.00     0.092 A 
HETATM   21  O1  UNK     1      15.112  10.491  36.125  1.00  0.00    -0.275 OA
HETATM   22  C18 UNK     1      14.131  10.128  33.918  1.00  0.00     0.004 A 
HETATM   23  C23 UNK     1      14.307  11.595  36.362  1.00  0.00     0.288 A 
HETATM   24  C21 UNK     1      13.363  11.967  35.294  1.00  0.00     0.090 A 
HETATM   25  O2  UNK     1      14.369  12.235  37.405  1.00  0.00    -0.260 OA
HETATM   26  C20 UNK     1      13.264  11.293  34.139  1.00  0.00    -0.043 A 
HETATM   27  C22 UNK     1      12.287  11.710  33.079  1.00  0.00     0.049 C 
HETATM   28  C19 UNK     1      14.111   9.353  32.750  1.00  0.00     0.017 A 
HETATM   29  C16 UNK     1      14.966   8.255  32.606  1.00  0.00     0.030 A 
ENDBRANCH  16  18
ENDBRANCH   2  16
TORSDOF 5
ENDMDL
MODEL 2
REMARK VINA RESULT:      -9.3      6.700      9.260
REMARK  5 active torsions:
REMARK  status: ('A' for Active; 'I' for Inactive)
REMARK    1  A    between atoms: C8_13  and  N1_4 
REMARK    2  A    between atoms: C11_16  and  N2_5 
REMARK    3  A    between atoms: C8_13  and  N2_5 
REMARK    4  A    between atoms: C1_6  and  C6_11 
REMARK    5  A    between atoms: C6_11  and  C7_12 
ROOT
HETATM    1  S1  UNK     1      15.909   0.130  35.458  1.00  0.00    -0.041 SA
HETATM    2  C8  UNK     1      17.528   0.424  35.789  1.00  0.00     0.174 C 
ENDROOT
BRANCH   2   3
HETATM    3  N1  UNK     1      18.317  -0.575  36.254  1.00  0.00    -0.358 N 
HETATM    4  C4  UNK     1      17.843  -1.515  37.262  1.00  0.00     0.125 C 
HETATM    5  C2  UNK     1      18.090  -2.956  36.823  1.00  0.00     0.025 C 
HETATM    6  C1  UNK     1      19.559  -3.174  36.425  1.00  0.00    -0.007 C 
HETATM    7  C3  UNK     1      19.979  -2.149  35.357  1.00  0.00     0.025 C 
HETATM    8  C5  UNK     1      19.701  -0.721  35.820  1.00  0.00     0.125 C 
BRANCH   6   9
HETATM    9  C6  UNK     1      19.781  -4.600  35.924  1.00  0.00     0.043 C 
BRANCH   9  10
HETATM   10  C7  UNK     1      19.835  -5.583  37.061  1.00  0.00    -0.058 A 
HETATM   11  C10 UNK     1      20.834  -5.471  38.018  1.00  0.00     0.007 A 
HETATM   12  C13 UNK     1      20.883  -6.382  39.072  1.00  0.00     0.001 A 
HETATM   13  C14 UNK     1      19.933  -7.400  39.159  1.00  0.00     0.000 A 
HETATM   14  C12 UNK     1      18.934  -7.505  38.193  1.00  0.00     0.001 A 
HETATM   15  C9  UNK     1      18.884  -6.593  37.138  1.00  0.00     0.007 A 
ENDBRANCH   9  10
ENDBRANCH   6   9
ENDBRANCH   2   3
BRANCH   2  16
HETATM   16  N2  UNK     1      18.067   1.657  35.530  1.00  0.00    -0.333 N 
HETATM   17  H14 UNK     1      18.443   2.140  36.343  1.00  0.00     0.168 HD
BRANCH  16  18
HETATM   18  C11 UNK     1      18.212   2.375  34.317  1.00  0.00     0.036 A 
HETATM   19  C15 UNK     1      18.223   1.688  33.121  1.00  0.00     0.067 A 
HETATM   20  C17 UNK     1      18.365   2.415  31.938  1.00  0.00     0.092 A 
HETATM   21  O1  UNK     1      18.370   1.675  30.738  1.00  0.00    -0.275 OA
HETATM   22  C18 UNK     1      18.497   3.804  31.928  1.00  0.00     0.004 A 
HETATM   23  C23 UNK     1      18.505   2.293  29.505  1.00  0.00     0.288 A 
HETATM   24  C21 UNK     1      18.644   3.759  29.511  1.00  0.00     0.090 A 
HETATM   25  O2  UNK     1      18.512   1.659  28.456  1.00  0.00    -0.260 OA
HETATM   26  C20 UNK     1      18.643   4.489  30.636  1.00  0.00    -0.043 A 
HETATM   27  C22 UNK     1      18.786   5.982  30.593  1.00  0.00     0.049 C 
HETATM   28  C19 UNK     1      18.482   4.468  33.163  1.00  0.00     0.017 A 
HETATM   29  C16 UNK     1      18.339   3.752  34.357  1.00  0.00     0.030 A 
ENDBRANCH  16  18
ENDBRANCH   2  16
TORSDOF 5
ENDMDL
MODEL 3
REMARK VINA RESULT:      -9.3      9.388     13.774
REMARK  5 active torsions:
REMARK  status: ('A' for Active; 'I' for Inactive)
REMARK    1  A    between atoms: C8_13  and  N1_4 
REMARK    2  A    between atoms: C11_16  and  N2_5 
REMARK    3  A    between atoms: C8_13  and  N2_5 
REMARK    4  A    between atoms: C1_6  and  C6_11 
REMARK    5  A    between atoms: C6_11  and  C7_12 
ROOT
HETATM    1  S1  UNK     1      18.219  -1.693  37.788  1.00  0.00    -0.041 SA
HETATM    2  C8  UNK     1      18.755  -2.602  36.483  1.00  0.00     0.174 C 
ENDROOT
BRANCH   2   3
HETATM    3  N1  UNK     1      19.376  -1.994  35.444  1.00  0.00    -0.358 N 
HETATM    4  C4  UNK     1      20.799  -2.182  35.190  1.00  0.00     0.125 C 
HETATM    5  C2  UNK     1      21.046  -2.570  33.734  1.00  0.00     0.025 C 
HETATM    6  C1  UNK     1      20.378  -1.576  32.770  1.00  0.00    -0.007 C 
HETATM    7  C3  UNK     1      18.882  -1.438  33.101  1.00  0.00     0.025 C 
HETATM    8  C5  UNK     1      18.671  -1.068  34.567  1.00  0.00     0.125 C 
BRANCH   6   9
HETATM    9  C6  UNK     1      20.575  -2.010  31.319  1.00  0.00     0.043 C 
BRANCH   9  10
HETATM   10  C7  UNK     1      20.008  -1.002  30.358  1.00  0.00    -0.058 A 
HETATM   11  C10 UNK     1      19.826  -1.352  29.027  1.00  0.00     0.007 A 
HETATM   12  C13 UNK     1      19.299  -0.417  28.136  1.00  0.00     0.001 A 
HETATM   13  C14 UNK     1      18.960   0.860  28.584  1.00  0.00     0.000 A 
HETATM   14  C12 UNK     1      19.148   1.201  29.922  1.00  0.00     0.001 A 
HETATM   15  C9  UNK     1      19.674   0.266  30.814  1.00  0.00     0.007 A 
ENDBRANCH   9  10
ENDBRANCH   6   9
ENDBRANCH   2   3
BRANCH   2  16
HETATM   16  N2  UNK     1      18.619  -3.965  36.497  1.00  0.00    -0.333 N 
HETATM   17  H14 UNK     1      17.682  -4.305  36.293  1.00  0.00     0.168 HD
BRANCH  16  18
HETATM   18  C11 UNK     1      19.566  -4.994  36.727  1.00  0.00     0.036 A 
HETATM   19  C15 UNK     1      19.645  -6.051  35.844  1.00  0.00     0.067 A 
HETATM   20  C17 UNK     1      20.585  -7.053  36.088  1.00  0.00     0.092 A 
HETATM   21  O1  UNK     1      20.633  -8.114  35.162  1.00  0.00    -0.275 OA
HETATM   22  C18 UNK     1      21.441  -7.020  37.190  1.00  0.00     0.004 A 
HETATM   23  C23 UNK     1      21.528  -9.163  35.306  1.00  0.00     0.288 A 
HETATM   24  C21 UNK     1      22.423  -9.113  36.474  1.00  0.00     0.090 A 
HETATM   25  O2  UNK     1      21.577 -10.091  34.506  1.00  0.00    -0.260 OA
HETATM   26  C20 UNK     1      22.400  -8.117  37.371  1.00  0.00    -0.043 A 
HETATM   27  C22 UNK     1      23.334  -8.109  38.546  1.00  0.00     0.049 C 
HETATM   28  C19 UNK     1      21.331  -5.930  38.066  1.00  0.00     0.017 A 
HETATM   29  C16 UNK     1      20.394  -4.918  37.833  1.00  0.00     0.030 A 
ENDBRANCH  16  18
ENDBRANCH   2  16
TORSDOF 5
ENDMDL
MODEL 4
REMARK VINA RESULT:      -9.1      3.666     10.536
REMARK  5 active torsions:
REMARK  status: ('A' for Active; 'I' for Inactive)
REMARK    1  A    between atoms: C8_13  and  N1_4 
REMARK    2  A    between atoms: C11_16  and  N2_5 
REMARK    3  A    between atoms: C8_13  and  N2_5 
REMARK    4  A    between atoms: C1_6  and  C6_11 
REMARK    5  A    between atoms: C6_11  and  C7_12 
ROOT
HETATM    1  S1  UNK     1      20.135   5.799  31.185  1.00  0.00    -0.041 SA
HETATM    2  C8  UNK     1      18.542   5.664  31.697  1.00  0.00     0.174 C 
ENDROOT
BRANCH   2   3
HETATM    3  N1  UNK     1      17.875   6.760  32.132  1.00  0.00    -0.358 N 
HETATM    4  C4  UNK     1      16.971   7.499  31.259  1.00  0.00     0.125 C 
HETATM    5  C2  UNK     1      15.617   7.713  31.932  1.00  0.00     0.025 C 
HETATM    6  C1  UNK     1      15.780   8.347  33.323  1.00  0.00    -0.007 C 
HETATM    7  C3  UNK     1      16.741   7.507  34.181  1.00  0.00     0.025 C 
HETATM    8  C5  UNK     1      18.077   7.297  33.472  1.00  0.00     0.125 C 
BRANCH   6   9
HETATM    9  C6  UNK     1      14.426   8.495  34.014  1.00  0.00     0.043 C 
BRANCH   9  10
HETATM   10  C7  UNK     1      14.103   9.937  34.296  1.00  0.00    -0.058 A 
HETATM   11  C10 UNK     1      14.468  10.496  35.512  1.00  0.00     0.007 A 
HETATM   12  C13 UNK     1      14.169  11.833  35.772  1.00  0.00     0.001 A 
HETATM   13  C14 UNK     1      13.506  12.599  34.813  1.00  0.00     0.000 A 
HETATM   14  C12 UNK     1      13.143  12.028  33.595  1.00  0.00     0.001 A 
HETATM   15  C9  UNK     1      13.443  10.691  33.334  1.00  0.00     0.007 A 
ENDBRANCH   9  10
ENDBRANCH   6   9
ENDBRANCH   2   3
BRANCH   2  16
HETATM   16  N2  UNK     1      17.898   4.457  31.618  1.00  0.00    -0.333 N 
HETATM   17  H14 UNK     1      16.912   4.480  31.870  1.00  0.00     0.168 HD
BRANCH  16  18
HETATM   18  C11 UNK     1      18.360   3.177  31.226  1.00  0.00     0.036 A 
HETATM   19  C15 UNK     1      18.537   2.198  32.183  1.00  0.00     0.067 A 
HETATM   20  C17 UNK     1      18.993   0.944  31.774  1.00  0.00     0.092 A 
HETATM   21  O1  UNK     1      19.159  -0.027  32.782  1.00  0.00    -0.275 OA
HETATM   22  C18 UNK     1      19.274   0.651  30.439  1.00  0.00     0.004 A 
HETATM   23  C23 UNK     1      19.606  -1.306  32.491  1.00  0.00     0.288 A 
HETATM   24  C21 UNK     1      19.899  -1.599  31.078  1.00  0.00     0.090 A 
HETATM   25  O2  UNK     1      19.755  -2.157  33.361  1.00  0.00    -0.260 OA
HETATM   26  C20 UNK     1      19.750  -0.696  30.098  1.00  0.00    -0.043 A 
HETATM   27  C22 UNK     1      20.061  -1.042  28.671  1.00  0.00     0.049 C 
HETATM   28  C19 UNK     1      19.083   1.671  29.495  1.00  0.00     0.017 A 
HETATM   29  C16 UNK     1      18.626   2.933  29.890  1.00  0.00     0.030 A 
ENDBRANCH  16  18
ENDBRANCH   2  16
TORSDOF 5
ENDMDL
MODEL 5
REMARK VINA RESULT:      -9.1      8.504     13.122
REMARK  5 active torsions:
REMARK  status: ('A' for Active; 'I' for Inactive)
REMARK    1  A    between atoms: C8_13  and  N1_4 
REMARK    2  A    between atoms: C11_16  and  N2_5 
REMARK    3  A    between atoms: C8_13  and  N2_5 
REMARK    4  A    between atoms: C1_6  and  C6_11 
REMARK    5  A    between atoms: C6_11  and  C7_12 
ROOT
HETATM    1  S1  UNK     1      18.601  -0.921  36.516  1.00  0.00    -0.041 SA
HETATM    2  C8  UNK     1      19.562  -2.007  35.672  1.00  0.00     0.174 C 
ENDROOT
BRANCH   2   3
HETATM    3  N1  UNK     1      19.528  -2.031  34.317  1.00  0.00    -0.358 N 
HETATM    4  C4  UNK     1      18.479  -1.351  33.569  1.00  0.00     0.125 C 
HETATM    5  C2  UNK     1      19.075  -0.459  32.482  1.00  0.00     0.025 C 
HETATM    6  C1  UNK     1      20.053  -1.244  31.592  1.00  0.00    -0.007 C 
HETATM    7  C3  UNK     1      21.129  -1.926  32.455  1.00  0.00     0.025 C 
HETATM    8  C5  UNK     1      20.498  -2.793  33.542  1.00  0.00     0.125 C 
BRANCH   6   9
HETATM    9  C6  UNK     1      20.694  -0.328  30.551  1.00  0.00     0.043 C 
BRANCH   9  10
HETATM   10  C7  UNK     1      19.672   0.551  29.883  1.00  0.00    -0.058 A 
HETATM   11  C10 UNK     1      19.333   1.768  30.459  1.00  0.00     0.007 A 
HETATM   12  C13 UNK     1      18.387   2.583  29.839  1.00  0.00     0.001 A 
HETATM   13  C14 UNK     1      17.787   2.173  28.648  1.00  0.00     0.000 A 
HETATM   14  C12 UNK     1      18.134   0.949  28.078  1.00  0.00     0.001 A 
HETATM   15  C9  UNK     1      19.081   0.134  28.697  1.00  0.00     0.007 A 
ENDBRANCH   9  10
ENDBRANCH   6   9
ENDBRANCH   2   3
BRANCH   2  16
HETATM   16  N2  UNK     1      20.427  -2.827  36.349  1.00  0.00    -0.333 N 
HETATM   17  H14 UNK     1      21.337  -2.418  36.551  1.00  0.00     0.168 HD
BRANCH  16  18
HETATM   18  C11 UNK     1      20.269  -4.147  36.838  1.00  0.00     0.036 A 
HETATM   19  C15 UNK     1      21.208  -4.663  37.708  1.00  0.00     0.067 A 
HETATM   20  C17 UNK     1      21.033  -5.966  38.179  1.00  0.00     0.092 A 
HETATM   21  O1  UNK     1      22.013  -6.453  39.066  1.00  0.00    -0.275 OA
HETATM   22  C18 UNK     1      19.947  -6.756  37.800  1.00  0.00     0.004 A 
HETATM   23  C23 UNK     1      21.941  -7.733  39.596  1.00  0.00     0.288 A 
HETATM   24  C21 UNK     1      20.790  -8.554  39.185  1.00  0.00     0.090 A 
HETATM   25  O2  UNK     1      22.789  -8.167  40.367  1.00  0.00    -0.260 OA
HETATM   26  C20 UNK     1      19.842  -8.116  38.344  1.00  0.00    -0.043 A 
HETATM   27  C22 UNK     1      18.686  -8.991  37.955  1.00  0.00     0.049 C 
HETATM   28  C19 UNK     1      19.014  -6.198  36.914  1.00  0.00     0.017 A 
HETATM   29  C16 UNK     1      19.176  -4.894  36.435  1.00  0.00     0.030 A 
ENDBRANCH  16  18
ENDBRANCH   2  16
TORSDOF 5
ENDMDL
MODEL 6
REMARK VINA RESULT:      -9.1      5.967      8.293
REMARK  5 active torsions:
REMARK  status: ('A' for Active; 'I' for Inactive)
REMARK    1  A    between atoms: C8_13  and  N1_4 
REMARK    2  A    between atoms: C11_16  and  N2_5 
REMARK    3  A    between atoms: C8_13  and  N2_5 
REMARK    4  A    between atoms: C1_6  and  C6_11 
REMARK    5  A    between atoms: C6_11  and  C7_12 
ROOT
HETATM    1  S1  UNK     1      18.640   1.605  36.389  1.00  0.00    -0.041 SA
HETATM    2  C8  UNK     1      18.341   0.532  35.134  1.00  0.00     0.174 C 
ENDROOT
BRANCH   2   3
HETATM    3  N1  UNK     1      18.509  -0.799  35.327  1.00  0.00    -0.358 N 
HETATM    4  C4  UNK     1      19.368  -1.594  34.459  1.00  0.00     0.125 C 
HETATM    5  C2  UNK     1      20.351  -2.426  35.279  1.00  0.00     0.025 C 
HETATM    6  C1  UNK     1      19.622  -3.258  36.348  1.00  0.00    -0.007 C 
HETATM    7  C3  UNK     1      18.742  -2.348  37.222  1.00  0.00     0.025 C 
HETATM    8  C5  UNK     1      17.786  -1.517  36.370  1.00  0.00     0.125 C 
BRANCH   6   9
HETATM    9  C6  UNK     1      20.619  -4.035  37.205  1.00  0.00     0.043 C 
BRANCH   9  10
HETATM   10  C7  UNK     1      20.084  -5.388  37.587  1.00  0.00    -0.058 A 
HETATM   11  C10 UNK     1      20.559  -6.015  38.730  1.00  0.00     0.007 A 
HETATM   12  C13 UNK     1      20.061  -7.269  39.085  1.00  0.00     0.001 A 
HETATM   13  C14 UNK     1      19.095  -7.886  38.290  1.00  0.00     0.000 A 
HETATM   14  C12 UNK     1      18.625  -7.248  37.143  1.00  0.00     0.001 A 
HETATM   15  C9  UNK     1      19.121  -5.993  36.789  1.00  0.00     0.007 A 
ENDBRANCH   9  10
ENDBRANCH   6   9
ENDBRANCH   2   3
BRANCH   2  16
HETATM   16  N2  UNK     1      17.869   0.995  33.934  1.00  0.00    -0.333 N 
HETATM   17  H14 UNK     1      17.235   0.363  33.450  1.00  0.00     0.168 HD
BRANCH  16  18
HETATM   18  C11 UNK     1      18.095   2.216  33.252  1.00  0.00     0.036 A 
HETATM   19  C15 UNK     1      18.049   3.403  33.956  1.00  0.00     0.067 A 
HETATM   20  C17 UNK     1      18.275   4.594  33.265  1.00  0.00     0.092 A 
HETATM   21  O1  UNK     1      18.220   5.782  34.020  1.00  0.00    -0.275 OA
HETATM   22  C18 UNK     1      18.544   4.623  31.896  1.00  0.00     0.004 A 
HETATM   23  C23 UNK     1      18.429   7.023  33.438  1.00  0.00     0.288 A 
HETATM   24  C21 UNK     1      18.710   7.036  31.993  1.00  0.00     0.090 A 
HETATM   25  O2  UNK     1      18.382   8.062  34.086  1.00  0.00    -0.260 OA
HETATM   26  C20 UNK     1      18.770   5.922  31.249  1.00  0.00    -0.043 A 
HETATM   27  C22 UNK     1      19.061   5.986  29.778  1.00  0.00     0.049 C 
HETATM   28  C19 UNK     1      18.582   3.397  31.215  1.00  0.00     0.017 A 
HETATM   29  C16 UNK     1      18.358   2.195  31.894  1.00  0.00     0.030 A 
ENDBRANCH  16  18
ENDBRANCH   2  16
TORSDOF 5
ENDMDL
MODEL 7
REMARK VINA RESULT:      -9.1     17.554     19.094
REMARK  5 active torsions:
REMARK  status: ('A' for Active; 'I' for Inactive)
REMARK    1  A    between atoms: C8_13  and  N1_4 
REMARK    2  A    between atoms: C11_16  and  N2_5 
REMARK    3  A    between atoms: C8_13  and  N2_5 
REMARK    4  A    between atoms: C1_6  and  C6_11 
REMARK    5  A    between atoms: C6_11  and  C7_12 
ROOT
HETATM    1  S1  UNK     1      27.205  -9.606  39.435  1.00  0.00    -0.041 SA
HETATM    2  C8  UNK     1      26.931  -8.019  38.962  1.00  0.00     0.174 C 
ENDROOT
BRANCH   2   3
HETATM    3  N1  UNK     1      27.925  -7.304  38.381  1.00  0.00    -0.358 N 
HETATM    4  C4  UNK     1      27.933  -5.847  38.409  1.00  0.00     0.125 C 
HETATM    5  C2  UNK     1      29.278  -5.318  38.900  1.00  0.00     0.025 C 
HETATM    6  C1  UNK     1      30.442  -5.922  38.097  1.00  0.00    -0.007 C 
HETATM    7  C3  UNK     1      30.364  -7.458  38.121  1.00  0.00     0.025 C 
HETATM    8  C5  UNK     1      29.001  -7.951  37.642  1.00  0.00     0.125 C 
BRANCH   6   9
HETATM    9  C6  UNK     1      31.785  -5.438  38.639  1.00  0.00     0.043 C 
BRANCH   9  10
HETATM   10  C7  UNK     1      32.797  -5.267  37.540  1.00  0.00    -0.058 A 
HETATM   11  C10 UNK     1      32.518  -4.420  36.476  1.00  0.00     0.007 A 
HETATM   12  C13 UNK     1      33.458  -4.262  35.458  1.00  0.00     0.001 A 
HETATM   13  C14 UNK     1      34.668  -4.953  35.512  1.00  0.00     0.000 A 
HETATM   14  C12 UNK     1      34.939  -5.802  36.584  1.00  0.00     0.001 A 
HETATM   15  C9  UNK     1      33.999  -5.960  37.604  1.00  0.00     0.007 A 
ENDBRANCH   9  10
ENDBRANCH   6   9
ENDBRANCH   2   3
BRANCH   2  16
HETATM   16  N2  UNK     1      25.685  -7.467  39.106  1.00  0.00    -0.333 N 
HETATM   17  H14 UNK     1      25.668  -6.562  39.570  1.00  0.00     0.168 HD
BRANCH  16  18
HETATM   18  C11 UNK     1      24.408  -7.930  38.701  1.00  0.00     0.036 A 
HETATM   19  C15 UNK     1      24.276  -8.582  37.492  1.00  0.00     0.067 A 
HETATM   20  C17 UNK     1      23.009  -9.030  37.114  1.00  0.00     0.092 A 
HETATM   21  O1  UNK     1      22.919  -9.691  35.873  1.00  0.00    -0.275 OA
HETATM   22  C18 UNK     1      21.882  -8.840  37.913  1.00  0.00     0.004 A 
HETATM   23  C23 UNK     1      21.711 -10.179  35.397  1.00  0.00     0.288 A 
HETATM   24  C21 UNK     1      20.530  -9.969  36.252  1.00  0.00     0.090 A 
HETATM   25  O2  UNK     1      21.621 -10.754  34.319  1.00  0.00    -0.260 OA
HETATM   26  C20 UNK     1      20.587  -9.344  37.436  1.00  0.00    -0.043 A 
HETATM   27  C22 UNK     1      19.356  -9.155  38.273  1.00  0.00     0.049 C 
HETATM   28  C19 UNK     1      22.055  -8.173  39.135  1.00  0.00     0.017 A 
HETATM   29  C16 UNK     1      23.318  -7.718  39.527  1.00  0.00     0.030 A 
ENDBRANCH  16  18
ENDBRANCH   2  16
TORSDOF 5
ENDMDL
MODEL 8
REMARK VINA RESULT:      -8.9     17.667     19.408
REMARK  5 active torsions:
REMARK  status: ('A' for Active; 'I' for Inactive)
REMARK    1  A    between atoms: C8_13  and  N1_4 
REMARK    2  A    between atoms: C11_16  and  N2_5 
REMARK    3  A    between atoms: C8_13  and  N2_5 
REMARK    4  A    between atoms: C1_6  and  C6_11 
REMARK    5  A    between atoms: C6_11  and  C7_12 
ROOT
HETATM    1  S1  UNK     1      34.400  -4.102  34.951  1.00  0.00    -0.041 SA
HETATM    2  C8  UNK     1      33.131  -5.147  35.287  1.00  0.00     0.174 C 
ENDROOT
BRANCH   2   3
HETATM    3  N1  UNK     1      32.496  -5.788  34.275  1.00  0.00    -0.358 N 
HETATM    4  C4  UNK     1      33.008  -7.035  33.721  1.00  0.00     0.125 C 
HETATM    5  C2  UNK     1      31.914  -8.097  33.667  1.00  0.00     0.025 C 
HETATM    6  C1  UNK     1      30.662  -7.574  32.943  1.00  0.00    -0.007 C 
HETATM    7  C3  UNK     1      30.183  -6.263  33.590  1.00  0.00     0.025 C 
HETATM    8  C5  UNK     1      31.306  -5.230  33.645  1.00  0.00     0.125 C 
BRANCH   6   9
HETATM    9  C6  UNK     1      29.551  -8.621  32.954  1.00  0.00     0.043 C 
BRANCH   9  10
HETATM   10  C7  UNK     1      29.085  -8.948  31.561  1.00  0.00    -0.058 A 
HETATM   11  C10 UNK     1      27.911  -8.384  31.081  1.00  0.00     0.007 A 
HETATM   12  C13 UNK     1      27.480  -8.686  29.790  1.00  0.00     0.001 A 
HETATM   13  C14 UNK     1      28.227  -9.552  28.990  1.00  0.00     0.000 A 
HETATM   14  C12 UNK     1      29.404 -10.113  29.482  1.00  0.00     0.001 A 
HETATM   15  C9  UNK     1      29.836  -9.810  30.773  1.00  0.00     0.007 A 
ENDBRANCH   9  10
ENDBRANCH   6   9
ENDBRANCH   2   3
BRANCH   2  16
HETATM   16  N2  UNK     1      32.777  -5.400  36.586  1.00  0.00    -0.333 N 
HETATM   17  H14 UNK     1      33.427  -5.046  37.284  1.00  0.00     0.168 HD
BRANCH  16  18
HETATM   18  C11 UNK     1      31.646  -6.055  37.134  1.00  0.00     0.036 A 
HETATM   19  C15 UNK     1      30.489  -5.336  37.357  1.00  0.00     0.067 A 
HETATM   20  C17 UNK     1      29.387  -6.001  37.896  1.00  0.00     0.092 A 
HETATM   21  O1  UNK     1      28.226  -5.230  38.107  1.00  0.00    -0.275 OA
HETATM   22  C18 UNK     1      29.418  -7.359  38.215  1.00  0.00     0.004 A 
HETATM   23  C23 UNK     1      27.072  -5.787  38.637  1.00  0.00     0.288 A 
HETATM   24  C21 UNK     1      27.122  -7.221  38.969  1.00  0.00     0.090 A 
HETATM   25  O2  UNK     1      26.058  -5.125  38.826  1.00  0.00    -0.260 OA
HETATM   26  C20 UNK     1      28.212  -7.978  38.779  1.00  0.00    -0.043 A 
HETATM   27  C22 UNK     1      28.213  -9.437  39.132  1.00  0.00     0.049 C 
HETATM   28  C19 UNK     1      30.611  -8.056  37.974  1.00  0.00     0.017 A 
HETATM   29  C16 UNK     1      31.724  -7.403  37.434  1.00  0.00     0.030 A 
ENDBRANCH  16  18
ENDBRANCH   2  16
TORSDOF 5
ENDMDL
MODEL 9
REMARK VINA RESULT:      -8.8     16.784     19.059
REMARK  5 active torsions:
REMARK  status: ('A' for Active; 'I' for Inactive)
REMARK    1  A    between atoms: C8_13  and  N1_4 
REMARK    2  A    between atoms: C11_16  and  N2_5 
REMARK    3  A    between atoms: C8_13  and  N2_5 
REMARK    4  A    between atoms: C1_6  and  C6_11 
REMARK    5  A    between atoms: C6_11  and  C7_12 
ROOT
HETATM    1  S1  UNK     1      27.883  -9.784  39.772  1.00  0.00    -0.041 SA
HETATM    2  C8  UNK     1      27.449  -8.318  39.078  1.00  0.00     0.174 C 
ENDROOT
BRANCH   2   3
HETATM    3  N1  UNK     1      28.381  -7.570  38.439  1.00  0.00    -0.358 N 
HETATM    4  C4  UNK     1      28.301  -6.115  38.408  1.00  0.00     0.125 C 
HETATM    5  C2  UNK     1      29.625  -5.487  38.836  1.00  0.00     0.025 C 
HETATM    6  C1  UNK     1      30.800  -6.053  38.021  1.00  0.00    -0.007 C 
HETATM    7  C3  UNK     1      30.817  -7.589  38.109  1.00  0.00     0.025 C 
HETATM    8  C5  UNK     1      29.473  -8.182  37.693  1.00  0.00     0.125 C 
BRANCH   6   9
HETATM    9  C6  UNK     1      32.126  -5.468  38.502  1.00  0.00     0.043 C 
BRANCH   9  10
HETATM   10  C7  UNK     1      33.090  -5.271  37.364  1.00  0.00    -0.058 A 
HETATM   11  C10 UNK     1      34.312  -5.928  37.380  1.00  0.00     0.007 A 
HETATM   12  C13 UNK     1      35.204  -5.746  36.323  1.00  0.00     0.001 A 
HETATM   13  C14 UNK     1      34.867  -4.908  35.261  1.00  0.00     0.000 A 
HETATM   14  C12 UNK     1      33.636  -4.252  35.255  1.00  0.00     0.001 A 
HETATM   15  C9  UNK     1      32.743  -4.434  36.311  1.00  0.00     0.007 A 
ENDBRANCH   9  10
ENDBRANCH   6   9
ENDBRANCH   2   3
BRANCH   2  16
HETATM   16  N2  UNK     1      26.142  -7.909  39.104  1.00  0.00    -0.333 N 
HETATM   17  H14 UNK     1      25.939  -7.162  39.766  1.00  0.00     0.168 HD
BRANCH  16  18
HETATM   18  C11 UNK     1      25.018  -8.330  38.352  1.00  0.00     0.036 A 
HETATM   19  C15 UNK     1      23.761  -7.880  38.702  1.00  0.00     0.067 A 
HETATM   20  C17 UNK     1      22.668  -8.307  37.947  1.00  0.00     0.092 A 
HETATM   21  O1  UNK     1      21.403  -7.824  38.338  1.00  0.00    -0.275 OA
HETATM   22  C18 UNK     1      22.804  -9.169  36.858  1.00  0.00     0.004 A 
HETATM   23  C23 UNK     1      20.248  -8.182  37.660  1.00  0.00     0.288 A 
HETATM   24  C21 UNK     1      20.409  -9.092  36.514  1.00  0.00     0.090 A 
HETATM   25  O2  UNK     1      19.143  -7.768  37.993  1.00  0.00    -0.260 OA
HETATM   26  C20 UNK     1      21.599  -9.568  36.120  1.00  0.00    -0.043 A 
HETATM   27  C22 UNK     1      21.713 -10.493  34.944  1.00  0.00     0.049 C 
HETATM   28  C19 UNK     1      24.097  -9.606  36.532  1.00  0.00     0.017 A 
HETATM   29  C16 UNK     1      25.202  -9.185  37.279  1.00  0.00     0.030 A 
ENDBRANCH  16  18
ENDBRANCH   2  16
TORSDOF 5
ENDMDL
MODEL 10
REMARK VINA RESULT:      -8.8     18.632     20.606
REMARK  5 active torsions:
REMARK  status: ('A' for Active; 'I' for Inactive)
REMARK    1  A    between atoms: C8_13  and  N1_4 
REMARK    2  A    between atoms: C11_16  and  N2_5 
REMARK    3  A    between atoms: C8_13  and  N2_5 
REMARK    4  A    between atoms: C1_6  and  C6_11 
REMARK    5  A    between atoms: C6_11  and  C7_12 
ROOT
HETATM    1  S1  UNK     1      35.853  -6.659  34.923  1.00  0.00    -0.041 SA
HETATM    2  C8  UNK     1      34.441  -7.511  35.233  1.00  0.00     0.174 C 
ENDROOT
BRANCH   2   3
HETATM    3  N1  UNK     1      33.742  -8.058  34.209  1.00  0.00    -0.358 N 
HETATM    4  C4  UNK     1      33.884  -9.464  33.853  1.00  0.00     0.125 C 
HETATM    5  C2  UNK     1      32.520 -10.141  33.750  1.00  0.00     0.025 C 
HETATM    6  C1  UNK     1      31.581  -9.364  32.812  1.00  0.00    -0.007 C 
HETATM    7  C3  UNK     1      31.481  -7.895  33.257  1.00  0.00     0.025 C 
HETATM    8  C5  UNK     1      32.862  -7.255  33.368  1.00  0.00     0.125 C 
BRANCH   6   9
HETATM    9  C6  UNK     1      30.199 -10.013  32.768  1.00  0.00     0.043 C 
BRANCH   9  10
HETATM   10  C7  UNK     1      29.525  -9.792  31.441  1.00  0.00    -0.058 A 
HETATM   11  C10 UNK     1      28.425  -8.949  31.363  1.00  0.00     0.007 A 
HETATM   12  C13 UNK     1      27.802  -8.743  30.133  1.00  0.00     0.001 A 
HETATM   13  C14 UNK     1      28.284  -9.384  28.991  1.00  0.00     0.000 A 
HETATM   14  C12 UNK     1      29.389 -10.229  29.080  1.00  0.00     0.001 A 
HETATM   15  C9  UNK     1      30.014 -10.434  30.311  1.00  0.00     0.007 A 
ENDBRANCH   9  10
ENDBRANCH   6   9
ENDBRANCH   2   3
BRANCH   2  16
HETATM   16  N2  UNK     1      34.028  -7.706  36.525  1.00  0.00    -0.333 N 
HETATM   17  H14 UNK     1      34.773  -7.913  37.187  1.00  0.00     0.168 HD
BRANCH  16  18
HETATM   18  C11 UNK     1      32.739  -7.650  37.110  1.00  0.00     0.036 A 
HETATM   19  C15 UNK     1      32.238  -6.436  37.531  1.00  0.00     0.067 A 
HETATM   20  C17 UNK     1      30.965  -6.404  38.103  1.00  0.00     0.092 A 
HETATM   21  O1  UNK     1      30.491  -5.143  38.518  1.00  0.00    -0.275 OA
HETATM   22  C18 UNK     1      30.191  -7.553  38.263  1.00  0.00     0.004 A 
HETATM   23  C23 UNK     1      29.241  -4.993  39.099  1.00  0.00     0.288 A 
HETATM   24  C21 UNK     1      28.437  -6.216  39.262  1.00  0.00     0.090 A 
HETATM   25  O2  UNK     1      28.820  -3.902  39.465  1.00  0.00    -0.260 OA
HETATM   26  C20 UNK     1      28.862  -7.428  38.876  1.00  0.00    -0.043 A 
HETATM   27  C22 UNK     1      28.005  -8.646  39.062  1.00  0.00     0.049 C 
HETATM   28  C19 UNK     1      30.733  -8.770  37.824  1.00  0.00     0.017 A 
HETATM   29  C16 UNK     1      32.007  -8.817  37.248  1.00  0.00     0.030 A 
ENDBRANCH  16  18
ENDBRANCH   2  16
TORSDOF 5
ENDMDL
