MODEL 1
REMARK VINA RESULT:      -8.9      0.000      0.000
REMARK  6 active torsions:
REMARK  status: ('A' for Active; 'I' for Inactive)
REMARK    1  A    between atoms: C3_10  and  N1_6 
REMARK       I    between atoms: C7_14  and  N1_6 
REMARK    2  A    between atoms: C15_22  and  N2_7 
REMARK    3  A    between atoms: C1_8  and  C2_9 
REMARK    4  A    between atoms: C1_8  and  C3_10 
REMARK    5  A    between atoms: C2_9  and  C4_11 
REMARK    6  A    between atoms: C5_12  and  C7_14 
ROOT
HETATM    1  O1  UNK     1      20.769  -2.788  30.585  1.00  0.00    -0.274 OA
HETATM    2  O3  UNK     1      21.481  -4.257  32.184  1.00  0.00    -0.259 OA
HETATM    3  C5  UNK     1      20.599  -2.197  32.952  1.00  0.00     0.108 A 
HETATM    4  C6  UNK     1      19.845  -0.642  31.255  1.00  0.00     0.001 A 
HETATM    5  C8  UNK     1      20.062  -1.010  32.645  1.00  0.00     0.037 A 
HETATM    6  C9  UNK     1      20.204  -1.541  30.256  1.00  0.00     0.089 A 
HETATM    7  C12 UNK     1      19.289   0.587  30.888  1.00  0.00     0.050 A 
HETATM    8  C13 UNK     1      20.988  -3.169  31.907  1.00  0.00     0.304 A 
HETATM    9  C14 UNK     1      20.023  -1.249  28.905  1.00  0.00     0.041 A 
HETATM   10  C15 UNK     1      19.101   0.894  29.537  1.00  0.00     0.103 A 
HETATM   11  C16 UNK     1      19.467  -0.022  28.549  1.00  0.00     0.039 A 
ENDROOT
BRANCH   3  12
HETATM   12  C7  UNK     1      20.777  -2.478  34.382  1.00  0.00     0.257 C 
HETATM   13  O2  UNK     1      21.707  -1.978  35.012  1.00  0.00    -0.267 OA
HETATM   14  N1  UNK     1      19.815  -3.334  34.886  1.00  0.00    -0.357 N 
HETATM   15  H7  UNK     1      19.071  -3.678  34.286  1.00  0.00     0.162 HD
BRANCH  14  16
HETATM   16  C3  UNK     1      19.784  -3.759  36.268  1.00  0.00     0.123 C 
BRANCH  16  17
HETATM   17  C1  UNK     1      19.374  -2.636  37.219  1.00  0.00     0.024 C 
BRANCH  17  18
HETATM   18  C2  UNK     1      17.933  -2.143  37.036  1.00  0.00     0.040 C 
BRANCH  18  19
HETATM   19  C4  UNK     1      17.808  -0.945  36.129  1.00  0.00    -0.058 A 
HETATM   20  C10 UNK     1      16.718  -0.847  35.277  1.00  0.00     0.007 A 
HETATM   21  C17 UNK     1      16.602   0.262  34.439  1.00  0.00     0.001 A 
HETATM   22  C19 UNK     1      17.576   1.260  34.463  1.00  0.00     0.000 A 
HETATM   23  C18 UNK     1      18.668   1.149  35.324  1.00  0.00     0.001 A 
HETATM   24  C11 UNK     1      18.784   0.040  36.162  1.00  0.00     0.007 A 
ENDBRANCH  18  19
ENDBRANCH  17  18
ENDBRANCH  16  17
ENDBRANCH  14  16
ENDBRANCH   3  12
BRANCH  10  25
HETATM   25  N2  UNK     1      18.534   2.142  29.169  1.00  0.00    -0.116 N 
HETATM   26  O4  UNK     1      18.656   3.119  29.948  1.00  0.00    -0.532 OA
HETATM   27  O5  UNK     1      17.926   2.235  28.076  1.00  0.00    -0.532 OA
ENDBRANCH  10  25
TORSDOF 6
ENDMDL
MODEL 2
REMARK VINA RESULT:      -8.7      4.012      6.991
REMARK  6 active torsions:
REMARK  status: ('A' for Active; 'I' for Inactive)
REMARK    1  A    between atoms: C3_10  and  N1_6 
REMARK       I    between atoms: C7_14  and  N1_6 
REMARK    2  A    between atoms: C15_22  and  N2_7 
REMARK    3  A    between atoms: C1_8  and  C2_9 
REMARK    4  A    between atoms: C1_8  and  C3_10 
REMARK    5  A    between atoms: C2_9  and  C4_11 
REMARK    6  A    between atoms: C5_12  and  C7_14 
ROOT
HETATM    1  O1  UNK     1      19.062   0.507  28.674  1.00  0.00    -0.274 OA
HETATM    2  O3  UNK     1      18.208   2.575  28.209  1.00  0.00    -0.259 OA
HETATM    3  C5  UNK     1      18.796   2.151  30.464  1.00  0.00     0.108 A 
HETATM    4  C6  UNK     1      19.701  -0.042  30.954  1.00  0.00     0.001 A 
HETATM    5  C8  UNK     1      19.287   1.290  31.364  1.00  0.00     0.037 A 
HETATM    6  C9  UNK     1      19.579  -0.403  29.615  1.00  0.00     0.089 A 
HETATM    7  C12 UNK     1      20.217  -0.973  31.858  1.00  0.00     0.050 A 
HETATM    8  C13 UNK     1      18.657   1.789  29.036  1.00  0.00     0.304 A 
HETATM    9  C14 UNK     1      19.957  -1.663  29.157  1.00  0.00     0.041 A 
HETATM   10  C15 UNK     1      20.601  -2.242  31.414  1.00  0.00     0.103 A 
HETATM   11  C16 UNK     1      20.472  -2.585  30.067  1.00  0.00     0.039 A 
ENDROOT
BRANCH   3  12
HETATM   12  C7  UNK     1      18.407   3.471  30.975  1.00  0.00     0.257 C 
HETATM   13  O2  UNK     1      17.457   3.595  31.746  1.00  0.00    -0.267 OA
HETATM   14  N1  UNK     1      19.206   4.492  30.493  1.00  0.00    -0.357 N 
HETATM   15  H7  UNK     1      19.983   4.284  29.874  1.00  0.00     0.162 HD
BRANCH  14  16
HETATM   16  C3  UNK     1      19.014   5.879  30.852  1.00  0.00     0.123 C 
BRANCH  16  17
HETATM   17  C1  UNK     1      20.040   6.370  31.871  1.00  0.00     0.024 C 
BRANCH  17  18
HETATM   18  C2  UNK     1      19.609   6.210  33.334  1.00  0.00     0.040 C 
BRANCH  18  19
HETATM   19  C4  UNK     1      18.465   7.107  33.735  1.00  0.00    -0.058 A 
HETATM   20  C10 UNK     1      17.244   6.544  34.071  1.00  0.00     0.007 A 
HETATM   21  C17 UNK     1      16.186   7.373  34.444  1.00  0.00     0.001 A 
HETATM   22  C19 UNK     1      16.362   8.756  34.475  1.00  0.00     0.000 A 
HETATM   23  C18 UNK     1      17.596   9.311  34.134  1.00  0.00     0.001 A 
HETATM   24  C11 UNK     1      18.654   8.481  33.762  1.00  0.00     0.007 A 
ENDBRANCH  18  19
ENDBRANCH  17  18
ENDBRANCH  16  17
ENDBRANCH  14  16
ENDBRANCH   3  12
BRANCH  10  25
HETATM   25  N2  UNK     1      21.127  -3.185  32.336  1.00  0.00    -0.116 N 
HETATM   26  O4  UNK     1      21.537  -4.291  31.907  1.00  0.00    -0.532 OA
HETATM   27  O5  UNK     1      21.165  -2.888  33.554  1.00  0.00    -0.532 OA
ENDBRANCH  10  25
TORSDOF 6
ENDMDL
MODEL 3
REMARK VINA RESULT:      -8.7      2.935      5.121
REMARK  6 active torsions:
REMARK  status: ('A' for Active; 'I' for Inactive)
REMARK    1  A    between atoms: C3_10  and  N1_6 
REMARK       I    between atoms: C7_14  and  N1_6 
REMARK    2  A    between atoms: C15_22  and  N2_7 
REMARK    3  A    between atoms: C1_8  and  C2_9 
REMARK    4  A    between atoms: C1_8  and  C3_10 
REMARK    5  A    between atoms: C2_9  and  C4_11 
REMARK    6  A    between atoms: C5_12  and  C7_14 
ROOT
HETATM    1  O1  UNK     1      20.817  -2.652  30.854  1.00  0.00    -0.274 OA
HETATM    2  O3  UNK     1      21.348  -4.121  32.522  1.00  0.00    -0.259 OA
HETATM    3  C5  UNK     1      20.217  -2.143  33.169  1.00  0.00     0.108 A 
HETATM    4  C6  UNK     1      19.655  -0.587  31.399  1.00  0.00     0.001 A 
HETATM    5  C8  UNK     1      19.661  -0.983  32.798  1.00  0.00     0.037 A 
HETATM    6  C9  UNK     1      20.235  -1.433  30.458  1.00  0.00     0.089 A 
HETATM    7  C12 UNK     1      19.088   0.614  30.967  1.00  0.00     0.050 A 
HETATM    8  C13 UNK     1      20.838  -3.058  32.186  1.00  0.00     0.304 A 
HETATM    9  C14 UNK     1      20.262  -1.113  29.102  1.00  0.00     0.041 A 
HETATM   10  C15 UNK     1      19.108   0.949  29.610  1.00  0.00     0.103 A 
HETATM   11  C16 UNK     1      19.693   0.087  28.680  1.00  0.00     0.039 A 
ENDROOT
BRANCH   3  12
HETATM   12  C7  UNK     1      20.173  -2.454  34.603  1.00  0.00     0.257 C 
HETATM   13  O2  UNK     1      20.328  -1.573  35.445  1.00  0.00    -0.267 OA
HETATM   14  N1  UNK     1      19.950  -3.796  34.856  1.00  0.00    -0.357 N 
HETATM   15  H7  UNK     1      19.812  -4.445  34.087  1.00  0.00     0.162 HD
BRANCH  14  16
HETATM   16  C3  UNK     1      19.869  -4.343  36.191  1.00  0.00     0.123 C 
BRANCH  16  17
HETATM   17  C1  UNK     1      19.383  -5.791  36.204  1.00  0.00     0.024 C 
BRANCH  17  18
HETATM   18  C2  UNK     1      20.055  -6.697  35.166  1.00  0.00     0.040 C 
BRANCH  18  19
HETATM   19  C4  UNK     1      20.312  -8.100  35.654  1.00  0.00    -0.058 A 
HETATM   20  C10 UNK     1      19.482  -8.649  36.619  1.00  0.00     0.007 A 
HETATM   21  C17 UNK     1      19.719  -9.947  37.070  1.00  0.00     0.001 A 
HETATM   22  C19 UNK     1      20.784 -10.682  36.550  1.00  0.00     0.000 A 
HETATM   23  C18 UNK     1      21.612 -10.119  35.579  1.00  0.00     0.001 A 
HETATM   24  C11 UNK     1      21.375  -8.821  35.129  1.00  0.00     0.007 A 
ENDBRANCH  18  19
ENDBRANCH  17  18
ENDBRANCH  16  17
ENDBRANCH  14  16
ENDBRANCH   3  12
BRANCH  10  25
HETATM   25  N2  UNK     1      18.530   2.170  29.175  1.00  0.00    -0.116 N 
HETATM   26  O4  UNK     1      17.922   2.198  28.076  1.00  0.00    -0.532 OA
HETATM   27  O5  UNK     1      18.642   3.189  29.898  1.00  0.00    -0.532 OA
ENDBRANCH  10  25
TORSDOF 6
ENDMDL
MODEL 4
REMARK VINA RESULT:      -8.4      3.133      6.426
REMARK  6 active torsions:
REMARK  status: ('A' for Active; 'I' for Inactive)
REMARK    1  A    between atoms: C3_10  and  N1_6 
REMARK       I    between atoms: C7_14  and  N1_6 
REMARK    2  A    between atoms: C15_22  and  N2_7 
REMARK    3  A    between atoms: C1_8  and  C2_9 
REMARK    4  A    between atoms: C1_8  and  C3_10 
REMARK    5  A    between atoms: C2_9  and  C4_11 
REMARK    6  A    between atoms: C5_12  and  C7_14 
ROOT
HETATM    1  O1  UNK     1      20.494  -2.886  33.940  1.00  0.00    -0.274 OA
HETATM    2  O3  UNK     1      21.258  -3.333  31.833  1.00  0.00    -0.259 OA
HETATM    3  C5  UNK     1      19.774  -1.501  32.058  1.00  0.00     0.108 A 
HETATM    4  C6  UNK     1      18.965  -1.029  34.292  1.00  0.00     0.001 A 
HETATM    5  C8  UNK     1      19.021  -0.745  32.866  1.00  0.00     0.037 A 
HETATM    6  C9  UNK     1      19.704  -2.095  34.795  1.00  0.00     0.089 A 
HETATM    7  C12 UNK     1      18.193  -0.268  35.173  1.00  0.00     0.050 A 
HETATM    8  C13 UNK     1      20.568  -2.639  32.571  1.00  0.00     0.304 A 
HETATM    9  C14 UNK     1      19.694  -2.420  36.151  1.00  0.00     0.041 A 
HETATM   10  C15 UNK     1      18.172  -0.582  36.535  1.00  0.00     0.103 A 
HETATM   11  C16 UNK     1      18.921  -1.655  37.022  1.00  0.00     0.039 A 
ENDROOT
BRANCH   3  12
HETATM   12  C7  UNK     1      19.766  -1.135  30.636  1.00  0.00     0.257 C 
HETATM   13  O2  UNK     1      20.136  -1.932  29.776  1.00  0.00    -0.267 OA
HETATM   14  N1  UNK     1      19.316   0.155  30.415  1.00  0.00    -0.357 N 
HETATM   15  H7  UNK     1      19.011   0.731  31.194  1.00  0.00     0.162 HD
BRANCH  14  16
HETATM   16  C3  UNK     1      19.222   0.741  29.097  1.00  0.00     0.123 C 
BRANCH  16  17
HETATM   17  C1  UNK     1      18.503   2.089  29.103  1.00  0.00     0.024 C 
BRANCH  17  18
HETATM   18  C2  UNK     1      17.995   2.531  30.481  1.00  0.00     0.040 C 
BRANCH  18  19
HETATM   19  C4  UNK     1      18.498   3.886  30.912  1.00  0.00    -0.058 A 
HETATM   20  C10 UNK     1      18.303   4.300  32.221  1.00  0.00     0.007 A 
HETATM   21  C17 UNK     1      18.770   5.552  32.620  1.00  0.00     0.001 A 
HETATM   22  C19 UNK     1      19.426   6.376  31.706  1.00  0.00     0.000 A 
HETATM   23  C18 UNK     1      19.616   5.947  30.392  1.00  0.00     0.001 A 
HETATM   24  C11 UNK     1      19.149   4.695  29.993  1.00  0.00     0.007 A 
ENDBRANCH  18  19
ENDBRANCH  17  18
ENDBRANCH  16  17
ENDBRANCH  14  16
ENDBRANCH   3  12
BRANCH  10  25
HETATM   25  N2  UNK     1      17.388   0.195  37.428  1.00  0.00    -0.116 N 
HETATM   26  O4  UNK     1      16.212   0.493  37.102  1.00  0.00    -0.532 OA
HETATM   27  O5  UNK     1      17.890   0.563  38.517  1.00  0.00    -0.532 OA
ENDBRANCH  10  25
TORSDOF 6
ENDMDL
MODEL 5
REMARK VINA RESULT:      -8.3      4.219      7.222
REMARK  6 active torsions:
REMARK  status: ('A' for Active; 'I' for Inactive)
REMARK    1  A    between atoms: C3_10  and  N1_6 
REMARK       I    between atoms: C7_14  and  N1_6 
REMARK    2  A    between atoms: C15_22  and  N2_7 
REMARK    3  A    between atoms: C1_8  and  C2_9 
REMARK    4  A    between atoms: C1_8  and  C3_10 
REMARK    5  A    between atoms: C2_9  and  C4_11 
REMARK    6  A    between atoms: C5_12  and  C7_14 
ROOT
HETATM    1  O1  UNK     1      19.271  -0.631  32.561  1.00  0.00    -0.274 OA
HETATM    2  O3  UNK     1      19.686  -0.281  30.341  1.00  0.00    -0.259 OA
HETATM    3  C5  UNK     1      18.682   1.506  31.529  1.00  0.00     0.108 A 
HETATM    4  C6  UNK     1      18.243   1.133  33.881  1.00  0.00     0.001 A 
HETATM    5  C8  UNK     1      18.209   1.968  32.692  1.00  0.00     0.037 A 
HETATM    6  C9  UNK     1      18.775  -0.150  33.788  1.00  0.00     0.089 A 
HETATM    7  C12 UNK     1      17.759   1.573  35.116  1.00  0.00     0.050 A 
HETATM    8  C13 UNK     1      19.252   0.146  31.406  1.00  0.00     0.304 A 
HETATM    9  C14 UNK     1      18.837  -1.001  34.889  1.00  0.00     0.041 A 
HETATM   10  C15 UNK     1      17.815   0.731  36.230  1.00  0.00     0.103 A 
HETATM   11  C16 UNK     1      18.352  -0.553  36.117  1.00  0.00     0.039 A 
ENDROOT
BRANCH   3  12
HETATM   12  C7  UNK     1      18.604   2.424  30.386  1.00  0.00     0.257 C 
HETATM   13  O2  UNK     1      18.124   2.060  29.315  1.00  0.00    -0.267 OA
HETATM   14  N1  UNK     1      19.121   3.677  30.666  1.00  0.00    -0.357 N 
HETATM   15  H7  UNK     1      19.478   3.887  31.593  1.00  0.00     0.162 HD
BRANCH  14  16
HETATM   16  C3  UNK     1      19.157   4.749  29.697  1.00  0.00     0.123 C 
BRANCH  16  17
HETATM   17  C1  UNK     1      19.541   6.090  30.318  1.00  0.00     0.024 C 
BRANCH  17  18
HETATM   18  C2  UNK     1      20.212   5.984  31.693  1.00  0.00     0.040 C 
BRANCH  18  19
HETATM   19  C4  UNK     1      19.404   6.585  32.815  1.00  0.00    -0.058 A 
HETATM   20  C10 UNK     1      18.095   6.170  33.010  1.00  0.00     0.007 A 
HETATM   21  C17 UNK     1      17.347   6.725  34.049  1.00  0.00     0.001 A 
HETATM   22  C19 UNK     1      17.917   7.688  34.881  1.00  0.00     0.000 A 
HETATM   23  C18 UNK     1      19.235   8.097  34.674  1.00  0.00     0.001 A 
HETATM   24  C11 UNK     1      19.982   7.543  33.635  1.00  0.00     0.007 A 
ENDBRANCH  18  19
ENDBRANCH  17  18
ENDBRANCH  16  17
ENDBRANCH  14  16
ENDBRANCH   3  12
BRANCH  10  25
HETATM   25  N2  UNK     1      17.323   1.183  37.483  1.00  0.00    -0.116 N 
HETATM   26  O4  UNK     1      16.242   1.820  37.518  1.00  0.00    -0.532 OA
HETATM   27  O5  UNK     1      17.984   0.936  38.520  1.00  0.00    -0.532 OA
ENDBRANCH  10  25
TORSDOF 6
ENDMDL
MODEL 6
REMARK VINA RESULT:      -8.1      3.048      7.246
REMARK  6 active torsions:
REMARK  status: ('A' for Active; 'I' for Inactive)
REMARK    1  A    between atoms: C3_10  and  N1_6 
REMARK       I    between atoms: C7_14  and  N1_6 
REMARK    2  A    between atoms: C15_22  and  N2_7 
REMARK    3  A    between atoms: C1_8  and  C2_9 
REMARK    4  A    between atoms: C1_8  and  C3_10 
REMARK    5  A    between atoms: C2_9  and  C4_11 
REMARK    6  A    between atoms: C5_12  and  C7_14 
ROOT
HETATM    1  O1  UNK     1      18.001  -0.143  34.953  1.00  0.00    -0.274 OA
HETATM    2  O3  UNK     1      17.720   1.362  33.257  1.00  0.00    -0.259 OA
HETATM    3  C5  UNK     1      19.244  -0.409  32.864  1.00  0.00     0.108 A 
HETATM    4  C6  UNK     1      19.540  -2.002  34.664  1.00  0.00     0.001 A 
HETATM    5  C8  UNK     1      19.841  -1.513  33.328  1.00  0.00     0.037 A 
HETATM    6  C9  UNK     1      18.625  -1.304  35.446  1.00  0.00     0.089 A 
HETATM    7  C12 UNK     1      20.140  -3.150  35.190  1.00  0.00     0.050 A 
HETATM    8  C13 UNK     1      18.268   0.349  33.678  1.00  0.00     0.304 A 
HETATM    9  C14 UNK     1      18.294  -1.720  36.735  1.00  0.00     0.041 A 
HETATM   10  C15 UNK     1      19.817  -3.579  36.480  1.00  0.00     0.103 A 
HETATM   11  C16 UNK     1      18.896  -2.866  37.250  1.00  0.00     0.039 A 
ENDROOT
BRANCH   3  12
HETATM   12  C7  UNK     1      19.612   0.005  31.504  1.00  0.00     0.257 C 
HETATM   13  O2  UNK     1      20.783  -0.021  31.132  1.00  0.00    -0.267 OA
HETATM   14  N1  UNK     1      18.524   0.408  30.751  1.00  0.00    -0.357 N 
HETATM   15  H7  UNK     1      17.588   0.373  31.145  1.00  0.00     0.162 HD
BRANCH  14  16
HETATM   16  C3  UNK     1      18.637   0.862  29.384  1.00  0.00     0.123 C 
BRANCH  16  17
HETATM   17  C1  UNK     1      18.476   2.375  29.251  1.00  0.00     0.024 C 
BRANCH  17  18
HETATM   18  C2  UNK     1      17.767   3.045  30.434  1.00  0.00     0.040 C 
BRANCH  18  19
HETATM   19  C4  UNK     1      18.522   4.212  31.019  1.00  0.00    -0.058 A 
HETATM   20  C10 UNK     1      19.425   4.904  30.227  1.00  0.00     0.007 A 
HETATM   21  C17 UNK     1      20.122   5.985  30.767  1.00  0.00     0.001 A 
HETATM   22  C19 UNK     1      19.909   6.359  32.094  1.00  0.00     0.000 A 
HETATM   23  C18 UNK     1      18.998   5.654  32.880  1.00  0.00     0.001 A 
HETATM   24  C11 UNK     1      18.301   4.573  32.340  1.00  0.00     0.007 A 
ENDBRANCH  18  19
ENDBRANCH  17  18
ENDBRANCH  16  17
ENDBRANCH  14  16
ENDBRANCH   3  12
BRANCH  10  25
HETATM   25  N2  UNK     1      20.427  -4.746  37.010  1.00  0.00    -0.116 N 
HETATM   26  O4  UNK     1      21.666  -4.745  37.216  1.00  0.00    -0.532 OA
HETATM   27  O5  UNK     1      19.713  -5.747  37.257  1.00  0.00    -0.532 OA
ENDBRANCH  10  25
TORSDOF 6
ENDMDL
MODEL 7
REMARK VINA RESULT:      -8.0     14.256     17.389
REMARK  6 active torsions:
REMARK  status: ('A' for Active; 'I' for Inactive)
REMARK    1  A    between atoms: C3_10  and  N1_6 
REMARK       I    between atoms: C7_14  and  N1_6 
REMARK    2  A    between atoms: C15_22  and  N2_7 
REMARK    3  A    between atoms: C1_8  and  C2_9 
REMARK    4  A    between atoms: C1_8  and  C3_10 
REMARK    5  A    between atoms: C2_9  and  C4_11 
REMARK    6  A    between atoms: C5_12  and  C7_14 
ROOT
HETATM    1  O1  UNK     1      19.418   0.785  14.864  1.00  0.00    -0.274 OA
HETATM    2  O3  UNK     1      19.524  -0.721  13.148  1.00  0.00    -0.259 OA
HETATM    3  C5  UNK     1      19.042  -1.592  15.298  1.00  0.00     0.108 A 
HETATM    4  C6  UNK     1      18.931   0.007  17.114  1.00  0.00     0.001 A 
HETATM    5  C8  UNK     1      18.848  -1.351  16.600  1.00  0.00     0.037 A 
HETATM    6  C9  UNK     1      19.215   1.045  16.232  1.00  0.00     0.089 A 
HETATM    7  C12 UNK     1      18.736   0.306  18.465  1.00  0.00     0.050 A 
HETATM    8  C13 UNK     1      19.345  -0.504  14.342  1.00  0.00     0.304 A 
HETATM    9  C14 UNK     1      19.308   2.368  16.660  1.00  0.00     0.041 A 
HETATM   10  C15 UNK     1      18.827   1.628  18.910  1.00  0.00     0.103 A 
HETATM   11  C16 UNK     1      19.112   2.656  18.010  1.00  0.00     0.039 A 
ENDROOT
BRANCH   3  12
HETATM   12  C7  UNK     1      18.937  -2.994  14.875  1.00  0.00     0.257 C 
HETATM   13  O2  UNK     1      17.905  -3.423  14.362  1.00  0.00    -0.267 OA
HETATM   14  N1  UNK     1      20.088  -3.719  15.126  1.00  0.00    -0.357 N 
HETATM   15  H7  UNK     1      20.898  -3.266  15.537  1.00  0.00     0.162 HD
BRANCH  14  16
HETATM   16  C3  UNK     1      20.222  -5.121  14.800  1.00  0.00     0.123 C 
BRANCH  16  17
HETATM   17  C1  UNK     1      19.374  -6.017  15.700  1.00  0.00     0.024 C 
BRANCH  17  18
HETATM   18  C2  UNK     1      18.226  -6.736  14.981  1.00  0.00     0.040 C 
BRANCH  18  19
HETATM   19  C4  UNK     1      16.887  -6.576  15.656  1.00  0.00    -0.058 A 
HETATM   20  C10 UNK     1      16.789  -5.796  16.798  1.00  0.00     0.007 A 
HETATM   21  C17 UNK     1      15.550  -5.646  17.421  1.00  0.00     0.001 A 
HETATM   22  C19 UNK     1      14.424  -6.279  16.894  1.00  0.00     0.000 A 
HETATM   23  C18 UNK     1      14.536  -7.061  15.745  1.00  0.00     0.001 A 
HETATM   24  C11 UNK     1      15.775  -7.211  15.122  1.00  0.00     0.007 A 
ENDBRANCH  18  19
ENDBRANCH  17  18
ENDBRANCH  16  17
ENDBRANCH  14  16
ENDBRANCH   3  12
BRANCH  10  25
HETATM   25  N2  UNK     1      18.627   1.927  20.284  1.00  0.00    -0.116 N 
HETATM   26  O4  UNK     1      17.538   1.611  20.822  1.00  0.00    -0.532 OA
HETATM   27  O5  UNK     1      19.543   2.499  20.921  1.00  0.00    -0.532 OA
ENDBRANCH  10  25
TORSDOF 6
ENDMDL
MODEL 8
REMARK VINA RESULT:      -7.9      9.200     11.249
REMARK  6 active torsions:
REMARK  status: ('A' for Active; 'I' for Inactive)
REMARK    1  A    between atoms: C3_10  and  N1_6 
REMARK       I    between atoms: C7_14  and  N1_6 
REMARK    2  A    between atoms: C15_22  and  N2_7 
REMARK    3  A    between atoms: C1_8  and  C2_9 
REMARK    4  A    between atoms: C1_8  and  C3_10 
REMARK    5  A    between atoms: C2_9  and  C4_11 
REMARK    6  A    between atoms: C5_12  and  C7_14 
ROOT
HETATM    1  O1  UNK     1      25.805 -11.315  36.146  1.00  0.00    -0.274 OA
HETATM    2  O3  UNK     1      24.185 -12.591  35.160  1.00  0.00    -0.259 OA
HETATM    3  C5  UNK     1      23.482 -10.552  36.139  1.00  0.00     0.108 A 
HETATM    4  C6  UNK     1      25.200  -9.201  37.183  1.00  0.00     0.001 A 
HETATM    5  C8  UNK     1      23.817  -9.439  36.803  1.00  0.00     0.037 A 
HETATM    6  C9  UNK     1      26.163 -10.147  36.845  1.00  0.00     0.089 A 
HETATM    7  C12 UNK     1      25.596  -8.056  37.878  1.00  0.00     0.050 A 
HETATM    8  C13 UNK     1      24.489 -11.570  35.768  1.00  0.00     0.304 A 
HETATM    9  C14 UNK     1      27.506  -9.980  37.179  1.00  0.00     0.041 A 
HETATM   10  C15 UNK     1      26.938  -7.874  38.221  1.00  0.00     0.103 A 
HETATM   11  C16 UNK     1      27.891  -8.833  37.872  1.00  0.00     0.039 A 
ENDROOT
BRANCH   3  12
HETATM   12  C7  UNK     1      22.061 -10.701  35.799  1.00  0.00     0.257 C 
HETATM   13  O2  UNK     1      21.690 -10.714  34.627  1.00  0.00    -0.267 OA
HETATM   14  N1  UNK     1      21.250 -10.812  36.914  1.00  0.00    -0.357 N 
HETATM   15  H7  UNK     1      21.657 -10.811  37.845  1.00  0.00     0.162 HD
BRANCH  14  16
HETATM   16  C3  UNK     1      19.815 -10.965  36.833  1.00  0.00     0.123 C 
BRANCH  16  17
HETATM   17  C1  UNK     1      19.066  -9.686  37.200  1.00  0.00     0.024 C 
BRANCH  17  18
HETATM   18  C2  UNK     1      19.307  -9.197  38.634  1.00  0.00     0.040 C 
BRANCH  18  19
HETATM   19  C4  UNK     1      20.463  -8.238  38.766  1.00  0.00    -0.058 A 
HETATM   20  C10 UNK     1      21.460  -8.496  39.694  1.00  0.00     0.007 A 
HETATM   21  C17 UNK     1      22.530  -7.610  39.815  1.00  0.00     0.001 A 
HETATM   22  C19 UNK     1      22.590  -6.475  39.007  1.00  0.00     0.000 A 
HETATM   23  C18 UNK     1      21.581  -6.226  38.077  1.00  0.00     0.001 A 
HETATM   24  C11 UNK     1      20.511  -7.113  37.956  1.00  0.00     0.007 A 
ENDBRANCH  18  19
ENDBRANCH  17  18
ENDBRANCH  16  17
ENDBRANCH  14  16
ENDBRANCH   3  12
BRANCH  10  25
HETATM   25  N2  UNK     1      27.336  -6.707  38.926  1.00  0.00    -0.116 N 
HETATM   26  O4  UNK     1      28.412  -6.725  39.573  1.00  0.00    -0.532 OA
HETATM   27  O5  UNK     1      26.602  -5.691  38.883  1.00  0.00    -0.532 OA
ENDBRANCH  10  25
TORSDOF 6
ENDMDL
MODEL 9
REMARK VINA RESULT:      -7.9      3.905      7.028
REMARK  6 active torsions:
REMARK  status: ('A' for Active; 'I' for Inactive)
REMARK    1  A    between atoms: C3_10  and  N1_6 
REMARK       I    between atoms: C7_14  and  N1_6 
REMARK    2  A    between atoms: C15_22  and  N2_7 
REMARK    3  A    between atoms: C1_8  and  C2_9 
REMARK    4  A    between atoms: C1_8  and  C3_10 
REMARK    5  A    between atoms: C2_9  and  C4_11 
REMARK    6  A    between atoms: C5_12  and  C7_14 
ROOT
HETATM    1  O1  UNK     1      20.461  -1.168  30.622  1.00  0.00    -0.274 OA
HETATM    2  O3  UNK     1      20.385  -0.036  28.638  1.00  0.00    -0.259 OA
HETATM    3  C5  UNK     1      19.077   0.837  30.409  1.00  0.00     0.108 A 
HETATM    4  C6  UNK     1      19.159  -0.364  32.511  1.00  0.00     0.001 A 
HETATM    5  C8  UNK     1      18.675   0.727  31.681  1.00  0.00     0.037 A 
HETATM    6  C9  UNK     1      20.042  -1.288  31.960  1.00  0.00     0.089 A 
HETATM    7  C12 UNK     1      18.766  -0.519  33.843  1.00  0.00     0.050 A 
HETATM    8  C13 UNK     1      20.015  -0.133  29.803  1.00  0.00     0.304 A 
HETATM    9  C14 UNK     1      20.543  -2.357  32.701  1.00  0.00     0.041 A 
HETATM   10  C15 UNK     1      19.260  -1.586  34.599  1.00  0.00     0.103 A 
HETATM   11  C16 UNK     1      20.146  -2.502  34.029  1.00  0.00     0.039 A 
ENDROOT
BRANCH   3  12
HETATM   12  C7  UNK     1      18.534   1.972  29.654  1.00  0.00     0.257 C 
HETATM   13  O2  UNK     1      17.639   1.810  28.826  1.00  0.00    -0.267 OA
HETATM   14  N1  UNK     1      19.137   3.174  29.980  1.00  0.00    -0.357 N 
HETATM   15  H7  UNK     1      19.856   3.207  30.697  1.00  0.00     0.162 HD
BRANCH  14  16
HETATM   16  C3  UNK     1      18.773   4.431  29.366  1.00  0.00     0.123 C 
BRANCH  16  17
HETATM   17  C1  UNK     1      19.428   5.630  30.049  1.00  0.00     0.024 C 
BRANCH  17  18
HETATM   18  C2  UNK     1      19.704   5.437  31.545  1.00  0.00     0.040 C 
BRANCH  18  19
HETATM   19  C4  UNK     1      19.267   6.599  32.402  1.00  0.00    -0.058 A 
HETATM   20  C10 UNK     1      18.030   7.182  32.178  1.00  0.00     0.007 A 
HETATM   21  C17 UNK     1      17.625   8.256  32.972  1.00  0.00     0.001 A 
HETATM   22  C19 UNK     1      18.464   8.734  33.979  1.00  0.00     0.000 A 
HETATM   23  C18 UNK     1      19.706   8.138  34.193  1.00  0.00     0.001 A 
HETATM   24  C11 UNK     1      20.111   7.064  33.399  1.00  0.00     0.007 A 
ENDBRANCH  18  19
ENDBRANCH  17  18
ENDBRANCH  16  17
ENDBRANCH  14  16
ENDBRANCH   3  12
BRANCH  10  25
HETATM   25  N2  UNK     1      18.859  -1.738  35.952  1.00  0.00    -0.116 N 
HETATM   26  O4  UNK     1      19.366  -2.662  36.636  1.00  0.00    -0.532 OA
HETATM   27  O5  UNK     1      18.009  -0.948  36.428  1.00  0.00    -0.532 OA
ENDBRANCH  10  25
TORSDOF 6
ENDMDL
MODEL 10
REMARK VINA RESULT:      -7.9     14.104     17.041
REMARK  6 active torsions:
REMARK  status: ('A' for Active; 'I' for Inactive)
REMARK    1  A    between atoms: C3_10  and  N1_6 
REMARK       I    between atoms: C7_14  and  N1_6 
REMARK    2  A    between atoms: C15_22  and  N2_7 
REMARK    3  A    between atoms: C1_8  and  C2_9 
REMARK    4  A    between atoms: C1_8  and  C3_10 
REMARK    5  A    between atoms: C2_9  and  C4_11 
REMARK    6  A    between atoms: C5_12  and  C7_14 
ROOT
HETATM    1  O1  UNK     1      19.289   0.888  15.028  1.00  0.00    -0.274 OA
HETATM    2  O3  UNK     1      19.285  -0.650  13.338  1.00  0.00    -0.259 OA
HETATM    3  C5  UNK     1      18.947  -1.480  15.531  1.00  0.00     0.108 A 
HETATM    4  C6  UNK     1      18.952   0.153  17.320  1.00  0.00     0.001 A 
HETATM    5  C8  UNK     1      18.838  -1.214  16.838  1.00  0.00     0.037 A 
HETATM    6  C9  UNK     1      19.175   1.174  16.402  1.00  0.00     0.089 A 
HETATM    7  C12 UNK     1      18.846   0.477  18.675  1.00  0.00     0.050 A 
HETATM    8  C13 UNK     1      19.184  -0.410  14.537  1.00  0.00     0.304 A 
HETATM    9  C14 UNK     1      19.294   2.505  16.798  1.00  0.00     0.041 A 
HETATM   10  C15 UNK     1      18.963   1.807  19.088  1.00  0.00     0.103 A 
HETATM   11  C16 UNK     1      19.186   2.818  18.152  1.00  0.00     0.039 A 
ENDROOT
BRANCH   3  12
HETATM   12  C7  UNK     1      18.817  -2.890  15.143  1.00  0.00     0.257 C 
HETATM   13  O2  UNK     1      17.809  -3.533  15.429  1.00  0.00    -0.267 OA
HETATM   14  N1  UNK     1      19.922  -3.363  14.458  1.00  0.00    -0.357 N 
HETATM   15  H7  UNK     1      20.699  -2.744  14.251  1.00  0.00     0.162 HD
BRANCH  14  16
HETATM   16  C3  UNK     1      20.027  -4.722  13.976  1.00  0.00     0.123 C 
BRANCH  16  17
HETATM   17  C1  UNK     1      21.189  -5.482  14.611  1.00  0.00     0.024 C 
BRANCH  17  18
HETATM   18  C2  UNK     1      21.186  -5.482  16.145  1.00  0.00     0.040 C 
BRANCH  18  19
HETATM   19  C4  UNK     1      22.262  -4.622  16.758  1.00  0.00    -0.058 A 
HETATM   20  C10 UNK     1      21.904  -3.483  17.463  1.00  0.00     0.007 A 
HETATM   21  C17 UNK     1      22.899  -2.688  18.032  1.00  0.00     0.001 A 
HETATM   22  C19 UNK     1      24.241  -3.041  17.889  1.00  0.00     0.000 A 
HETATM   23  C18 UNK     1      24.588  -4.190  17.177  1.00  0.00     0.001 A 
HETATM   24  C11 UNK     1      23.593  -4.985  16.608  1.00  0.00     0.007 A 
ENDBRANCH  18  19
ENDBRANCH  17  18
ENDBRANCH  16  17
ENDBRANCH  14  16
ENDBRANCH   3  12
BRANCH  10  25
HETATM   25  N2  UNK     1      18.853   2.132  20.466  1.00  0.00    -0.116 N 
HETATM   26  O4  UNK     1      19.894   2.414  21.109  1.00  0.00    -0.532 OA
HETATM   27  O5  UNK     1      17.720   2.126  21.004  1.00  0.00    -0.532 OA
ENDBRANCH  10  25
TORSDOF 6
ENDMDL
