MODEL 1
REMARK VINA RESULT:     -10.0      0.000      0.000
REMARK  5 active torsions:
REMARK  status: ('A' for Active; 'I' for Inactive)
REMARK    1  A    between atoms: C17_26  and  O2_6 
REMARK    2  A    between atoms: C5_14  and  O2_6 
REMARK    3  A    between atoms: C7_16  and  N1_9 
REMARK       I    between atoms: C8_17  and  N1_9 
REMARK    4  A    between atoms: C3_12  and  C8_17 
REMARK    5  A    between atoms: C12_21  and  C18_27 
ROOT
HETATM    1  O3  UNK     1      20.193  -5.120  35.246  1.00  0.00    -0.267 OA
HETATM    2  N1  UNK     1      19.665  -4.881  37.527  1.00  0.00    -0.320 N 
HETATM    3  C8  UNK     1      19.837  -4.456  36.218  1.00  0.00     0.262 C 
HETATM    4  H4  UNK     1      19.383  -4.198  38.227  1.00  0.00     0.169 HD
ENDROOT
BRANCH   3   5
HETATM    5  C3  UNK     1      19.537  -3.028  36.054  1.00  0.00     0.108 A 
HETATM    6  C9  UNK     1      20.022  -2.252  34.890  1.00  0.00     0.304 A 
HETATM    7  O1  UNK     1      19.671  -0.906  34.846  1.00  0.00    -0.271 OA
HETATM    8  O4  UNK     1      20.699  -2.766  34.006  1.00  0.00    -0.259 OA
HETATM    9  C2  UNK     1      18.894  -0.308  35.857  1.00  0.00     0.123 A 
HETATM   10  C1  UNK     1      18.449  -1.055  36.943  1.00  0.00     0.002 A 
HETATM   11  C5  UNK     1      18.593   1.047  35.726  1.00  0.00     0.103 A 
HETATM   12  C4  UNK     1      18.799  -2.466  37.017  1.00  0.00     0.037 A 
HETATM   13  C6  UNK     1      17.681  -0.426  37.925  1.00  0.00     0.014 A 
HETATM   14  C11 UNK     1      17.372   0.933  37.808  1.00  0.00     0.004 A 
HETATM   15  C10 UNK     1      17.827   1.667  36.711  1.00  0.00     0.040 A 
BRANCH  11  16
HETATM   16  O2  UNK     1      19.035   1.765  34.660  1.00  0.00    -0.349 OA
BRANCH  16  17
HETATM   17  C17 UNK     1      18.045   2.295  33.778  1.00  0.00     0.171 C 
HETATM   18  C19 UNK     1      18.248   3.790  33.650  1.00  0.00     0.034 C 
ENDBRANCH  16  17
ENDBRANCH  11  16
ENDBRANCH   3   5
BRANCH   2  19
HETATM   19  C7  UNK     1      19.860  -6.184  38.046  1.00  0.00     0.074 A 
HETATM   20  C13 UNK     1      21.046  -6.480  38.695  1.00  0.00     0.049 A 
HETATM   21  C12 UNK     1      21.242  -7.764  39.206  1.00  0.00     0.050 A 
HETATM   22  C15 UNK     1      20.249  -8.732  39.060  1.00  0.00     0.019 A 
HETATM   23  C16 UNK     1      19.060  -8.417  38.403  1.00  0.00     0.045 A 
HETATM   24  C14 UNK     1      18.864  -7.133  37.892  1.00  0.00     0.143 A 
HETATM   25  F1  UNK     1      17.717  -6.842  37.262  1.00  0.00    -0.204 F 
BRANCH  21  26
HETATM   26  C18 UNK     1      22.514  -8.100  39.909  1.00  0.00     0.417 C 
HETATM   27  F2  UNK     1      22.410  -9.176  40.744  1.00  0.00    -0.166 F 
HETATM   28  F3  UNK     1      23.543  -8.404  39.063  1.00  0.00    -0.166 F 
HETATM   29  F4  UNK     1      22.971  -7.076  40.687  1.00  0.00    -0.166 F 
ENDBRANCH  21  26
ENDBRANCH   2  19
TORSDOF 5
ENDMDL
MODEL 2
REMARK VINA RESULT:     -10.0      2.197      2.534
REMARK  5 active torsions:
REMARK  status: ('A' for Active; 'I' for Inactive)
REMARK    1  A    between atoms: C17_26  and  O2_6 
REMARK    2  A    between atoms: C5_14  and  O2_6 
REMARK    3  A    between atoms: C7_16  and  N1_9 
REMARK       I    between atoms: C8_17  and  N1_9 
REMARK    4  A    between atoms: C3_12  and  C8_17 
REMARK    5  A    between atoms: C12_21  and  C18_27 
ROOT
HETATM    1  O3  UNK     1      21.296  -4.611  37.251  1.00  0.00    -0.267 OA
HETATM    2  N1  UNK     1      19.432  -5.547  36.160  1.00  0.00    -0.320 N 
HETATM    3  C8  UNK     1      20.264  -4.523  36.588  1.00  0.00     0.262 C 
HETATM    4  H4  UNK     1      18.597  -5.306  35.632  1.00  0.00     0.169 HD
ENDROOT
BRANCH   3   5
HETATM    5  C3  UNK     1      19.788  -3.204  36.153  1.00  0.00     0.108 A 
HETATM    6  C9  UNK     1      20.074  -2.671  34.802  1.00  0.00     0.304 A 
HETATM    7  O1  UNK     1      19.567  -1.408  34.508  1.00  0.00    -0.271 OA
HETATM    8  O4  UNK     1      20.725  -3.306  33.980  1.00  0.00    -0.259 OA
HETATM    9  C2  UNK     1      18.819  -0.671  35.446  1.00  0.00     0.123 A 
HETATM   10  C1  UNK     1      18.562  -1.190  36.711  1.00  0.00     0.002 A 
HETATM   11  C5  UNK     1      18.353   0.585  35.059  1.00  0.00     0.103 A 
HETATM   12  C4  UNK     1      19.078  -2.508  37.049  1.00  0.00     0.037 A 
HETATM   13  C6  UNK     1      17.817  -0.428  37.613  1.00  0.00     0.014 A 
HETATM   14  C11 UNK     1      17.343   0.833  37.241  1.00  0.00     0.004 A 
HETATM   15  C10 UNK     1      17.611   1.338  35.966  1.00  0.00     0.040 A 
BRANCH  11  16
HETATM   16  O2  UNK     1      18.611   1.080  33.820  1.00  0.00    -0.349 OA
BRANCH  16  17
HETATM   17  C17 UNK     1      18.197   2.420  33.556  1.00  0.00     0.171 C 
HETATM   18  C19 UNK     1      18.266   2.672  32.065  1.00  0.00     0.034 C 
ENDBRANCH  16  17
ENDBRANCH  11  16
ENDBRANCH   3   5
BRANCH   2  19
HETATM   19  C7  UNK     1      19.582  -6.936  36.392  1.00  0.00     0.074 A 
HETATM   20  C13 UNK     1      20.522  -7.644  35.663  1.00  0.00     0.049 A 
HETATM   21  C12 UNK     1      20.670  -9.013  35.888  1.00  0.00     0.050 A 
HETATM   22  C15 UNK     1      19.877  -9.653  36.839  1.00  0.00     0.019 A 
HETATM   23  C16 UNK     1      18.935  -8.925  37.565  1.00  0.00     0.045 A 
HETATM   24  C14 UNK     1      18.786  -7.557  37.340  1.00  0.00     0.143 A 
HETATM   25  F1  UNK     1      17.877  -6.867  38.044  1.00  0.00    -0.204 F 
BRANCH  21  26
HETATM   26  C18 UNK     1      21.679  -9.791  35.111  1.00  0.00     0.417 C 
HETATM   27  F2  UNK     1      21.374 -11.117  34.993  1.00  0.00    -0.166 F 
HETATM   28  F3  UNK     1      21.842  -9.348  33.830  1.00  0.00    -0.166 F 
HETATM   29  F4  UNK     1      22.922  -9.750  35.674  1.00  0.00    -0.166 F 
ENDBRANCH  21  26
ENDBRANCH   2  19
TORSDOF 5
ENDMDL
MODEL 3
REMARK VINA RESULT:      -9.9      1.944      2.111
REMARK  5 active torsions:
REMARK  status: ('A' for Active; 'I' for Inactive)
REMARK    1  A    between atoms: C17_26  and  O2_6 
REMARK    2  A    between atoms: C5_14  and  O2_6 
REMARK    3  A    between atoms: C7_16  and  N1_9 
REMARK       I    between atoms: C8_17  and  N1_9 
REMARK    4  A    between atoms: C3_12  and  C8_17 
REMARK    5  A    between atoms: C12_21  and  C18_27 
ROOT
HETATM    1  O3  UNK     1      21.323  -4.140  37.237  1.00  0.00    -0.267 OA
HETATM    2  N1  UNK     1      19.762  -5.299  35.911  1.00  0.00    -0.320 N 
HETATM    3  C8  UNK     1      20.377  -4.180  36.453  1.00  0.00     0.262 C 
HETATM    4  H4  UNK     1      18.969  -5.164  35.287  1.00  0.00     0.169 HD
ENDROOT
BRANCH   3   5
HETATM    5  C3  UNK     1      19.767  -2.930  35.983  1.00  0.00     0.108 A 
HETATM    6  C9  UNK     1      19.979  -2.421  34.609  1.00  0.00     0.304 A 
HETATM    7  O1  UNK     1      19.346  -1.225  34.281  1.00  0.00    -0.271 OA
HETATM    8  O4  UNK     1      20.676  -3.019  33.797  1.00  0.00    -0.259 OA
HETATM    9  C2  UNK     1      18.544  -0.530  35.207  1.00  0.00     0.123 A 
HETATM   10  C1  UNK     1      18.358  -1.027  36.493  1.00  0.00     0.002 A 
HETATM   11  C5  UNK     1      17.952   0.659  34.786  1.00  0.00     0.103 A 
HETATM   12  C4  UNK     1      19.005  -2.275  36.867  1.00  0.00     0.037 A 
HETATM   13  C6  UNK     1      17.556  -0.309  37.383  1.00  0.00     0.014 A 
HETATM   14  C11 UNK     1      16.955   0.886  36.976  1.00  0.00     0.004 A 
HETATM   15  C10 UNK     1      17.154   1.369  35.680  1.00  0.00     0.040 A 
BRANCH  11  16
HETATM   16  O2  UNK     1      18.142   1.132  33.526  1.00  0.00    -0.349 OA
BRANCH  16  17
HETATM   17  C17 UNK     1      18.176   2.550  33.362  1.00  0.00     0.171 C 
HETATM   18  C19 UNK     1      18.201   2.874  31.883  1.00  0.00     0.034 C 
ENDBRANCH  16  17
ENDBRANCH  11  16
ENDBRANCH   3   5
BRANCH   2  19
HETATM   19  C7  UNK     1      20.085  -6.659  36.139  1.00  0.00     0.074 A 
HETATM   20  C13 UNK     1      19.948  -7.180  37.414  1.00  0.00     0.049 A 
HETATM   21  C12 UNK     1      20.267  -8.519  37.642  1.00  0.00     0.050 A 
HETATM   22  C15 UNK     1      20.719  -9.317  36.591  1.00  0.00     0.019 A 
HETATM   23  C16 UNK     1      20.852  -8.776  35.313  1.00  0.00     0.045 A 
HETATM   24  C14 UNK     1      20.532  -7.437  35.085  1.00  0.00     0.143 A 
HETATM   25  F1  UNK     1      20.664  -6.928  33.852  1.00  0.00    -0.204 F 
BRANCH  21  26
HETATM   26  C18 UNK     1      20.125  -9.097  39.010  1.00  0.00     0.417 C 
HETATM   27  F2  UNK     1      19.343 -10.216  39.052  1.00  0.00    -0.166 F 
HETATM   28  F3  UNK     1      21.312  -9.470  39.572  1.00  0.00    -0.166 F 
HETATM   29  F4  UNK     1      19.561  -8.223  39.894  1.00  0.00    -0.166 F 
ENDBRANCH  21  26
ENDBRANCH   2  19
TORSDOF 5
ENDMDL
MODEL 4
REMARK VINA RESULT:      -9.9      2.591      3.816
REMARK  5 active torsions:
REMARK  status: ('A' for Active; 'I' for Inactive)
REMARK    1  A    between atoms: C17_26  and  O2_6 
REMARK    2  A    between atoms: C5_14  and  O2_6 
REMARK    3  A    between atoms: C7_16  and  N1_9 
REMARK       I    between atoms: C8_17  and  N1_9 
REMARK    4  A    between atoms: C3_12  and  C8_17 
REMARK    5  A    between atoms: C12_21  and  C18_27 
ROOT
HETATM    1  O3  UNK     1      20.313  -2.446  36.951  1.00  0.00    -0.267 OA
HETATM    2  N1  UNK     1      19.776  -4.395  35.744  1.00  0.00    -0.320 N 
HETATM    3  C8  UNK     1      19.992  -3.035  35.921  1.00  0.00     0.262 C 
HETATM    4  H4  UNK     1      19.493  -4.727  34.825  1.00  0.00     0.169 HD
ENDROOT
BRANCH   3   5
HETATM    5  C3  UNK     1      19.794  -2.277  34.679  1.00  0.00     0.108 A 
HETATM    6  C9  UNK     1      18.999  -1.029  34.639  1.00  0.00     0.304 A 
HETATM    7  O1  UNK     1      18.885  -0.399  33.403  1.00  0.00    -0.271 OA
HETATM    8  O4  UNK     1      18.467  -0.568  35.643  1.00  0.00    -0.259 OA
HETATM    9  C2  UNK     1      19.493  -0.922  32.244  1.00  0.00     0.123 A 
HETATM   10  C1  UNK     1      20.235  -2.097  32.304  1.00  0.00     0.002 A 
HETATM   11  C5  UNK     1      19.322  -0.221  31.052  1.00  0.00     0.103 A 
HETATM   12  C4  UNK     1      20.374  -2.778  33.582  1.00  0.00     0.037 A 
HETATM   13  C6  UNK     1      20.822  -2.583  31.134  1.00  0.00     0.014 A 
HETATM   14  C11 UNK     1      20.659  -1.892  29.929  1.00  0.00     0.004 A 
HETATM   15  C10 UNK     1      19.910  -0.713  29.889  1.00  0.00     0.040 A 
BRANCH  11  16
HETATM   16  O2  UNK     1      18.594   0.927  31.008  1.00  0.00    -0.349 OA
BRANCH  16  17
HETATM   17  C17 UNK     1      18.969   1.897  30.031  1.00  0.00     0.171 C 
HETATM   18  C19 UNK     1      17.868   2.005  28.997  1.00  0.00     0.034 C 
ENDBRANCH  16  17
ENDBRANCH  11  16
ENDBRANCH   3   5
BRANCH   2  19
HETATM   19  C7  UNK     1      19.878  -5.419  36.717  1.00  0.00     0.074 A 
HETATM   20  C13 UNK     1      21.090  -5.629  37.352  1.00  0.00     0.049 A 
HETATM   21  C12 UNK     1      21.193  -6.638  38.309  1.00  0.00     0.050 A 
HETATM   22  C15 UNK     1      20.083  -7.423  38.617  1.00  0.00     0.019 A 
HETATM   23  C16 UNK     1      18.869  -7.199  37.968  1.00  0.00     0.045 A 
HETATM   24  C14 UNK     1      18.766  -6.189  37.011  1.00  0.00     0.143 A 
HETATM   25  F1  UNK     1      17.594  -5.983  36.393  1.00  0.00    -0.204 F 
BRANCH  21  26
HETATM   26  C18 UNK     1      22.492  -6.878  39.003  1.00  0.00     0.417 C 
HETATM   27  F2  UNK     1      23.266  -5.758  39.116  1.00  0.00    -0.166 F 
HETATM   28  F3  UNK     1      22.352  -7.345  40.278  1.00  0.00    -0.166 F 
HETATM   29  F4  UNK     1      23.270  -7.797  38.360  1.00  0.00    -0.166 F 
ENDBRANCH  21  26
ENDBRANCH   2  19
TORSDOF 5
ENDMDL
MODEL 5
REMARK VINA RESULT:      -9.8      7.605     12.478
REMARK  5 active torsions:
REMARK  status: ('A' for Active; 'I' for Inactive)
REMARK    1  A    between atoms: C17_26  and  O2_6 
REMARK    2  A    between atoms: C5_14  and  O2_6 
REMARK    3  A    between atoms: C7_16  and  N1_9 
REMARK       I    between atoms: C8_17  and  N1_9 
REMARK    4  A    between atoms: C3_12  and  C8_17 
REMARK    5  A    between atoms: C12_21  and  C18_27 
ROOT
HETATM    1  O3  UNK     1      18.242   4.755  30.206  1.00  0.00    -0.267 OA
HETATM    2  N1  UNK     1      18.063   4.791  32.553  1.00  0.00    -0.320 N 
HETATM    3  C8  UNK     1      18.287   4.216  31.310  1.00  0.00     0.262 C 
HETATM    4  H4  UNK     1      18.118   4.200  33.379  1.00  0.00     0.169 HD
ENDROOT
BRANCH   3   5
HETATM    5  C3  UNK     1      18.612   2.788  31.411  1.00  0.00     0.108 A 
HETATM    6  C9  UNK     1      18.366   2.011  32.647  1.00  0.00     0.304 A 
HETATM    7  O1  UNK     1      18.715   0.664  32.619  1.00  0.00    -0.271 OA
HETATM    8  O4  UNK     1      17.880   2.525  33.648  1.00  0.00    -0.259 OA
HETATM    9  C2  UNK     1      19.275   0.065  31.473  1.00  0.00     0.123 A 
HETATM   10  C1  UNK     1      19.498   0.813  30.322  1.00  0.00     0.002 A 
HETATM   11  C5  UNK     1      19.593  -1.290  31.541  1.00  0.00     0.103 A 
HETATM   12  C4  UNK     1      19.143   2.225  30.319  1.00  0.00     0.037 A 
HETATM   13  C6  UNK     1      20.056   0.184  29.207  1.00  0.00     0.014 A 
HETATM   14  C11 UNK     1      20.380  -1.175  29.259  1.00  0.00     0.004 A 
HETATM   15  C10 UNK     1      20.149  -1.910  30.424  1.00  0.00     0.040 A 
BRANCH  11  16
HETATM   16  O2  UNK     1      19.369  -2.009  32.673  1.00  0.00    -0.349 OA
BRANCH  16  17
HETATM   17  C17 UNK     1      20.516  -2.464  33.391  1.00  0.00     0.171 C 
HETATM   18  C19 UNK     1      20.232  -2.380  34.876  1.00  0.00     0.034 C 
ENDBRANCH  16  17
ENDBRANCH  11  16
ENDBRANCH   3   5
BRANCH   2  19
HETATM   19  C7  UNK     1      17.730   6.138  32.834  1.00  0.00     0.074 A 
HETATM   20  C13 UNK     1      16.402   6.526  32.800  1.00  0.00     0.049 A 
HETATM   21  C12 UNK     1      16.071   7.853  33.076  1.00  0.00     0.050 A 
HETATM   22  C15 UNK     1      17.075   8.773  33.381  1.00  0.00     0.019 A 
HETATM   23  C16 UNK     1      18.408   8.365  33.411  1.00  0.00     0.045 A 
HETATM   24  C14 UNK     1      18.738   7.038  33.136  1.00  0.00     0.143 A 
HETATM   25  F1  UNK     1      20.024   6.658  33.167  1.00  0.00    -0.204 F 
BRANCH  21  26
HETATM   26  C18 UNK     1      14.645   8.288  33.044  1.00  0.00     0.417 C 
HETATM   27  F2  UNK     1      13.847   7.491  32.275  1.00  0.00    -0.166 F 
HETATM   28  F3  UNK     1      14.051   8.306  34.274  1.00  0.00    -0.166 F 
HETATM   29  F4  UNK     1      14.491   9.550  32.546  1.00  0.00    -0.166 F 
ENDBRANCH  21  26
ENDBRANCH   2  19
TORSDOF 5
ENDMDL
MODEL 6
REMARK VINA RESULT:      -9.5      3.932      8.829
REMARK  5 active torsions:
REMARK  status: ('A' for Active; 'I' for Inactive)
REMARK    1  A    between atoms: C17_26  and  O2_6 
REMARK    2  A    between atoms: C5_14  and  O2_6 
REMARK    3  A    between atoms: C7_16  and  N1_9 
REMARK       I    between atoms: C8_17  and  N1_9 
REMARK    4  A    between atoms: C3_12  and  C8_17 
REMARK    5  A    between atoms: C12_21  and  C18_27 
ROOT
HETATM    1  O3  UNK     1      20.602  -2.884  37.659  1.00  0.00    -0.267 OA
HETATM    2  N1  UNK     1      19.065  -3.154  35.897  1.00  0.00    -0.320 N 
HETATM    3  C8  UNK     1      19.954  -3.575  36.876  1.00  0.00     0.262 C 
HETATM    4  H4  UNK     1      18.620  -3.856  35.310  1.00  0.00     0.169 HD
ENDROOT
BRANCH   3   5
HETATM    5  C3  UNK     1      20.079  -5.037  36.919  1.00  0.00     0.108 A 
HETATM    6  C9  UNK     1      20.269  -5.846  35.694  1.00  0.00     0.304 A 
HETATM    7  O1  UNK     1      20.376  -7.223  35.864  1.00  0.00    -0.271 OA
HETATM    8  O4  UNK     1      20.329  -5.333  34.582  1.00  0.00    -0.259 OA
HETATM    9  C2  UNK     1      20.307  -7.822  37.137  1.00  0.00     0.123 A 
HETATM   10  C1  UNK     1      20.128  -7.043  38.275  1.00  0.00     0.002 A 
HETATM   11  C5  UNK     1      20.425  -9.209  37.207  1.00  0.00     0.103 A 
HETATM   12  C4  UNK     1      20.014  -5.600  38.131  1.00  0.00     0.037 A 
HETATM   13  C6  UNK     1      20.065  -7.674  39.520  1.00  0.00     0.014 A 
HETATM   14  C11 UNK     1      20.181  -9.065  39.607  1.00  0.00     0.004 A 
HETATM   15  C10 UNK     1      20.360  -9.830  38.452  1.00  0.00     0.040 A 
BRANCH  11  16
HETATM   16  O2  UNK     1      20.600  -9.958  36.086  1.00  0.00    -0.349 OA
BRANCH  16  17
HETATM   17  C17 UNK     1      21.520 -11.045  36.167  1.00  0.00     0.171 C 
HETATM   18  C19 UNK     1      22.908 -10.542  35.832  1.00  0.00     0.034 C 
ENDBRANCH  16  17
ENDBRANCH  11  16
ENDBRANCH   3   5
BRANCH   2  19
HETATM   19  C7  UNK     1      18.700  -1.824  35.575  1.00  0.00     0.074 A 
HETATM   20  C13 UNK     1      18.060  -1.051  36.528  1.00  0.00     0.049 A 
HETATM   21  C12 UNK     1      17.698   0.259  36.213  1.00  0.00     0.050 A 
HETATM   22  C15 UNK     1      17.981   0.776  34.949  1.00  0.00     0.019 A 
HETATM   23  C16 UNK     1      18.626  -0.017  34.000  1.00  0.00     0.045 A 
HETATM   24  C14 UNK     1      18.989  -1.326  34.316  1.00  0.00     0.143 A 
HETATM   25  F1  UNK     1      19.608  -2.079  33.395  1.00  0.00    -0.204 F 
BRANCH  21  26
HETATM   26  C18 UNK     1      17.008   1.106  37.229  1.00  0.00     0.417 C 
HETATM   27  F2  UNK     1      17.484   0.937  38.497  1.00  0.00    -0.166 F 
HETATM   28  F3  UNK     1      17.112   2.446  36.985  1.00  0.00    -0.166 F 
HETATM   29  F4  UNK     1      15.668   0.851  37.303  1.00  0.00    -0.166 F 
ENDBRANCH  21  26
ENDBRANCH   2  19
TORSDOF 5
ENDMDL
MODEL 7
REMARK VINA RESULT:      -9.4      7.828     10.495
REMARK  5 active torsions:
REMARK  status: ('A' for Active; 'I' for Inactive)
REMARK    1  A    between atoms: C17_26  and  O2_6 
REMARK    2  A    between atoms: C5_14  and  O2_6 
REMARK    3  A    between atoms: C7_16  and  N1_9 
REMARK       I    between atoms: C8_17  and  N1_9 
REMARK    4  A    between atoms: C3_12  and  C8_17 
REMARK    5  A    between atoms: C12_21  and  C18_27 
ROOT
HETATM    1  O3  UNK     1      17.929   3.228  33.323  1.00  0.00    -0.267 OA
HETATM    2  N1  UNK     1      18.525   3.811  31.122  1.00  0.00    -0.320 N 
HETATM    3  C8  UNK     1      18.171   4.050  32.442  1.00  0.00     0.262 C 
HETATM    4  H4  UNK     1      18.674   4.608  30.507  1.00  0.00     0.169 HD
ENDROOT
BRANCH   3   5
HETATM    5  C3  UNK     1      18.102   5.485  32.746  1.00  0.00     0.108 A 
HETATM    6  C9  UNK     1      16.886   6.286  32.481  1.00  0.00     0.304 A 
HETATM    7  O1  UNK     1      16.942   7.637  32.814  1.00  0.00    -0.271 OA
HETATM    8  O4  UNK     1      15.876   5.789  31.994  1.00  0.00    -0.259 OA
HETATM    9  C2  UNK     1      18.097   8.217  33.374  1.00  0.00     0.123 A 
HETATM   10  C1  UNK     1      19.230   7.446  33.614  1.00  0.00     0.002 A 
HETATM   11  C5  UNK     1      18.058   9.578  33.673  1.00  0.00     0.103 A 
HETATM   12  C4  UNK     1      19.202   6.030  33.278  1.00  0.00     0.037 A 
HETATM   13  C6  UNK     1      20.356   8.057  34.170  1.00  0.00     0.014 A 
HETATM   14  C11 UNK     1      20.332   9.421  34.475  1.00  0.00     0.004 A 
HETATM   15  C10 UNK     1      19.186  10.179  34.227  1.00  0.00     0.040 A 
BRANCH  11  16
HETATM   16  O2  UNK     1      16.944  10.319  33.433  1.00  0.00    -0.349 OA
BRANCH  16  17
HETATM   17  C17 UNK     1      16.274  10.870  34.566  1.00  0.00     0.171 C 
HETATM   18  C19 UNK     1      15.139   9.950  34.963  1.00  0.00     0.034 C 
ENDBRANCH  16  17
ENDBRANCH  11  16
ENDBRANCH   3   5
BRANCH   2  19
HETATM   19  C7  UNK     1      18.687   2.557  30.484  1.00  0.00     0.074 A 
HETATM   20  C13 UNK     1      19.188   1.491  31.211  1.00  0.00     0.049 A 
HETATM   21  C12 UNK     1      19.350   0.255  30.585  1.00  0.00     0.050 A 
HETATM   22  C15 UNK     1      19.009   0.103  29.241  1.00  0.00     0.019 A 
HETATM   23  C16 UNK     1      18.505   1.188  28.524  1.00  0.00     0.045 A 
HETATM   24  C14 UNK     1      18.343   2.424  29.150  1.00  0.00     0.143 A 
HETATM   25  F1  UNK     1      17.859   3.459  28.450  1.00  0.00    -0.204 F 
BRANCH  21  26
HETATM   26  C18 UNK     1      19.888  -0.905  31.353  1.00  0.00     0.417 C 
HETATM   27  F2  UNK     1      19.589  -2.116  30.797  1.00  0.00    -0.166 F 
HETATM   28  F3  UNK     1      21.248  -0.896  31.476  1.00  0.00    -0.166 F 
HETATM   29  F4  UNK     1      19.406  -0.959  32.630  1.00  0.00    -0.166 F 
ENDBRANCH  21  26
ENDBRANCH   2  19
TORSDOF 5
ENDMDL
MODEL 8
REMARK VINA RESULT:      -9.4      3.248      4.812
REMARK  5 active torsions:
REMARK  status: ('A' for Active; 'I' for Inactive)
REMARK    1  A    between atoms: C17_26  and  O2_6 
REMARK    2  A    between atoms: C5_14  and  O2_6 
REMARK    3  A    between atoms: C7_16  and  N1_9 
REMARK       I    between atoms: C8_17  and  N1_9 
REMARK    4  A    between atoms: C3_12  and  C8_17 
REMARK    5  A    between atoms: C12_21  and  C18_27 
ROOT
HETATM    1  O3  UNK     1      21.776  -2.217  35.086  1.00  0.00    -0.267 OA
HETATM    2  N1  UNK     1      19.816  -3.506  34.890  1.00  0.00    -0.320 N 
HETATM    3  C8  UNK     1      20.696  -2.485  34.562  1.00  0.00     0.262 C 
HETATM    4  H4  UNK     1      18.945  -3.583  34.369  1.00  0.00     0.169 HD
ENDROOT
BRANCH   3   5
HETATM    5  C3  UNK     1      20.208  -1.670  33.443  1.00  0.00     0.108 A 
HETATM    6  C9  UNK     1      19.250  -0.559  33.639  1.00  0.00     0.304 A 
HETATM    7  O1  UNK     1      18.862   0.141  32.500  1.00  0.00    -0.271 OA
HETATM    8  O4  UNK     1      18.816  -0.266  34.748  1.00  0.00    -0.259 OA
HETATM    9  C2  UNK     1      19.354  -0.189  31.222  1.00  0.00     0.123 A 
HETATM   10  C1  UNK     1      20.254  -1.237  31.060  1.00  0.00     0.002 A 
HETATM   11  C5  UNK     1      18.908   0.570  30.141  1.00  0.00     0.103 A 
HETATM   12  C4  UNK     1      20.679  -1.988  32.232  1.00  0.00     0.037 A 
HETATM   13  C6  UNK     1      20.719  -1.534  29.777  1.00  0.00     0.014 A 
HETATM   14  C11 UNK     1      20.280  -0.783  28.682  1.00  0.00     0.004 A 
HETATM   15  C10 UNK     1      19.376   0.267  28.865  1.00  0.00     0.040 A 
BRANCH  11  16
HETATM   16  O2  UNK     1      18.029   1.592  30.314  1.00  0.00    -0.349 OA
BRANCH  16  17
HETATM   17  C17 UNK     1      18.329   2.825  29.662  1.00  0.00     0.171 C 
HETATM   18  C19 UNK     1      18.771   3.836  30.700  1.00  0.00     0.034 C 
ENDBRANCH  16  17
ENDBRANCH  11  16
ENDBRANCH   3   5
BRANCH   2  19
HETATM   19  C7  UNK     1      19.961  -4.479  35.909  1.00  0.00     0.074 A 
HETATM   20  C13 UNK     1      19.854  -5.820  35.582  1.00  0.00     0.049 A 
HETATM   21  C12 UNK     1      19.995  -6.780  36.584  1.00  0.00     0.050 A 
HETATM   22  C15 UNK     1      20.241  -6.385  37.899  1.00  0.00     0.019 A 
HETATM   23  C16 UNK     1      20.346  -5.030  38.211  1.00  0.00     0.045 A 
HETATM   24  C14 UNK     1      20.205  -4.070  37.209  1.00  0.00     0.143 A 
HETATM   25  F1  UNK     1      20.307  -2.770  37.522  1.00  0.00    -0.204 F 
BRANCH  21  26
HETATM   26  C18 UNK     1      19.883  -8.229  36.249  1.00  0.00     0.417 C 
HETATM   27  F2  UNK     1      18.605  -8.634  35.990  1.00  0.00    -0.166 F 
HETATM   28  F3  UNK     1      20.601  -8.592  35.146  1.00  0.00    -0.166 F 
HETATM   29  F4  UNK     1      20.326  -9.037  37.256  1.00  0.00    -0.166 F 
ENDBRANCH  21  26
ENDBRANCH   2  19
TORSDOF 5
ENDMDL
MODEL 9
REMARK VINA RESULT:      -9.4      1.488      2.481
REMARK  5 active torsions:
REMARK  status: ('A' for Active; 'I' for Inactive)
REMARK    1  A    between atoms: C17_26  and  O2_6 
REMARK    2  A    between atoms: C5_14  and  O2_6 
REMARK    3  A    between atoms: C7_16  and  N1_9 
REMARK       I    between atoms: C8_17  and  N1_9 
REMARK    4  A    between atoms: C3_12  and  C8_17 
REMARK    5  A    between atoms: C12_21  and  C18_27 
ROOT
HETATM    1  O3  UNK     1      20.155  -5.357  35.111  1.00  0.00    -0.267 OA
HETATM    2  N1  UNK     1      20.454  -5.021  37.422  1.00  0.00    -0.320 N 
HETATM    3  C8  UNK     1      20.147  -4.653  36.120  1.00  0.00     0.262 C 
HETATM    4  H4  UNK     1      20.419  -4.309  38.149  1.00  0.00     0.169 HD
ENDROOT
BRANCH   3   5
HETATM    5  C3  UNK     1      19.775  -3.236  36.017  1.00  0.00     0.108 A 
HETATM    6  C9  UNK     1      20.227  -2.386  34.893  1.00  0.00     0.304 A 
HETATM    7  O1  UNK     1      19.808  -1.058  34.905  1.00  0.00    -0.271 OA
HETATM    8  O4  UNK     1      20.935  -2.824  33.993  1.00  0.00    -0.259 OA
HETATM    9  C2  UNK     1      18.995  -0.546  35.935  1.00  0.00     0.123 A 
HETATM   10  C1  UNK     1      18.582  -1.362  36.982  1.00  0.00     0.002 A 
HETATM   11  C5  UNK     1      18.627   0.797  35.861  1.00  0.00     0.103 A 
HETATM   12  C4  UNK     1      19.003  -2.755  36.997  1.00  0.00     0.037 A 
HETATM   13  C6  UNK     1      17.777  -0.817  37.985  1.00  0.00     0.014 A 
HETATM   14  C11 UNK     1      17.399   0.528  37.925  1.00  0.00     0.004 A 
HETATM   15  C10 UNK     1      17.824   1.332  36.865  1.00  0.00     0.040 A 
BRANCH  11  16
HETATM   16  O2  UNK     1      19.037   1.583  34.831  1.00  0.00    -0.349 OA
BRANCH  16  17
HETATM   17  C17 UNK     1      18.075   1.888  33.822  1.00  0.00     0.171 C 
HETATM   18  C19 UNK     1      18.538   1.299  32.506  1.00  0.00     0.034 C 
ENDBRANCH  16  17
ENDBRANCH  11  16
ENDBRANCH   3   5
BRANCH   2  19
HETATM   19  C7  UNK     1      20.849  -6.298  37.889  1.00  0.00     0.074 A 
HETATM   20  C13 UNK     1      20.019  -7.384  37.667  1.00  0.00     0.049 A 
HETATM   21  C12 UNK     1      20.405  -8.642  38.128  1.00  0.00     0.050 A 
HETATM   22  C15 UNK     1      21.615  -8.797  38.804  1.00  0.00     0.019 A 
HETATM   23  C16 UNK     1      22.439  -7.693  39.020  1.00  0.00     0.045 A 
HETATM   24  C14 UNK     1      22.053  -6.434  38.559  1.00  0.00     0.143 A 
HETATM   25  F1  UNK     1      22.853  -5.379  38.772  1.00  0.00    -0.204 F 
BRANCH  21  26
HETATM   26  C18 UNK     1      19.523  -9.824  37.896  1.00  0.00     0.417 C 
HETATM   27  F2  UNK     1      20.209 -10.973  37.627  1.00  0.00    -0.166 F 
HETATM   28  F3  UNK     1      18.724 -10.126  38.962  1.00  0.00    -0.166 F 
HETATM   29  F4  UNK     1      18.675  -9.647  36.841  1.00  0.00    -0.166 F 
ENDBRANCH  21  26
ENDBRANCH   2  19
TORSDOF 5
ENDMDL
MODEL 10
REMARK VINA RESULT:      -9.2     19.433     22.320
REMARK  5 active torsions:
REMARK  status: ('A' for Active; 'I' for Inactive)
REMARK    1  A    between atoms: C17_26  and  O2_6 
REMARK    2  A    between atoms: C5_14  and  O2_6 
REMARK    3  A    between atoms: C7_16  and  N1_9 
REMARK       I    between atoms: C8_17  and  N1_9 
REMARK    4  A    between atoms: C3_12  and  C8_17 
REMARK    5  A    between atoms: C12_21  and  C18_27 
ROOT
HETATM    1  O3  UNK     1      17.165  -1.342  17.289  1.00  0.00    -0.267 OA
HETATM    2  N1  UNK     1      19.179  -0.366  16.558  1.00  0.00    -0.320 N 
HETATM    3  C8  UNK     1      18.166  -1.313  16.574  1.00  0.00     0.262 C 
HETATM    4  H4  UNK     1      19.957  -0.497  15.914  1.00  0.00     0.169 HD
ENDROOT
BRANCH   3   5
HETATM    5  C3  UNK     1      18.386  -2.378  15.587  1.00  0.00     0.108 A 
HETATM    6  C9  UNK     1      19.186  -2.159  14.361  1.00  0.00     0.304 A 
HETATM    7  O1  UNK     1      19.325  -3.247  13.503  1.00  0.00    -0.271 OA
HETATM    8  O4  UNK     1      19.703  -1.076  14.109  1.00  0.00    -0.259 OA
HETATM    9  C2  UNK     1      18.735  -4.494  13.783  1.00  0.00     0.123 A 
HETATM   10  C1  UNK     1      17.987  -4.678  14.941  1.00  0.00     0.002 A 
HETATM   11  C5  UNK     1      18.929  -5.524  12.863  1.00  0.00     0.103 A 
HETATM   12  C4  UNK     1      17.824  -3.561  15.859  1.00  0.00     0.037 A 
HETATM   13  C6  UNK     1      17.417  -5.930  15.184  1.00  0.00     0.014 A 
HETATM   14  C11 UNK     1      17.602  -6.972  14.270  1.00  0.00     0.004 A 
HETATM   15  C10 UNK     1      18.357  -6.769  13.113  1.00  0.00     0.040 A 
BRANCH  11  16
HETATM   16  O2  UNK     1      19.663  -5.330  11.736  1.00  0.00    -0.349 OA
BRANCH  16  17
HETATM   17  C17 UNK     1      18.951  -5.265  10.500  1.00  0.00     0.171 C 
HETATM   18  C19 UNK     1      18.859  -3.820  10.059  1.00  0.00     0.034 C 
ENDBRANCH  16  17
ENDBRANCH  11  16
ENDBRANCH   3   5
BRANCH   2  19
HETATM   19  C7  UNK     1      19.294   0.791  17.366  1.00  0.00     0.074 A 
HETATM   20  C13 UNK     1      19.391   0.648  18.739  1.00  0.00     0.049 A 
HETATM   21  C12 UNK     1      19.503   1.786  19.538  1.00  0.00     0.050 A 
HETATM   22  C15 UNK     1      19.515   3.051  18.951  1.00  0.00     0.019 A 
HETATM   23  C16 UNK     1      19.416   3.178  17.566  1.00  0.00     0.045 A 
HETATM   24  C14 UNK     1      19.304   2.040  16.767  1.00  0.00     0.143 A 
HETATM   25  F1  UNK     1      19.209   2.174  15.437  1.00  0.00    -0.204 F 
BRANCH  21  26
HETATM   26  C18 UNK     1      19.610   1.650  21.020  1.00  0.00     0.417 C 
HETATM   27  F2  UNK     1      19.625   0.354  21.450  1.00  0.00    -0.166 F 
HETATM   28  F3  UNK     1      20.740   2.211  21.540  1.00  0.00    -0.166 F 
HETATM   29  F4  UNK     1      18.571   2.242  21.678  1.00  0.00    -0.166 F 
ENDBRANCH  21  26
ENDBRANCH   2  19
TORSDOF 5
ENDMDL
