MODEL 1
REMARK VINA RESULT:      -8.8      0.000      0.000
REMARK  7 active torsions:
REMARK  status: ('A' for Active; 'I' for Inactive)
REMARK    1  A    between atoms: C3_9  and  N1_5 
REMARK    2  A    between atoms: C5_11  and  N1_5 
REMARK    3  A    between atoms: C8_14  and  N2_6 
REMARK    4  A    between atoms: C1_7  and  C2_8 
REMARK    5  A    between atoms: C1_7  and  C3_9 
REMARK    6  A    between atoms: C2_8  and  C4_10 
REMARK    7  A    between atoms: C4_10  and  C6_12 
ROOT
HETATM    1  O1  UNK     1      19.620  -1.516  32.877  1.00  0.00    -0.273 OA
HETATM    2  O2  UNK     1      18.743  -1.213  34.961  1.00  0.00    -0.257 OA
HETATM    3  C5  UNK     1      18.467   0.995  32.110  1.00  0.00     0.081 A 
HETATM    4  C7  UNK     1      19.244   0.177  31.143  1.00  0.00     0.027 A 
HETATM    5  C8  UNK     1      18.344   0.477  33.343  1.00  0.00     0.205 A 
HETATM    6  C9  UNK     1      19.790  -1.041  31.561  1.00  0.00     0.092 A 
HETATM    7  C10 UNK     1      19.473   0.545  29.806  1.00  0.00     0.017 A 
HETATM    8  C13 UNK     1      18.899  -0.800  33.818  1.00  0.00     0.324 A 
HETATM    9  C14 UNK     1      20.533  -1.868  30.712  1.00  0.00     0.038 A 
HETATM   10  C15 UNK     1      20.215  -0.273  28.943  1.00  0.00     0.001 A 
HETATM   11  C16 UNK     1      20.744  -1.477  29.395  1.00  0.00     0.003 A 
ENDROOT
BRANCH   3  12
HETATM   12  N1  UNK     1      17.949   2.188  31.677  1.00  0.00    -0.387 N 
HETATM   13  H9  UNK     1      16.965   2.238  31.445  1.00  0.00     0.159 HD
BRANCH  12  14
HETATM   14  C3  UNK     1      18.697   3.414  31.671  1.00  0.00     0.120 C 
BRANCH  14  15
HETATM   15  C1  UNK     1      18.845   3.950  30.249  1.00  0.00     0.020 C 
BRANCH  15  16
HETATM   16  C2  UNK     1      19.224   5.436  30.217  1.00  0.00     0.006 C 
BRANCH  16  17
HETATM   17  C4  UNK     1      20.093   5.858  31.409  1.00  0.00     0.038 C 
BRANCH  17  18
HETATM   18  C6  UNK     1      19.391   6.770  32.382  1.00  0.00    -0.058 A 
HETATM   19  C11 UNK     1      18.084   7.160  32.130  1.00  0.00     0.007 A 
HETATM   20  C17 UNK     1      17.434   8.005  33.029  1.00  0.00     0.001 A 
HETATM   21  C19 UNK     1      18.099   8.449  34.172  1.00  0.00     0.000 A 
HETATM   22  C18 UNK     1      19.413   8.049  34.415  1.00  0.00     0.001 A 
HETATM   23  C12 UNK     1      20.063   7.204  33.515  1.00  0.00     0.007 A 
ENDBRANCH  17  18
ENDBRANCH  16  17
ENDBRANCH  15  16
ENDBRANCH  14  15
ENDBRANCH  12  14
ENDBRANCH   3  12
BRANCH   5  24
HETATM   24  N2  UNK     1      17.605   1.234  34.302  1.00  0.00    -0.107 N 
HETATM   25  O3  UNK     1      16.397   0.991  34.399  1.00  0.00    -0.531 OA
HETATM   26  O4  UNK     1      18.231   2.071  34.961  1.00  0.00    -0.531 OA
ENDBRANCH   5  24
TORSDOF 7
ENDMDL
MODEL 2
REMARK VINA RESULT:      -8.6     14.324     16.471
REMARK  7 active torsions:
REMARK  status: ('A' for Active; 'I' for Inactive)
REMARK    1  A    between atoms: C3_9  and  N1_5 
REMARK    2  A    between atoms: C5_11  and  N1_5 
REMARK    3  A    between atoms: C8_14  and  N2_6 
REMARK    4  A    between atoms: C1_7  and  C2_8 
REMARK    5  A    between atoms: C1_7  and  C3_9 
REMARK    6  A    between atoms: C2_8  and  C4_10 
REMARK    7  A    between atoms: C4_10  and  C6_12 
ROOT
HETATM    1  O1  UNK     1      30.818  -3.880  38.109  1.00  0.00    -0.273 OA
HETATM    2  O2  UNK     1      29.536  -3.800  39.994  1.00  0.00    -0.257 OA
HETATM    3  C5  UNK     1      29.097  -5.948  37.118  1.00  0.00     0.081 A 
HETATM    4  C7  UNK     1      30.259  -5.468  36.326  1.00  0.00     0.027 A 
HETATM    5  C8  UNK     1      28.921  -5.354  38.310  1.00  0.00     0.205 A 
HETATM    6  C9  UNK     1      31.072  -4.457  36.848  1.00  0.00     0.092 A 
HETATM    7  C10 UNK     1      30.611  -5.971  35.061  1.00  0.00     0.017 A 
HETATM    8  C13 UNK     1      29.755  -4.293  38.894  1.00  0.00     0.324 A 
HETATM    9  C14 UNK     1      32.183  -3.952  36.165  1.00  0.00     0.038 A 
HETATM   10  C15 UNK     1      31.723  -5.476  34.365  1.00  0.00     0.001 A 
HETATM   11  C16 UNK     1      32.507  -4.468  34.916  1.00  0.00     0.003 A 
ENDROOT
BRANCH   3  12
HETATM   12  N1  UNK     1      28.312  -6.935  36.580  1.00  0.00    -0.387 N 
HETATM   13  H9  UNK     1      27.660  -6.694  35.844  1.00  0.00     0.159 HD
BRANCH  12  14
HETATM   14  C3  UNK     1      28.466  -8.326  36.904  1.00  0.00     0.120 C 
BRANCH  14  15
HETATM   15  C1  UNK     1      28.827  -9.134  35.660  1.00  0.00     0.020 C 
BRANCH  15  16
HETATM   16  C2  UNK     1      30.217  -9.774  35.756  1.00  0.00     0.006 C 
BRANCH  16  17
HETATM   17  C4  UNK     1      30.918  -9.484  37.090  1.00  0.00     0.038 C 
BRANCH  17  18
HETATM   18  C6  UNK     1      32.149  -8.625  36.956  1.00  0.00    -0.058 A 
HETATM   19  C11 UNK     1      32.520  -7.796  38.004  1.00  0.00     0.007 A 
HETATM   20  C17 UNK     1      33.658  -7.000  37.880  1.00  0.00     0.001 A 
HETATM   21  C19 UNK     1      34.415  -7.044  36.710  1.00  0.00     0.000 A 
HETATM   22  C18 UNK     1      34.032  -7.882  35.662  1.00  0.00     0.001 A 
HETATM   23  C12 UNK     1      32.893  -8.678  35.786  1.00  0.00     0.007 A 
ENDBRANCH  17  18
ENDBRANCH  16  17
ENDBRANCH  15  16
ENDBRANCH  14  15
ENDBRANCH  12  14
ENDBRANCH   3  12
BRANCH   5  24
HETATM   24  N2  UNK     1      27.813  -5.787  39.101  1.00  0.00    -0.107 N 
HETATM   25  O3  UNK     1      26.736  -5.208  38.924  1.00  0.00    -0.531 OA
HETATM   26  O4  UNK     1      28.019  -6.707  39.900  1.00  0.00    -0.531 OA
ENDBRANCH   5  24
TORSDOF 7
ENDMDL
MODEL 3
REMARK VINA RESULT:      -8.5      2.020      3.817
REMARK  7 active torsions:
REMARK  status: ('A' for Active; 'I' for Inactive)
REMARK    1  A    between atoms: C3_9  and  N1_5 
REMARK    2  A    between atoms: C5_11  and  N1_5 
REMARK    3  A    between atoms: C8_14  and  N2_6 
REMARK    4  A    between atoms: C1_7  and  C2_8 
REMARK    5  A    between atoms: C1_7  and  C3_9 
REMARK    6  A    between atoms: C2_8  and  C4_10 
REMARK    7  A    between atoms: C4_10  and  C6_12 
ROOT
HETATM    1  O1  UNK     1      19.489  -1.845  32.148  1.00  0.00    -0.273 OA
HETATM    2  O2  UNK     1      20.400  -2.874  30.327  1.00  0.00    -0.257 OA
HETATM    3  C5  UNK     1      19.438   0.598  30.647  1.00  0.00     0.081 A 
HETATM    4  C7  UNK     1      18.953   0.546  32.051  1.00  0.00     0.027 A 
HETATM    5  C8  UNK     1      19.897  -0.562  30.148  1.00  0.00     0.205 A 
HETATM    6  C9  UNK     1      18.995  -0.668  32.745  1.00  0.00     0.092 A 
HETATM    7  C10 UNK     1      18.444   1.655  32.750  1.00  0.00     0.017 A 
HETATM    8  C13 UNK     1      19.962  -1.854  30.847  1.00  0.00     0.324 A 
HETATM    9  C14 UNK     1      18.557  -0.799  34.067  1.00  0.00     0.038 A 
HETATM   10  C15 UNK     1      18.003   1.540  34.075  1.00  0.00     0.001 A 
HETATM   11  C16 UNK     1      18.059   0.315  34.732  1.00  0.00     0.003 A 
ENDROOT
BRANCH   3  12
HETATM   12  N1  UNK     1      19.379   1.798  29.987  1.00  0.00    -0.387 N 
HETATM   13  H9  UNK     1      20.229   2.334  29.870  1.00  0.00     0.159 HD
BRANCH  12  14
HETATM   14  C3  UNK     1      18.197   2.272  29.322  1.00  0.00     0.120 C 
BRANCH  14  15
HETATM   15  C1  UNK     1      18.160   3.798  29.308  1.00  0.00     0.020 C 
BRANCH  15  16
HETATM   16  C2  UNK     1      19.150   4.420  30.300  1.00  0.00     0.006 C 
BRANCH  16  17
HETATM   17  C4  UNK     1      19.139   5.954  30.273  1.00  0.00     0.038 C 
BRANCH  17  18
HETATM   18  C6  UNK     1      18.937   6.585  31.628  1.00  0.00    -0.058 A 
HETATM   19  C11 UNK     1      19.965   6.547  32.557  1.00  0.00     0.007 A 
HETATM   20  C17 UNK     1      19.779   7.129  33.811  1.00  0.00     0.001 A 
HETATM   21  C19 UNK     1      18.567   7.745  34.119  1.00  0.00     0.000 A 
HETATM   22  C18 UNK     1      17.540   7.777  33.175  1.00  0.00     0.001 A 
HETATM   23  C12 UNK     1      17.727   7.195  31.922  1.00  0.00     0.007 A 
ENDBRANCH  17  18
ENDBRANCH  16  17
ENDBRANCH  15  16
ENDBRANCH  14  15
ENDBRANCH  12  14
ENDBRANCH   3  12
BRANCH   5  24
HETATM   24  N2  UNK     1      20.372  -0.553  28.801  1.00  0.00    -0.107 N 
HETATM   25  O3  UNK     1      21.590  -0.420  28.636  1.00  0.00    -0.531 OA
HETATM   26  O4  UNK     1      19.529  -0.681  27.907  1.00  0.00    -0.531 OA
ENDBRANCH   5  24
TORSDOF 7
ENDMDL
MODEL 4
REMARK VINA RESULT:      -8.5      4.330      8.902
REMARK  7 active torsions:
REMARK  status: ('A' for Active; 'I' for Inactive)
REMARK    1  A    between atoms: C3_9  and  N1_5 
REMARK    2  A    between atoms: C5_11  and  N1_5 
REMARK    3  A    between atoms: C8_14  and  N2_6 
REMARK    4  A    between atoms: C1_7  and  C2_8 
REMARK    5  A    between atoms: C1_7  and  C3_9 
REMARK    6  A    between atoms: C2_8  and  C4_10 
REMARK    7  A    between atoms: C4_10  and  C6_12 
ROOT
HETATM    1  O1  UNK     1      18.856   1.531  31.345  1.00  0.00    -0.273 OA
HETATM    2  O2  UNK     1      17.878   2.860  32.920  1.00  0.00    -0.257 OA
HETATM    3  C5  UNK     1      18.787  -0.626  33.232  1.00  0.00     0.081 A 
HETATM    4  C7  UNK     1      19.359  -0.810  31.873  1.00  0.00     0.027 A 
HETATM    5  C8  UNK     1      18.320   0.603  33.505  1.00  0.00     0.205 A 
HETATM    6  C9  UNK     1      19.371   0.270  30.984  1.00  0.00     0.092 A 
HETATM    7  C10 UNK     1      19.904  -2.019  31.404  1.00  0.00     0.017 A 
HETATM    8  C13 UNK     1      18.320   1.763  32.600  1.00  0.00     0.324 A 
HETATM    9  C14 UNK     1      19.890   0.177  29.688  1.00  0.00     0.038 A 
HETATM   10  C15 UNK     1      20.429  -2.126  30.109  1.00  0.00     0.001 A 
HETATM   11  C16 UNK     1      20.422  -1.030  29.253  1.00  0.00     0.003 A 
ENDROOT
BRANCH   3  12
HETATM   12  N1  UNK     1      18.781  -1.703  34.081  1.00  0.00    -0.387 N 
HETATM   13  H9  UNK     1      18.028  -2.376  34.011  1.00  0.00     0.159 HD
BRANCH  12  14
HETATM   14  C3  UNK     1      19.865  -2.008  34.972  1.00  0.00     0.120 C 
BRANCH  14  15
HETATM   15  C1  UNK     1      19.338  -2.431  36.341  1.00  0.00     0.020 C 
BRANCH  15  16
HETATM   16  C2  UNK     1      20.168  -3.557  36.969  1.00  0.00     0.006 C 
BRANCH  16  17
HETATM   17  C4  UNK     1      19.799  -4.945  36.430  1.00  0.00     0.038 C 
BRANCH  17  18
HETATM   18  C6  UNK     1      19.881  -6.041  37.461  1.00  0.00    -0.058 A 
HETATM   19  C11 UNK     1      20.903  -6.019  38.399  1.00  0.00     0.007 A 
HETATM   20  C17 UNK     1      20.980  -7.034  39.353  1.00  0.00     0.001 A 
HETATM   21  C19 UNK     1      20.034  -8.057  39.359  1.00  0.00     0.000 A 
HETATM   22  C18 UNK     1      19.011  -8.068  38.411  1.00  0.00     0.001 A 
HETATM   23  C12 UNK     1      18.933  -7.053  37.457  1.00  0.00     0.007 A 
ENDBRANCH  17  18
ENDBRANCH  16  17
ENDBRANCH  15  16
ENDBRANCH  14  15
ENDBRANCH  12  14
ENDBRANCH   3  12
BRANCH   5  24
HETATM   24  N2  UNK     1      17.762   0.820  34.802  1.00  0.00    -0.107 N 
HETATM   25  O3  UNK     1      18.529   1.221  35.683  1.00  0.00    -0.531 OA
HETATM   26  O4  UNK     1      16.555   0.591  34.939  1.00  0.00    -0.531 OA
ENDBRANCH   5  24
TORSDOF 7
ENDMDL
MODEL 5
REMARK VINA RESULT:      -8.4      3.916      8.649
REMARK  7 active torsions:
REMARK  status: ('A' for Active; 'I' for Inactive)
REMARK    1  A    between atoms: C3_9  and  N1_5 
REMARK    2  A    between atoms: C5_11  and  N1_5 
REMARK    3  A    between atoms: C8_14  and  N2_6 
REMARK    4  A    between atoms: C1_7  and  C2_8 
REMARK    5  A    between atoms: C1_7  and  C3_9 
REMARK    6  A    between atoms: C2_8  and  C4_10 
REMARK    7  A    between atoms: C4_10  and  C6_12 
ROOT
HETATM    1  O1  UNK     1      16.511  10.199  33.456  1.00  0.00    -0.273 OA
HETATM    2  O2  UNK     1      14.319  10.041  32.844  1.00  0.00    -0.257 OA
HETATM    3  C5  UNK     1      16.736   7.363  33.101  1.00  0.00     0.081 A 
HETATM    4  C7  UNK     1      17.897   8.178  33.542  1.00  0.00     0.027 A 
HETATM    5  C8  UNK     1      15.595   8.041  32.890  1.00  0.00     0.205 A 
HETATM    6  C9  UNK     1      17.742   9.559  33.702  1.00  0.00     0.092 A 
HETATM    7  C10 UNK     1      19.169   7.649  33.821  1.00  0.00     0.017 A 
HETATM    8  C13 UNK     1      15.393   9.489  33.051  1.00  0.00     0.324 A 
HETATM    9  C14 UNK     1      18.786  10.394  34.113  1.00  0.00     0.038 A 
HETATM   10  C15 UNK     1      20.225   8.473  34.236  1.00  0.00     0.001 A 
HETATM   11  C16 UNK     1      20.033   9.844  34.381  1.00  0.00     0.003 A 
ENDROOT
BRANCH   3  12
HETATM   12  N1  UNK     1      16.916   6.013  32.945  1.00  0.00    -0.387 N 
HETATM   13  H9  UNK     1      16.627   5.392  33.690  1.00  0.00     0.159 HD
BRANCH  12  14
HETATM   14  C3  UNK     1      17.362   5.416  31.717  1.00  0.00     0.120 C 
BRANCH  14  15
HETATM   15  C1  UNK     1      18.509   4.442  31.975  1.00  0.00     0.020 C 
BRANCH  15  16
HETATM   16  C2  UNK     1      18.179   3.012  31.529  1.00  0.00     0.006 C 
BRANCH  16  17
HETATM   17  C4  UNK     1      18.535   2.745  30.061  1.00  0.00     0.038 C 
BRANCH  17  18
HETATM   18  C6  UNK     1      19.129   1.382  29.816  1.00  0.00    -0.058 A 
HETATM   19  C11 UNK     1      19.864   0.769  30.820  1.00  0.00     0.007 A 
HETATM   20  C17 UNK     1      20.416  -0.492  30.593  1.00  0.00     0.001 A 
HETATM   21  C19 UNK     1      20.223  -1.127  29.367  1.00  0.00     0.000 A 
HETATM   22  C18 UNK     1      19.481  -0.500  28.366  1.00  0.00     0.001 A 
HETATM   23  C12 UNK     1      18.930   0.762  28.592  1.00  0.00     0.007 A 
ENDBRANCH  17  18
ENDBRANCH  16  17
ENDBRANCH  15  16
ENDBRANCH  14  15
ENDBRANCH  12  14
ENDBRANCH   3  12
BRANCH   5  24
HETATM   24  N2  UNK     1      14.456   7.293  32.464  1.00  0.00    -0.107 N 
HETATM   25  O3  UNK     1      14.354   7.066  31.253  1.00  0.00    -0.531 OA
HETATM   26  O4  UNK     1      13.662   6.931  33.339  1.00  0.00    -0.531 OA
ENDBRANCH   5  24
TORSDOF 7
ENDMDL
MODEL 6
REMARK VINA RESULT:      -8.2      2.373      4.794
REMARK  7 active torsions:
REMARK  status: ('A' for Active; 'I' for Inactive)
REMARK    1  A    between atoms: C3_9  and  N1_5 
REMARK    2  A    between atoms: C5_11  and  N1_5 
REMARK    3  A    between atoms: C8_14  and  N2_6 
REMARK    4  A    between atoms: C1_7  and  C2_8 
REMARK    5  A    between atoms: C1_7  and  C3_9 
REMARK    6  A    between atoms: C2_8  and  C4_10 
REMARK    7  A    between atoms: C4_10  and  C6_12 
ROOT
HETATM    1  O1  UNK     1      19.300  -1.629  36.793  1.00  0.00    -0.273 OA
HETATM    2  O2  UNK     1      21.196  -2.823  36.364  1.00  0.00    -0.257 OA
HETATM    3  C5  UNK     1      18.846  -1.480  33.966  1.00  0.00     0.081 A 
HETATM    4  C7  UNK     1      17.911  -0.845  34.931  1.00  0.00     0.027 A 
HETATM    5  C8  UNK     1      19.900  -2.112  34.508  1.00  0.00     0.205 A 
HETATM    6  C9  UNK     1      18.171  -0.944  36.302  1.00  0.00     0.092 A 
HETATM    7  C10 UNK     1      16.758  -0.133  34.557  1.00  0.00     0.017 A 
HETATM    8  C13 UNK     1      20.210  -2.232  35.941  1.00  0.00     0.324 A 
HETATM    9  C14 UNK     1      17.340  -0.374  37.272  1.00  0.00     0.038 A 
HETATM   10  C15 UNK     1      15.916   0.445  35.518  1.00  0.00     0.001 A 
HETATM   11  C16 UNK     1      16.207   0.324  36.873  1.00  0.00     0.003 A 
ENDROOT
BRANCH   3  12
HETATM   12  N1  UNK     1      18.563  -1.375  32.629  1.00  0.00    -0.387 N 
HETATM   13  H9  UNK     1      17.709  -1.788  32.276  1.00  0.00     0.159 HD
BRANCH  12  14
HETATM   14  C3  UNK     1      19.344  -0.583  31.720  1.00  0.00     0.120 C 
BRANCH  14  15
HETATM   15  C1  UNK     1      18.938   0.887  31.798  1.00  0.00     0.020 C 
BRANCH  15  16
HETATM   16  C2  UNK     1      19.055   1.602  30.446  1.00  0.00     0.006 C 
BRANCH  16  17
HETATM   17  C4  UNK     1      18.093   2.789  30.312  1.00  0.00     0.038 C 
BRANCH  17  18
HETATM   18  C6  UNK     1      18.581   4.047  30.984  1.00  0.00    -0.058 A 
HETATM   19  C11 UNK     1      18.158   4.340  32.272  1.00  0.00     0.007 A 
HETATM   20  C17 UNK     1      18.608   5.504  32.893  1.00  0.00     0.001 A 
HETATM   21  C19 UNK     1      19.477   6.362  32.221  1.00  0.00     0.000 A 
HETATM   22  C18 UNK     1      19.895   6.056  30.925  1.00  0.00     0.001 A 
HETATM   23  C12 UNK     1      19.446   4.892  30.304  1.00  0.00     0.007 A 
ENDBRANCH  17  18
ENDBRANCH  16  17
ENDBRANCH  15  16
ENDBRANCH  14  15
ENDBRANCH  12  14
ENDBRANCH   3  12
BRANCH   5  24
HETATM   24  N2  UNK     1      20.822  -2.736  33.613  1.00  0.00    -0.107 N 
HETATM   25  O3  UNK     1      21.765  -2.048  33.208  1.00  0.00    -0.531 OA
HETATM   26  O4  UNK     1      20.605  -3.916  33.315  1.00  0.00    -0.531 OA
ENDBRANCH   5  24
TORSDOF 7
ENDMDL
MODEL 7
REMARK VINA RESULT:      -8.2      1.031      1.756
REMARK  7 active torsions:
REMARK  status: ('A' for Active; 'I' for Inactive)
REMARK    1  A    between atoms: C3_9  and  N1_5 
REMARK    2  A    between atoms: C5_11  and  N1_5 
REMARK    3  A    between atoms: C8_14  and  N2_6 
REMARK    4  A    between atoms: C1_7  and  C2_8 
REMARK    5  A    between atoms: C1_7  and  C3_9 
REMARK    6  A    between atoms: C2_8  and  C4_10 
REMARK    7  A    between atoms: C4_10  and  C6_12 
ROOT
HETATM    1  O1  UNK     1      19.640  -1.439  32.813  1.00  0.00    -0.273 OA
HETATM    2  O2  UNK     1      18.801  -1.121  34.910  1.00  0.00    -0.257 OA
HETATM    3  C5  UNK     1      18.462   1.060  32.045  1.00  0.00     0.081 A 
HETATM    4  C7  UNK     1      19.223   0.236  31.071  1.00  0.00     0.027 A 
HETATM    5  C8  UNK     1      18.365   0.553  33.286  1.00  0.00     0.205 A 
HETATM    6  C9  UNK     1      19.782  -0.976  31.489  1.00  0.00     0.092 A 
HETATM    7  C10 UNK     1      19.426   0.594  29.726  1.00  0.00     0.017 A 
HETATM    8  C13 UNK     1      18.934  -0.718  33.761  1.00  0.00     0.324 A 
HETATM    9  C14 UNK     1      20.513  -1.807  30.633  1.00  0.00     0.038 A 
HETATM   10  C15 UNK     1      20.154  -0.229  28.857  1.00  0.00     0.001 A 
HETATM   11  C16 UNK     1      20.697  -1.428  29.309  1.00  0.00     0.003 A 
ENDROOT
BRANCH   3  12
HETATM   12  N1  UNK     1      17.930   2.247  31.612  1.00  0.00    -0.387 N 
HETATM   13  H9  UNK     1      16.926   2.367  31.625  1.00  0.00     0.159 HD
BRANCH  12  14
HETATM   14  C3  UNK     1      18.732   3.390  31.273  1.00  0.00     0.120 C 
BRANCH  14  15
HETATM   15  C1  UNK     1      18.418   4.563  32.199  1.00  0.00     0.020 C 
BRANCH  15  16
HETATM   16  C2  UNK     1      19.262   5.804  31.882  1.00  0.00     0.006 C 
BRANCH  16  17
HETATM   17  C4  UNK     1      18.932   6.999  32.785  1.00  0.00     0.038 C 
BRANCH  17  18
HETATM   18  C6  UNK     1      17.459   7.309  32.870  1.00  0.00    -0.058 A 
HETATM   19  C11 UNK     1      16.796   7.146  34.077  1.00  0.00     0.007 A 
HETATM   20  C17 UNK     1      15.433   7.432  34.155  1.00  0.00     0.001 A 
HETATM   21  C19 UNK     1      14.749   7.879  33.026  1.00  0.00     0.000 A 
HETATM   22  C18 UNK     1      15.428   8.040  31.817  1.00  0.00     0.001 A 
HETATM   23  C12 UNK     1      16.790   7.754  31.739  1.00  0.00     0.007 A 
ENDBRANCH  17  18
ENDBRANCH  16  17
ENDBRANCH  15  16
ENDBRANCH  14  15
ENDBRANCH  12  14
ENDBRANCH   3  12
BRANCH   5  24
HETATM   24  N2  UNK     1      17.641   1.315  34.252  1.00  0.00    -0.107 N 
HETATM   25  O3  UNK     1      16.437   1.065  34.377  1.00  0.00    -0.531 OA
HETATM   26  O4  UNK     1      18.275   2.163  34.888  1.00  0.00    -0.531 OA
ENDBRANCH   5  24
TORSDOF 7
ENDMDL
MODEL 8
REMARK VINA RESULT:      -8.0     13.092     15.258
REMARK  7 active torsions:
REMARK  status: ('A' for Active; 'I' for Inactive)
REMARK    1  A    between atoms: C3_9  and  N1_5 
REMARK    2  A    between atoms: C5_11  and  N1_5 
REMARK    3  A    between atoms: C8_14  and  N2_6 
REMARK    4  A    between atoms: C1_7  and  C2_8 
REMARK    5  A    between atoms: C1_7  and  C3_9 
REMARK    6  A    between atoms: C2_8  and  C4_10 
REMARK    7  A    between atoms: C4_10  and  C6_12 
ROOT
HETATM    1  O1  UNK     1      30.868  -3.862  38.119  1.00  0.00    -0.273 OA
HETATM    2  O2  UNK     1      29.497  -3.732  39.938  1.00  0.00    -0.257 OA
HETATM    3  C5  UNK     1      29.222  -5.991  37.127  1.00  0.00     0.081 A 
HETATM    4  C7  UNK     1      30.414  -5.524  36.373  1.00  0.00     0.027 A 
HETATM    5  C8  UNK     1      28.983  -5.357  38.287  1.00  0.00     0.205 A 
HETATM    6  C9  UNK     1      31.188  -4.481  36.894  1.00  0.00     0.092 A 
HETATM    7  C10 UNK     1      30.833  -6.068  35.146  1.00  0.00     0.017 A 
HETATM    8  C13 UNK     1      29.774  -4.263  38.869  1.00  0.00     0.324 A 
HETATM    9  C14 UNK     1      32.323  -3.985  36.245  1.00  0.00     0.038 A 
HETATM   10  C15 UNK     1      31.969  -5.582  34.484  1.00  0.00     0.001 A 
HETATM   11  C16 UNK     1      32.713  -4.542  35.033  1.00  0.00     0.003 A 
ENDROOT
BRANCH   3  12
HETATM   12  N1  UNK     1      28.477  -7.009  36.591  1.00  0.00    -0.387 N 
HETATM   13  H9  UNK     1      27.765  -6.786  35.908  1.00  0.00     0.159 HD
BRANCH  12  14
HETATM   14  C3  UNK     1      28.750  -8.398  36.837  1.00  0.00     0.120 C 
BRANCH  14  15
HETATM   15  C1  UNK     1      28.258  -9.260  35.677  1.00  0.00     0.020 C 
BRANCH  15  16
HETATM   16  C2  UNK     1      29.332  -9.470  34.603  1.00  0.00     0.006 C 
BRANCH  16  17
HETATM   17  C4  UNK     1      28.796  -9.289  33.177  1.00  0.00     0.038 C 
BRANCH  17  18
HETATM   18  C6  UNK     1      29.032  -7.913  32.608  1.00  0.00    -0.058 A 
HETATM   19  C11 UNK     1      30.149  -7.685  31.818  1.00  0.00     0.007 A 
HETATM   20  C17 UNK     1      30.368  -6.412  31.292  1.00  0.00     0.001 A 
HETATM   21  C19 UNK     1      29.467  -5.383  31.560  1.00  0.00     0.000 A 
HETATM   22  C18 UNK     1      28.347  -5.626  32.356  1.00  0.00     0.001 A 
HETATM   23  C12 UNK     1      28.127  -6.899  32.882  1.00  0.00     0.007 A 
ENDBRANCH  17  18
ENDBRANCH  16  17
ENDBRANCH  15  16
ENDBRANCH  14  15
ENDBRANCH  12  14
ENDBRANCH   3  12
BRANCH   5  24
HETATM   24  N2  UNK     1      27.845  -5.777  39.042  1.00  0.00    -0.107 N 
HETATM   25  O3  UNK     1      26.776  -5.201  38.813  1.00  0.00    -0.531 OA
HETATM   26  O4  UNK     1      28.019  -6.684  39.862  1.00  0.00    -0.531 OA
ENDBRANCH   5  24
TORSDOF 7
ENDMDL
MODEL 9
REMARK VINA RESULT:      -8.0     14.206     16.176
REMARK  7 active torsions:
REMARK  status: ('A' for Active; 'I' for Inactive)
REMARK    1  A    between atoms: C3_9  and  N1_5 
REMARK    2  A    between atoms: C5_11  and  N1_5 
REMARK    3  A    between atoms: C8_14  and  N2_6 
REMARK    4  A    between atoms: C1_7  and  C2_8 
REMARK    5  A    between atoms: C1_7  and  C3_9 
REMARK    6  A    between atoms: C2_8  and  C4_10 
REMARK    7  A    between atoms: C4_10  and  C6_12 
ROOT
HETATM    1  O1  UNK     1      31.545  -5.256  36.666  1.00  0.00    -0.273 OA
HETATM    2  O2  UNK     1      30.755  -3.197  37.248  1.00  0.00    -0.257 OA
HETATM    3  C5  UNK     1      29.756  -6.402  38.593  1.00  0.00     0.081 A 
HETATM    4  C7  UNK     1      30.663  -7.255  37.781  1.00  0.00     0.027 A 
HETATM    5  C8  UNK     1      29.841  -5.081  38.363  1.00  0.00     0.205 A 
HETATM    6  C9  UNK     1      31.518  -6.653  36.851  1.00  0.00     0.092 A 
HETATM    7  C10 UNK     1      30.727  -8.655  37.882  1.00  0.00     0.017 A 
HETATM    8  C13 UNK     1      30.729  -4.412  37.401  1.00  0.00     0.324 A 
HETATM    9  C14 UNK     1      32.400  -7.386  36.050  1.00  0.00     0.038 A 
HETATM   10  C15 UNK     1      31.606  -9.403  37.087  1.00  0.00     0.001 A 
HETATM   11  C16 UNK     1      32.441  -8.769  36.172  1.00  0.00     0.003 A 
ENDROOT
BRANCH   3  12
HETATM   12  N1  UNK     1      28.923  -7.017  39.490  1.00  0.00    -0.387 N 
HETATM   13  H9  UNK     1      29.204  -7.070  40.461  1.00  0.00     0.159 HD
BRANCH  12  14
HETATM   14  C3  UNK     1      27.600  -7.466  39.155  1.00  0.00     0.120 C 
BRANCH  14  15
HETATM   15  C1  UNK     1      27.462  -8.968  39.393  1.00  0.00     0.020 C 
BRANCH  15  16
HETATM   16  C2  UNK     1      27.205  -9.748  38.097  1.00  0.00     0.006 C 
BRANCH  16  17
HETATM   17  C4  UNK     1      26.699  -8.858  36.955  1.00  0.00     0.038 C 
BRANCH  17  18
HETATM   18  C6  UNK     1      27.699  -8.669  35.842  1.00  0.00    -0.058 A 
HETATM   19  C11 UNK     1      28.013  -7.386  35.420  1.00  0.00     0.007 A 
HETATM   20  C17 UNK     1      28.937  -7.210  34.390  1.00  0.00     0.001 A 
HETATM   21  C19 UNK     1      29.537  -8.319  33.795  1.00  0.00     0.000 A 
HETATM   22  C18 UNK     1      29.213  -9.604  34.230  1.00  0.00     0.001 A 
HETATM   23  C12 UNK     1      28.289  -9.780  35.260  1.00  0.00     0.007 A 
ENDBRANCH  17  18
ENDBRANCH  16  17
ENDBRANCH  15  16
ENDBRANCH  14  15
ENDBRANCH  12  14
ENDBRANCH   3  12
BRANCH   5  24
HETATM   24  N2  UNK     1      28.985  -4.227  39.124  1.00  0.00    -0.107 N 
HETATM   25  O3  UNK     1      27.808  -4.141  38.757  1.00  0.00    -0.531 OA
HETATM   26  O4  UNK     1      29.488  -3.643  40.090  1.00  0.00    -0.531 OA
ENDBRANCH   5  24
TORSDOF 7
ENDMDL
MODEL 10
REMARK VINA RESULT:      -7.9     14.979     16.977
REMARK  7 active torsions:
REMARK  status: ('A' for Active; 'I' for Inactive)
REMARK    1  A    between atoms: C3_9  and  N1_5 
REMARK    2  A    between atoms: C5_11  and  N1_5 
REMARK    3  A    between atoms: C8_14  and  N2_6 
REMARK    4  A    between atoms: C1_7  and  C2_8 
REMARK    5  A    between atoms: C1_7  and  C3_9 
REMARK    6  A    between atoms: C2_8  and  C4_10 
REMARK    7  A    between atoms: C4_10  and  C6_12 
ROOT
HETATM    1  O1  UNK     1      32.715  -8.268  34.411  1.00  0.00    -0.273 OA
HETATM    2  O2  UNK     1      34.938  -7.782  34.564  1.00  0.00    -0.257 OA
HETATM    3  C5  UNK     1      32.150  -5.549  35.127  1.00  0.00     0.081 A 
HETATM    4  C7  UNK     1      31.056  -6.520  34.867  1.00  0.00     0.027 A 
HETATM    5  C8  UNK     1      33.397  -6.033  35.007  1.00  0.00     0.205 A 
HETATM    6  C9  UNK     1      31.377  -7.837  34.520  1.00  0.00     0.092 A 
HETATM    7  C10 UNK     1      29.688  -6.206  34.950  1.00  0.00     0.017 A 
HETATM    8  C13 UNK     1      33.774  -7.409  34.650  1.00  0.00     0.324 A 
HETATM    9  C14 UNK     1      30.406  -8.809  34.260  1.00  0.00     0.038 A 
HETATM   10  C15 UNK     1      28.703  -7.170  34.694  1.00  0.00     0.001 A 
HETATM   11  C16 UNK     1      29.061  -8.469  34.349  1.00  0.00     0.003 A 
ENDROOT
BRANCH   3  12
HETATM   12  N1  UNK     1      31.808  -4.264  35.458  1.00  0.00    -0.387 N 
HETATM   13  H9  UNK     1      31.432  -3.657  34.740  1.00  0.00     0.159 HD
BRANCH  12  14
HETATM   14  C3  UNK     1      31.817  -3.770  36.807  1.00  0.00     0.120 C 
BRANCH  14  15
HETATM   15  C1  UNK     1      30.414  -3.811  37.407  1.00  0.00     0.020 C 
BRANCH  15  16
HETATM   16  C2  UNK     1      30.373  -4.531  38.761  1.00  0.00     0.006 C 
BRANCH  16  17
HETATM   17  C4  UNK     1      29.442  -5.749  38.762  1.00  0.00     0.038 C 
BRANCH  17  18
HETATM   18  C6  UNK     1      30.138  -7.048  38.442  1.00  0.00    -0.058 A 
HETATM   19  C11 UNK     1      29.381  -8.182  38.188  1.00  0.00     0.007 A 
HETATM   20  C17 UNK     1      30.024  -9.384  37.893  1.00  0.00     0.001 A 
HETATM   21  C19 UNK     1      31.417  -9.437  37.853  1.00  0.00     0.000 A 
HETATM   22  C18 UNK     1      32.166  -8.289  38.110  1.00  0.00     0.001 A 
HETATM   23  C12 UNK     1      31.523  -7.088  38.406  1.00  0.00     0.007 A 
ENDBRANCH  17  18
ENDBRANCH  16  17
ENDBRANCH  15  16
ENDBRANCH  14  15
ENDBRANCH  12  14
ENDBRANCH   3  12
BRANCH   5  24
HETATM   24  N2  UNK     1      34.478  -5.130  35.248  1.00  0.00    -0.107 N 
HETATM   25  O3  UNK     1      34.789  -4.368  34.326  1.00  0.00    -0.531 OA
HETATM   26  O4  UNK     1      35.014  -5.180  36.360  1.00  0.00    -0.531 OA
ENDBRANCH   5  24
TORSDOF 7
ENDMDL
