MODEL 1
REMARK VINA RESULT:      -9.6      0.000      0.000
REMARK  5 active torsions:
REMARK  status: ('A' for Active; 'I' for Inactive)
REMARK    1  A    between atoms: C19_22  and  O2_2 
REMARK    2  A    between atoms: C20_23  and  O3_3 
REMARK    3  A    between atoms: C13_16  and  C8_11 
REMARK    4  A    between atoms: C13_16  and  C14_17 
REMARK    5  A    between atoms: C15_18  and  C16_19 
ROOT
HETATM    1  O1  UNK     1      18.181   2.476  28.418  1.00  0.00    -0.288 OA
HETATM    2  C13 UNK     1      18.565   2.275  29.579  1.00  0.00     0.183 C 
ENDROOT
BRANCH   2   3
HETATM    3  C8  UNK     1      19.142   0.993  29.961  1.00  0.00     0.025 A 
HETATM    4  C11 UNK     1      19.825   0.244  28.984  1.00  0.00     0.017 A 
HETATM    5  C7  UNK     1      20.403  -0.998  29.292  1.00  0.00     0.009 A 
HETATM    6  C4  UNK     1      20.291  -1.484  30.583  1.00  0.00    -0.046 A 
HETATM    7  C1  UNK     1      19.622  -0.740  31.519  1.00  0.00    -0.012 A 
HETATM    8  C2  UNK     1      20.806  -2.764  31.170  1.00  0.00     0.044 A 
HETATM    9  C5  UNK     1      19.617  -1.384  32.729  1.00  0.00    -0.046 A 
HETATM   10  C6  UNK     1      19.028   0.499  31.275  1.00  0.00    -0.011 A 
HETATM   11  C3  UNK     1      20.344  -2.694  32.652  1.00  0.00     0.044 A 
HETATM   12  C9  UNK     1      18.987  -0.788  33.807  1.00  0.00     0.008 A 
HETATM   13  C12 UNK     1      18.370   0.462  33.623  1.00  0.00     0.001 A 
HETATM   14  C10 UNK     1      18.386   1.106  32.370  1.00  0.00     0.013 A 
ENDBRANCH   2   3
BRANCH   2  15
HETATM   15  C14 UNK     1      18.474   3.359  30.614  1.00  0.00     0.056 C 
HETATM   16  C15 UNK     1      19.011   4.567  30.386  1.00  0.00     0.015 C 
BRANCH  16  17
HETATM   17  C16 UNK     1      18.985   5.686  31.344  1.00  0.00    -0.033 A 
HETATM   18  C17 UNK     1      17.925   6.578  31.317  1.00  0.00     0.051 A 
HETATM   19  C19 UNK     1      17.901   7.638  32.224  1.00  0.00     0.102 A 
HETATM   20  C20 UNK     1      18.937   7.792  33.144  1.00  0.00     0.101 A 
HETATM   21  C21 UNK     1      19.998   6.886  33.159  1.00  0.00     0.040 A 
HETATM   22  C18 UNK     1      20.021   5.826  32.252  1.00  0.00     0.014 A 
BRANCH  19  23
HETATM   23  O2  UNK     1      16.859   8.516  32.199  1.00  0.00    -0.353 OA
HETATM   24  C22 UNK     1      15.569   7.985  31.904  1.00  0.00     0.210 C 
ENDBRANCH  19  23
BRANCH  20  25
HETATM   25  O3  UNK     1      18.924   8.822  34.034  1.00  0.00    -0.353 OA
HETATM   26  C23 UNK     1      20.181   9.230  34.571  1.00  0.00     0.210 C 
ENDBRANCH  20  25
ENDBRANCH  16  17
ENDBRANCH   2  15
TORSDOF 5
ENDMDL
MODEL 2
REMARK VINA RESULT:      -9.6      6.895     10.406
REMARK  5 active torsions:
REMARK  status: ('A' for Active; 'I' for Inactive)
REMARK    1  A    between atoms: C19_22  and  O2_2 
REMARK    2  A    between atoms: C20_23  and  O3_3 
REMARK    3  A    between atoms: C13_16  and  C8_11 
REMARK    4  A    between atoms: C13_16  and  C14_17 
REMARK    5  A    between atoms: C15_18  and  C16_19 
ROOT
HETATM    1  O1  UNK     1      22.429  -5.188  37.767  1.00  0.00    -0.288 OA
HETATM    2  C13 UNK     1      21.241  -5.508  37.622  1.00  0.00     0.183 C 
ENDROOT
BRANCH   2   3
HETATM    3  C8  UNK     1      20.767  -6.822  38.036  1.00  0.00     0.025 A 
HETATM    4  C11 UNK     1      20.153  -6.950  39.297  1.00  0.00     0.017 A 
HETATM    5  C7  UNK     1      19.675  -8.190  39.751  1.00  0.00     0.009 A 
HETATM    6  C4  UNK     1      19.818  -9.298  38.935  1.00  0.00    -0.046 A 
HETATM    7  C1  UNK     1      20.418  -9.154  37.712  1.00  0.00    -0.012 A 
HETATM    8  C2  UNK     1      19.403 -10.720  39.174  1.00  0.00     0.044 A 
HETATM    9  C5  UNK     1      20.468 -10.356  37.056  1.00  0.00    -0.046 A 
HETATM   10  C6  UNK     1      20.912  -7.950  37.206  1.00  0.00    -0.011 A 
HETATM   11  C3  UNK     1      19.849 -11.449  37.876  1.00  0.00     0.044 A 
HETATM   12  C9  UNK     1      21.041 -10.414  35.798  1.00  0.00     0.008 A 
HETATM   13  C12 UNK     1      21.556  -9.234  35.235  1.00  0.00     0.001 A 
HETATM   14  C10 UNK     1      21.496  -8.009  35.927  1.00  0.00     0.013 A 
ENDBRANCH   2   3
BRANCH   2  15
HETATM   15  C14 UNK     1      20.252  -4.537  37.043  1.00  0.00     0.056 C 
HETATM   16  C15 UNK     1      20.352  -3.226  37.304  1.00  0.00     0.015 C 
BRANCH  16  17
HETATM   17  C16 UNK     1      19.424  -2.200  36.795  1.00  0.00    -0.033 A 
HETATM   18  C17 UNK     1      19.584  -1.720  35.506  1.00  0.00     0.051 A 
HETATM   19  C19 UNK     1      18.706  -0.749  35.025  1.00  0.00     0.102 A 
HETATM   20  C20 UNK     1      17.680  -0.272  35.839  1.00  0.00     0.101 A 
HETATM   21  C21 UNK     1      17.531  -0.765  37.136  1.00  0.00     0.040 A 
HETATM   22  C18 UNK     1      18.410  -1.736  37.616  1.00  0.00     0.014 A 
BRANCH  19  23
HETATM   23  O2  UNK     1      18.861  -0.275  33.756  1.00  0.00    -0.353 OA
HETATM   24  C22 UNK     1      18.813  -1.228  32.697  1.00  0.00     0.210 C 
ENDBRANCH  19  23
BRANCH  20  25
HETATM   25  O3  UNK     1      16.816   0.676  35.381  1.00  0.00    -0.353 OA
HETATM   26  C23 UNK     1      15.436   0.500  35.693  1.00  0.00     0.210 C 
ENDBRANCH  20  25
ENDBRANCH  16  17
ENDBRANCH   2  15
TORSDOF 5
ENDMDL
MODEL 3
REMARK VINA RESULT:      -9.3      0.906      2.308
REMARK  5 active torsions:
REMARK  status: ('A' for Active; 'I' for Inactive)
REMARK    1  A    between atoms: C19_22  and  O2_2 
REMARK    2  A    between atoms: C20_23  and  O3_3 
REMARK    3  A    between atoms: C13_16  and  C8_11 
REMARK    4  A    between atoms: C13_16  and  C14_17 
REMARK    5  A    between atoms: C15_18  and  C16_19 
ROOT
HETATM    1  O1  UNK     1      17.447   2.425  29.700  1.00  0.00    -0.288 OA
HETATM    2  C13 UNK     1      18.182   2.504  30.695  1.00  0.00     0.183 C 
ENDROOT
BRANCH   2   3
HETATM    3  C8  UNK     1      18.649   1.302  31.373  1.00  0.00     0.025 A 
HETATM    4  C11 UNK     1      18.344   1.139  32.738  1.00  0.00     0.017 A 
HETATM    5  C7  UNK     1      18.766   0.002  33.447  1.00  0.00     0.009 A 
HETATM    6  C4  UNK     1      19.495  -0.967  32.779  1.00  0.00    -0.046 A 
HETATM    7  C1  UNK     1      19.782  -0.789  31.452  1.00  0.00    -0.012 A 
HETATM    8  C2  UNK     1      20.061  -2.259  33.291  1.00  0.00     0.044 A 
HETATM    9  C5  UNK     1      20.507  -1.848  30.971  1.00  0.00    -0.046 A 
HETATM   10  C6  UNK     1      19.391   0.316  30.694  1.00  0.00    -0.011 A 
HETATM   11  C3  UNK     1      20.758  -2.867  32.043  1.00  0.00     0.044 A 
HETATM   12  C9  UNK     1      20.894  -1.852  29.643  1.00  0.00     0.008 A 
HETATM   13  C12 UNK     1      20.530  -0.766  28.829  1.00  0.00     0.001 A 
HETATM   14  C10 UNK     1      19.785   0.314  29.344  1.00  0.00     0.013 A 
ENDBRANCH   2   3
BRANCH   2  15
HETATM   15  C14 UNK     1      18.635   3.840  31.209  1.00  0.00     0.056 C 
HETATM   16  C15 UNK     1      17.880   4.527  32.080  1.00  0.00     0.015 C 
BRANCH  16  17
HETATM   17  C16 UNK     1      18.232   5.849  32.628  1.00  0.00    -0.033 A 
HETATM   18  C17 UNK     1      17.352   6.906  32.464  1.00  0.00     0.051 A 
HETATM   19  C19 UNK     1      17.684   8.158  32.983  1.00  0.00     0.102 A 
HETATM   20  C20 UNK     1      18.892   8.335  33.657  1.00  0.00     0.101 A 
HETATM   21  C21 UNK     1      19.768   7.261  33.812  1.00  0.00     0.040 A 
HETATM   22  C18 UNK     1      19.435   6.009  33.294  1.00  0.00     0.014 A 
BRANCH  19  23
HETATM   23  O2  UNK     1      16.820   9.200  32.825  1.00  0.00    -0.353 OA
HETATM   24  C22 UNK     1      15.488   8.883  32.424  1.00  0.00     0.210 C 
ENDBRANCH  19  23
BRANCH  20  25
HETATM   25  O3  UNK     1      19.228   9.552  34.167  1.00  0.00    -0.353 OA
HETATM   26  C23 UNK     1      20.586   9.738  34.559  1.00  0.00     0.210 C 
ENDBRANCH  20  25
ENDBRANCH  16  17
ENDBRANCH   2  15
TORSDOF 5
ENDMDL
MODEL 4
REMARK VINA RESULT:      -9.2      1.659      2.419
REMARK  5 active torsions:
REMARK  status: ('A' for Active; 'I' for Inactive)
REMARK    1  A    between atoms: C19_22  and  O2_2 
REMARK    2  A    between atoms: C20_23  and  O3_3 
REMARK    3  A    between atoms: C13_16  and  C8_11 
REMARK    4  A    between atoms: C13_16  and  C14_17 
REMARK    5  A    between atoms: C15_18  and  C16_19 
ROOT
HETATM    1  O1  UNK     1      17.510   1.893  33.781  1.00  0.00    -0.288 OA
HETATM    2  C13 UNK     1      17.999   2.436  32.780  1.00  0.00     0.183 C 
ENDROOT
BRANCH   2   3
HETATM    3  C8  UNK     1      18.606   1.640  31.722  1.00  0.00     0.025 A 
HETATM    4  C11 UNK     1      18.718   2.204  30.436  1.00  0.00     0.017 A 
HETATM    5  C7  UNK     1      19.294   1.486  29.375  1.00  0.00     0.009 A 
HETATM    6  C4  UNK     1      19.753   0.202  29.611  1.00  0.00    -0.046 A 
HETATM    7  C1  UNK     1      19.634  -0.329  30.868  1.00  0.00    -0.012 A 
HETATM    8  C2  UNK     1      20.399  -0.770  28.668  1.00  0.00     0.044 A 
HETATM    9  C5  UNK     1      20.142  -1.601  30.902  1.00  0.00    -0.046 A 
HETATM   10  C6  UNK     1      19.073   0.333  31.962  1.00  0.00    -0.011 A 
HETATM   11  C3  UNK     1      20.670  -2.013  29.560  1.00  0.00     0.044 A 
HETATM   12  C9  UNK     1      20.113  -2.307  32.092  1.00  0.00     0.008 A 
HETATM   13  C12 UNK     1      19.560  -1.693  33.229  1.00  0.00     0.001 A 
HETATM   14  C10 UNK     1      19.042  -0.384  33.172  1.00  0.00     0.013 A 
ENDBRANCH   2   3
BRANCH   2  15
HETATM   15  C14 UNK     1      17.953   3.929  32.619  1.00  0.00     0.056 C 
HETATM   16  C15 UNK     1      18.255   4.735  33.647  1.00  0.00     0.015 C 
BRANCH  16  17
HETATM   17  C16 UNK     1      18.224   6.208  33.591  1.00  0.00    -0.033 A 
HETATM   18  C17 UNK     1      17.232   6.837  32.856  1.00  0.00     0.051 A 
HETATM   19  C19 UNK     1      17.202   8.230  32.802  1.00  0.00     0.102 A 
HETATM   20  C20 UNK     1      18.165   8.975  33.483  1.00  0.00     0.101 A 
HETATM   21  C21 UNK     1      19.157   8.327  34.218  1.00  0.00     0.040 A 
HETATM   22  C18 UNK     1      19.186   6.933  34.272  1.00  0.00     0.014 A 
BRANCH  19  23
HETATM   23  O2  UNK     1      16.228   8.852  32.080  1.00  0.00    -0.353 OA
HETATM   24  C22 UNK     1      14.968   9.042  32.721  1.00  0.00     0.210 C 
ENDBRANCH  19  23
BRANCH  20  25
HETATM   25  O3  UNK     1      18.146  10.336  33.439  1.00  0.00    -0.353 OA
HETATM   26  C23 UNK     1      19.145  11.023  34.189  1.00  0.00     0.210 C 
ENDBRANCH  20  25
ENDBRANCH  16  17
ENDBRANCH   2  15
TORSDOF 5
ENDMDL
MODEL 5
REMARK VINA RESULT:      -9.0      2.752      9.325
REMARK  5 active torsions:
REMARK  status: ('A' for Active; 'I' for Inactive)
REMARK    1  A    between atoms: C19_22  and  O2_2 
REMARK    2  A    between atoms: C20_23  and  O3_3 
REMARK    3  A    between atoms: C13_16  and  C8_11 
REMARK    4  A    between atoms: C13_16  and  C14_17 
REMARK    5  A    between atoms: C15_18  and  C16_19 
ROOT
HETATM    1  O1  UNK     1      20.526   8.791  34.533  1.00  0.00    -0.288 OA
HETATM    2  C13 UNK     1      19.387   8.517  34.130  1.00  0.00     0.183 C 
ENDROOT
BRANCH   2   3
HETATM    3  C8  UNK     1      18.346   9.535  34.091  1.00  0.00     0.025 A 
HETATM    4  C11 UNK     1      18.730  10.890  34.074  1.00  0.00     0.017 A 
HETATM    5  C7  UNK     1      17.773  11.917  34.036  1.00  0.00     0.009 A 
HETATM    6  C4  UNK     1      16.431  11.577  34.016  1.00  0.00    -0.046 A 
HETATM    7  C1  UNK     1      16.078  10.254  34.033  1.00  0.00    -0.012 A 
HETATM    8  C2  UNK     1      15.221  12.464  33.977  1.00  0.00     0.044 A 
HETATM    9  C5  UNK     1      14.715  10.120  34.010  1.00  0.00    -0.046 A 
HETATM   10  C6  UNK     1      16.981   9.190  34.071  1.00  0.00    -0.011 A 
HETATM   11  C3  UNK     1      14.037  11.458  33.971  1.00  0.00     0.044 A 
HETATM   12  C9  UNK     1      14.161   8.852  34.023  1.00  0.00     0.008 A 
HETATM   13  C12 UNK     1      15.019   7.740  34.060  1.00  0.00     0.001 A 
HETATM   14  C10 UNK     1      16.419   7.900  34.085  1.00  0.00     0.013 A 
ENDBRANCH   2   3
BRANCH   2  15
HETATM   15  C14 UNK     1      19.058   7.135  33.644  1.00  0.00     0.056 C 
HETATM   16  C15 UNK     1      19.267   6.795  32.364  1.00  0.00     0.015 C 
BRANCH  16  17
HETATM   17  C16 UNK     1      18.962   5.471  31.791  1.00  0.00    -0.033 A 
HETATM   18  C17 UNK     1      18.395   4.498  32.596  1.00  0.00     0.051 A 
HETATM   19  C19 UNK     1      18.107   3.245  32.055  1.00  0.00     0.102 A 
HETATM   20  C20 UNK     1      18.391   2.983  30.715  1.00  0.00     0.101 A 
HETATM   21  C21 UNK     1      18.964   3.973  29.916  1.00  0.00     0.040 A 
HETATM   22  C18 UNK     1      19.251   5.226  30.459  1.00  0.00     0.014 A 
BRANCH  19  23
HETATM   23  O2  UNK     1      17.548   2.286  32.845  1.00  0.00    -0.353 OA
HETATM   24  C22 UNK     1      18.278   1.897  34.007  1.00  0.00     0.210 C 
ENDBRANCH  19  23
BRANCH  20  25
HETATM   25  O3  UNK     1      18.115   1.764  30.174  1.00  0.00    -0.353 OA
HETATM   26  C23 UNK     1      17.857   1.720  28.773  1.00  0.00     0.210 C 
ENDBRANCH  20  25
ENDBRANCH  16  17
ENDBRANCH   2  15
TORSDOF 5
ENDMDL
MODEL 6
REMARK VINA RESULT:      -9.0      3.038      8.055
REMARK  5 active torsions:
REMARK  status: ('A' for Active; 'I' for Inactive)
REMARK    1  A    between atoms: C19_22  and  O2_2 
REMARK    2  A    between atoms: C20_23  and  O3_3 
REMARK    3  A    between atoms: C13_16  and  C8_11 
REMARK    4  A    between atoms: C13_16  and  C14_17 
REMARK    5  A    between atoms: C15_18  and  C16_19 
ROOT
HETATM    1  O1  UNK     1      18.644   4.347  29.904  1.00  0.00    -0.288 OA
HETATM    2  C13 UNK     1      18.670   4.290  31.142  1.00  0.00     0.183 C 
ENDROOT
BRANCH   2   3
HETATM    3  C8  UNK     1      18.905   5.487  31.939  1.00  0.00     0.025 A 
HETATM    4  C11 UNK     1      20.220   5.766  32.360  1.00  0.00     0.017 A 
HETATM    5  C7  UNK     1      20.510   6.905  33.129  1.00  0.00     0.009 A 
HETATM    6  C4  UNK     1      19.475   7.758  33.474  1.00  0.00    -0.046 A 
HETATM    7  C1  UNK     1      18.204   7.468  33.055  1.00  0.00    -0.012 A 
HETATM    8  C2  UNK     1      19.509   9.024  34.278  1.00  0.00     0.044 A 
HETATM    9  C5  UNK     1      17.325   8.422  33.493  1.00  0.00    -0.046 A 
HETATM   10  C6  UNK     1      17.853   6.354  32.289  1.00  0.00    -0.011 A 
HETATM   11  C3  UNK     1      18.025   9.484  34.289  1.00  0.00     0.044 A 
HETATM   12  C9  UNK     1      15.984   8.304  33.169  1.00  0.00     0.008 A 
HETATM   13  C12 UNK     1      15.570   7.204  32.400  1.00  0.00     0.001 A 
HETATM   14  C10 UNK     1      16.491   6.232  31.960  1.00  0.00     0.013 A 
ENDBRANCH   2   3
BRANCH   2  15
HETATM   15  C14 UNK     1      18.430   2.989  31.854  1.00  0.00     0.056 C 
HETATM   16  C15 UNK     1      18.270   2.960  33.185  1.00  0.00     0.015 C 
BRANCH  16  17
HETATM   17  C16 UNK     1      18.045   1.735  33.973  1.00  0.00    -0.033 A 
HETATM   18  C17 UNK     1      17.513   1.836  35.247  1.00  0.00     0.051 A 
HETATM   19  C19 UNK     1      17.300   0.677  35.993  1.00  0.00     0.102 A 
HETATM   20  C20 UNK     1      17.623  -0.568  35.454  1.00  0.00     0.101 A 
HETATM   21  C21 UNK     1      18.159  -0.654  34.169  1.00  0.00     0.040 A 
HETATM   22  C18 UNK     1      18.371   0.506  33.423  1.00  0.00     0.014 A 
BRANCH  19  23
HETATM   23  O2  UNK     1      16.776   0.773  37.247  1.00  0.00    -0.353 OA
HETATM   24  C22 UNK     1      17.659   1.184  38.289  1.00  0.00     0.210 C 
ENDBRANCH  19  23
BRANCH  20  25
HETATM   25  O3  UNK     1      17.420  -1.707  36.172  1.00  0.00    -0.353 OA
HETATM   26  C23 UNK     1      18.563  -2.298  36.786  1.00  0.00     0.210 C 
ENDBRANCH  20  25
ENDBRANCH  16  17
ENDBRANCH   2  15
TORSDOF 5
ENDMDL
MODEL 7
REMARK VINA RESULT:      -9.0      2.923      8.614
REMARK  5 active torsions:
REMARK  status: ('A' for Active; 'I' for Inactive)
REMARK    1  A    between atoms: C19_22  and  O2_2 
REMARK    2  A    between atoms: C20_23  and  O3_3 
REMARK    3  A    between atoms: C13_16  and  C8_11 
REMARK    4  A    between atoms: C13_16  and  C14_17 
REMARK    5  A    between atoms: C15_18  and  C16_19 
ROOT
HETATM    1  O1  UNK     1      19.465   5.506  30.845  1.00  0.00    -0.288 OA
HETATM    2  C13 UNK     1      18.607   5.398  31.732  1.00  0.00     0.183 C 
ENDROOT
BRANCH   2   3
HETATM    3  C8  UNK     1      17.842   6.556  32.175  1.00  0.00     0.025 A 
HETATM    4  C11 UNK     1      16.487   6.648  31.803  1.00  0.00     0.017 A 
HETATM    5  C7  UNK     1      15.697   7.740  32.200  1.00  0.00     0.009 A 
HETATM    6  C4  UNK     1      16.275   8.736  32.967  1.00  0.00    -0.046 A 
HETATM    7  C1  UNK     1      17.595   8.628  33.318  1.00  0.00    -0.012 A 
HETATM    8  C2  UNK     1      15.666   9.994  33.516  1.00  0.00     0.044 A 
HETATM    9  C5  UNK     1      17.981   9.704  34.072  1.00  0.00    -0.046 A 
HETATM   10  C6  UNK     1      18.429   7.570  32.956  1.00  0.00    -0.011 A 
HETATM   11  C3  UNK     1      16.843  10.660  34.280  1.00  0.00     0.044 A 
HETATM   12  C9  UNK     1      19.286   9.777  34.525  1.00  0.00     0.008 A 
HETATM   13  C12 UNK     1      20.175   8.740  34.193  1.00  0.00     0.001 A 
HETATM   14  C10 UNK     1      19.757   7.642  33.415  1.00  0.00     0.013 A 
ENDBRANCH   2   3
BRANCH   2  15
HETATM   15  C14 UNK     1      18.313   4.063  32.354  1.00  0.00     0.056 C 
HETATM   16  C15 UNK     1      18.570   3.844  33.652  1.00  0.00     0.015 C 
BRANCH  16  17
HETATM   17  C16 UNK     1      18.330   2.566  34.347  1.00  0.00    -0.033 A 
HETATM   18  C17 UNK     1      18.118   1.418  33.601  1.00  0.00     0.051 A 
HETATM   19  C19 UNK     1      17.892   0.209  34.258  1.00  0.00     0.102 A 
HETATM   20  C20 UNK     1      17.879   0.165  35.652  1.00  0.00     0.101 A 
HETATM   21  C21 UNK     1      18.093   1.329  36.389  1.00  0.00     0.040 A 
HETATM   22  C18 UNK     1      18.320   2.538  35.731  1.00  0.00     0.014 A 
BRANCH  19  23
HETATM   23  O2  UNK     1      17.683  -0.922  33.528  1.00  0.00    -0.353 OA
HETATM   24  C22 UNK     1      18.710  -1.302  32.614  1.00  0.00     0.210 C 
ENDBRANCH  19  23
BRANCH  20  25
HETATM   25  O3  UNK     1      17.658  -1.010  36.306  1.00  0.00    -0.353 OA
HETATM   26  C23 UNK     1      17.917  -1.030  37.707  1.00  0.00     0.210 C 
ENDBRANCH  20  25
ENDBRANCH  16  17
ENDBRANCH   2  15
TORSDOF 5
ENDMDL
MODEL 8
REMARK VINA RESULT:      -8.8     11.307     15.798
REMARK  5 active torsions:
REMARK  status: ('A' for Active; 'I' for Inactive)
REMARK    1  A    between atoms: C19_22  and  O2_2 
REMARK    2  A    between atoms: C20_23  and  O3_3 
REMARK    3  A    between atoms: C13_16  and  C8_11 
REMARK    4  A    between atoms: C13_16  and  C14_17 
REMARK    5  A    between atoms: C15_18  and  C16_19 
ROOT
HETATM    1  O1  UNK     1      27.059  -9.665  39.856  1.00  0.00    -0.288 OA
HETATM    2  C13 UNK     1      26.912  -8.671  39.132  1.00  0.00     0.183 C 
ENDROOT
BRANCH   2   3
HETATM    3  C8  UNK     1      28.000  -7.722  38.939  1.00  0.00     0.025 A 
HETATM    4  C11 UNK     1      27.738  -6.351  39.125  1.00  0.00     0.017 A 
HETATM    5  C7  UNK     1      28.746  -5.388  38.954  1.00  0.00     0.009 A 
HETATM    6  C4  UNK     1      30.015  -5.808  38.595  1.00  0.00    -0.046 A 
HETATM    7  C1  UNK     1      30.250  -7.146  38.419  1.00  0.00    -0.012 A 
HETATM    8  C2  UNK     1      31.255  -5.000  38.350  1.00  0.00     0.044 A 
HETATM    9  C5  UNK     1      31.556  -7.362  38.068  1.00  0.00    -0.046 A 
HETATM   10  C6  UNK     1      29.292  -8.149  38.574  1.00  0.00    -0.011 A 
HETATM   11  C3  UNK     1      32.320  -6.073  37.989  1.00  0.00     0.044 A 
HETATM   12  C9  UNK     1      31.990  -8.657  37.845  1.00  0.00     0.008 A 
HETATM   13  C12 UNK     1      31.070  -9.711  37.986  1.00  0.00     0.001 A 
HETATM   14  C10 UNK     1      29.730  -9.467  38.347  1.00  0.00     0.013 A 
ENDBRANCH   2   3
BRANCH   2  15
HETATM   15  C14 UNK     1      25.616  -8.434  38.410  1.00  0.00     0.056 C 
HETATM   16  C15 UNK     1      24.492  -8.177  39.094  1.00  0.00     0.015 C 
BRANCH  16  17
HETATM   17  C16 UNK     1      23.173  -7.947  38.477  1.00  0.00    -0.033 A 
HETATM   18  C17 UNK     1      22.926  -8.434  37.204  1.00  0.00     0.051 A 
HETATM   19  C19 UNK     1      21.678  -8.216  36.620  1.00  0.00     0.102 A 
HETATM   20  C20 UNK     1      20.696  -7.513  37.316  1.00  0.00     0.101 A 
HETATM   21  C21 UNK     1      20.960  -7.028  38.597  1.00  0.00     0.040 A 
HETATM   22  C18 UNK     1      22.208  -7.247  39.181  1.00  0.00     0.014 A 
BRANCH  19  23
HETATM   23  O2  UNK     1      21.432  -8.695  35.367  1.00  0.00    -0.353 OA
HETATM   24  C22 UNK     1      21.719 -10.072  35.132  1.00  0.00     0.210 C 
ENDBRANCH  19  23
BRANCH  20  25
HETATM   25  O3  UNK     1      19.474  -7.294  36.756  1.00  0.00    -0.353 OA
HETATM   26  C23 UNK     1      19.148  -5.948  36.417  1.00  0.00     0.210 C 
ENDBRANCH  20  25
ENDBRANCH  16  17
ENDBRANCH   2  15
TORSDOF 5
ENDMDL
MODEL 9
REMARK VINA RESULT:      -8.7      2.820      8.363
REMARK  5 active torsions:
REMARK  status: ('A' for Active; 'I' for Inactive)
REMARK    1  A    between atoms: C19_22  and  O2_2 
REMARK    2  A    between atoms: C20_23  and  O3_3 
REMARK    3  A    between atoms: C13_16  and  C8_11 
REMARK    4  A    between atoms: C13_16  and  C14_17 
REMARK    5  A    between atoms: C15_18  and  C16_19 
ROOT
HETATM    1  O1  UNK     1      18.659   5.127  30.122  1.00  0.00    -0.288 OA
HETATM    2  C13 UNK     1      18.664   5.082  31.360  1.00  0.00     0.183 C 
ENDROOT
BRANCH   2   3
HETATM    3  C8  UNK     1      18.624   6.306  32.151  1.00  0.00     0.025 A 
HETATM    4  C11 UNK     1      19.811   6.748  32.767  1.00  0.00     0.017 A 
HETATM    5  C7  UNK     1      19.835   7.920  33.541  1.00  0.00     0.009 A 
HETATM    6  C4  UNK     1      18.665   8.641  33.694  1.00  0.00    -0.046 A 
HETATM    7  C1  UNK     1      17.521   8.194  33.087  1.00  0.00    -0.012 A 
HETATM    8  C2  UNK     1      18.417   9.909  34.458  1.00  0.00     0.044 A 
HETATM    9  C5  UNK     1      16.475   9.038  33.355  1.00  0.00    -0.046 A 
HETATM   10  C6  UNK     1      17.433   7.040  32.307  1.00  0.00    -0.011 A 
HETATM   11  C3  UNK     1      16.906  10.183  34.222  1.00  0.00     0.044 A 
HETATM   12  C9  UNK     1      15.228   8.753  32.827  1.00  0.00     0.008 A 
HETATM   13  C12 UNK     1      15.076   7.604  32.032  1.00  0.00     0.001 A 
HETATM   14  C10 UNK     1      16.166   6.750  31.770  1.00  0.00     0.013 A 
ENDBRANCH   2   3
BRANCH   2  15
HETATM   15  C14 UNK     1      18.683   3.763  32.079  1.00  0.00     0.056 C 
HETATM   16  C15 UNK     1      18.288   3.678  33.358  1.00  0.00     0.015 C 
BRANCH  16  17
HETATM   17  C16 UNK     1      18.285   2.435  34.150  1.00  0.00    -0.033 A 
HETATM   18  C17 UNK     1      18.224   1.216  33.496  1.00  0.00     0.051 A 
HETATM   19  C19 UNK     1      18.220   0.039  34.245  1.00  0.00     0.102 A 
HETATM   20  C20 UNK     1      18.277   0.098  35.637  1.00  0.00     0.101 A 
HETATM   21  C21 UNK     1      18.337   1.334  36.281  1.00  0.00     0.040 A 
HETATM   22  C18 UNK     1      18.341   2.511  35.531  1.00  0.00     0.014 A 
BRANCH  19  23
HETATM   23  O2  UNK     1      18.161  -1.163  33.605  1.00  0.00    -0.353 OA
HETATM   24  C22 UNK     1      18.933  -1.302  32.414  1.00  0.00     0.210 C 
ENDBRANCH  19  23
BRANCH  20  25
HETATM   25  O3  UNK     1      18.274  -1.043  36.380  1.00  0.00    -0.353 OA
HETATM   26  C23 UNK     1      17.886  -0.927  37.747  1.00  0.00     0.210 C 
ENDBRANCH  20  25
ENDBRANCH  16  17
ENDBRANCH   2  15
TORSDOF 5
ENDMDL
MODEL 10
REMARK VINA RESULT:      -8.7      5.722      9.311
REMARK  5 active torsions:
REMARK  status: ('A' for Active; 'I' for Inactive)
REMARK    1  A    between atoms: C19_22  and  O2_2 
REMARK    2  A    between atoms: C20_23  and  O3_3 
REMARK    3  A    between atoms: C13_16  and  C8_11 
REMARK    4  A    between atoms: C13_16  and  C14_17 
REMARK    5  A    between atoms: C15_18  and  C16_19 
ROOT
HETATM    1  O1  UNK     1      20.311  -2.942  37.713  1.00  0.00    -0.288 OA
HETATM    2  C13 UNK     1      20.149  -3.819  36.853  1.00  0.00     0.183 C 
ENDROOT
BRANCH   2   3
HETATM    3  C8  UNK     1      19.883  -5.199  37.237  1.00  0.00     0.025 A 
HETATM    4  C11 UNK     1      18.661  -5.781  36.848  1.00  0.00     0.017 A 
HETATM    5  C7  UNK     1      18.347  -7.107  37.187  1.00  0.00     0.009 A 
HETATM    6  C4  UNK     1      19.263  -7.843  37.918  1.00  0.00    -0.046 A 
HETATM    7  C1  UNK     1      20.446  -7.258  38.287  1.00  0.00    -0.012 A 
HETATM    8  C2  UNK     1      19.179  -9.259  38.407  1.00  0.00     0.044 A 
HETATM    9  C5  UNK     1      21.215  -8.140  39.000  1.00  0.00    -0.046 A 
HETATM   10  C6  UNK     1      20.815  -5.948  37.980  1.00  0.00    -0.011 A 
HETATM   11  C3  UNK     1      20.527  -9.464  39.152  1.00  0.00     0.044 A 
HETATM   12  C9  UNK     1      22.454  -7.732  39.463  1.00  0.00     0.008 A 
HETATM   13  C12 UNK     1      22.881  -6.422  39.185  1.00  0.00     0.001 A 
HETATM   14  C10 UNK     1      22.074  -5.531  38.451  1.00  0.00     0.013 A 
ENDBRANCH   2   3
BRANCH   2  15
HETATM   15  C14 UNK     1      20.194  -3.476  35.391  1.00  0.00     0.056 C 
HETATM   16  C15 UNK     1      19.856  -2.249  34.968  1.00  0.00     0.015 C 
BRANCH  16  17
HETATM   17  C16 UNK     1      19.854  -1.823  33.557  1.00  0.00    -0.033 A 
HETATM   18  C17 UNK     1      19.145  -0.691  33.192  1.00  0.00     0.051 A 
HETATM   19  C19 UNK     1      19.143  -0.287  31.857  1.00  0.00     0.102 A 
HETATM   20  C20 UNK     1      19.850  -1.022  30.905  1.00  0.00     0.101 A 
HETATM   21  C21 UNK     1      20.559  -2.160  31.289  1.00  0.00     0.040 A 
HETATM   22  C18 UNK     1      20.561  -2.563  32.624  1.00  0.00     0.014 A 
BRANCH  19  23
HETATM   23  O2  UNK     1      18.446   0.827  31.494  1.00  0.00    -0.353 OA
HETATM   24  C22 UNK     1      18.473   1.931  32.396  1.00  0.00     0.210 C 
ENDBRANCH  19  23
BRANCH  20  25
HETATM   25  O3  UNK     1      19.855  -0.639  29.599  1.00  0.00    -0.353 OA
HETATM   26  C23 UNK     1      21.105  -0.687  28.914  1.00  0.00     0.210 C 
ENDBRANCH  20  25
ENDBRANCH  16  17
ENDBRANCH   2  15
TORSDOF 5
ENDMDL
