MODEL 1
REMARK VINA RESULT:      -8.8      0.000      0.000
REMARK  5 active torsions:
REMARK  status: ('A' for Active; 'I' for Inactive)
REMARK    1  A    between atoms: C11_16  and  O2_3 
REMARK    2  A    between atoms: C7_12  and  N1_5 
REMARK    3  A    between atoms: C1_6  and  C6_11 
REMARK    4  A    between atoms: C7_12  and  C8_13 
REMARK    5  A    between atoms: C16_21  and  C18_23 
ROOT
HETATM    1  O1  UNK     1      13.953   9.085   9.312  1.00  0.00    -0.320 OA
HETATM    2  O3  UNK     1      17.753   7.810  10.071  1.00  0.00    -0.286 OA
HETATM    3  C8  UNK     1      13.101   6.897   9.568  1.00  0.00     0.038 A 
HETATM    4  C10 UNK     1      14.197   7.761   9.569  1.00  0.00     0.100 A 
HETATM    5  C11 UNK     1      13.288   5.539   9.823  1.00  0.00     0.076 A 
HETATM    6  C12 UNK     1      15.476   7.266   9.823  1.00  0.00     0.050 A 
HETATM    7  C13 UNK     1      14.568   5.044  10.077  1.00  0.00     0.038 A 
HETATM    8  C14 UNK     1      15.666   5.905  10.079  1.00  0.00     0.021 A 
HETATM    9  C15 UNK     1      16.619   8.198   9.823  1.00  0.00     0.197 A 
HETATM   10  C16 UNK     1      16.312   9.623   9.521  1.00  0.00     0.048 A 
HETATM   11  C17 UNK     1      15.028   9.940   9.293  1.00  0.00     0.159 A 
ENDROOT
BRANCH   3  12
HETATM   12  C7  UNK     1      11.725   7.420   9.296  1.00  0.00     0.317 C 
BRANCH  12  13
HETATM   13  N1  UNK     1      11.060   6.682   8.217  1.00  0.00     0.097 N 
HETATM   14  C1  UNK     1       9.612   6.979   8.134  1.00  0.00     0.223 C 
HETATM   15  C2  UNK     1       8.964   6.170   6.993  1.00  0.00     0.036 C 
HETATM   16  C4  UNK     1       9.654   6.416   5.658  1.00  0.00     0.004 C 
HETATM   17  C5  UNK     1      11.149   6.170   5.788  1.00  0.00     0.030 C 
HETATM   18  C3  UNK     1      11.738   6.976   6.942  1.00  0.00     0.273 C 
BRANCH  14  19
HETATM   19  C6  UNK     1       8.865   6.653   9.436  1.00  0.00     0.031 C 
HETATM   20  C9  UNK     1       8.621   5.165   9.565  1.00  0.00     0.007 C 
ENDBRANCH  14  19
ENDBRANCH  12  13
ENDBRANCH   3  12
BRANCH   5  21
HETATM   21  O2  UNK     1      12.232   4.676   9.828  1.00  0.00    -0.360 OA
HETATM   22  H20 UNK     1      12.566   3.764   9.889  1.00  0.00     0.217 HD
ENDBRANCH   5  21
BRANCH  10  23
HETATM   23  C18 UNK     1      17.365  10.649   9.450  1.00  0.00    -0.020 A 
HETATM   24  C19 UNK     1      18.064  10.855   8.258  1.00  0.00     0.014 A 
HETATM   25  C21 UNK     1      19.062  11.828   8.191  1.00  0.00     0.024 A 
HETATM   26  C23 UNK     1      19.361  12.597   9.315  1.00  0.00     0.034 A 
HETATM   27  C22 UNK     1      18.664  12.394  10.506  1.00  0.00     0.024 A 
HETATM   28 Cl1  UNK     1      20.593  13.797   9.232  1.00  0.00    -0.084 Cl
HETATM   29  C20 UNK     1      17.668  11.422  10.573  1.00  0.00     0.014 A 
ENDBRANCH  10  23
TORSDOF 5
ENDMDL
MODEL 2
REMARK VINA RESULT:      -8.6     24.113     26.059
REMARK  5 active torsions:
REMARK  status: ('A' for Active; 'I' for Inactive)
REMARK    1  A    between atoms: C11_16  and  O2_3 
REMARK    2  A    between atoms: C7_12  and  N1_5 
REMARK    3  A    between atoms: C1_6  and  C6_11 
REMARK    4  A    between atoms: C7_12  and  C8_13 
REMARK    5  A    between atoms: C16_21  and  C18_23 
ROOT
HETATM    1  O1  UNK     1      18.431   4.683  33.602  1.00  0.00    -0.320 OA
HETATM    2  O3  UNK     1      18.376   0.850  32.203  1.00  0.00    -0.286 OA
HETATM    3  C8  UNK     1      18.625   5.545  31.412  1.00  0.00     0.038 A 
HETATM    4  C10 UNK     1      18.524   4.439  32.256  1.00  0.00     0.100 A 
HETATM    5  C11 UNK     1      18.722   5.359  30.033  1.00  0.00     0.076 A 
HETATM    6  C12 UNK     1      18.523   3.151  31.722  1.00  0.00     0.050 A 
HETATM    7  C13 UNK     1      18.721   4.070  29.499  1.00  0.00     0.038 A 
HETATM    8  C14 UNK     1      18.621   2.962  30.341  1.00  0.00     0.021 A 
HETATM    9  C15 UNK     1      18.412   1.996  32.633  1.00  0.00     0.197 A 
HETATM   10  C16 UNK     1      18.332   2.305  34.087  1.00  0.00     0.048 A 
HETATM   11  C17 UNK     1      18.349   3.599  34.442  1.00  0.00     0.159 A 
ENDROOT
BRANCH   3  12
HETATM   12  C7  UNK     1      18.627   6.932  31.977  1.00  0.00     0.317 C 
BRANCH  12  13
HETATM   13  N1  UNK     1      17.486   7.165  32.866  1.00  0.00     0.097 N 
HETATM   14  C1  UNK     1      17.738   8.249  33.843  1.00  0.00     0.223 C 
HETATM   15  C2  UNK     1      16.512   8.442  34.757  1.00  0.00     0.036 C 
HETATM   16  C4  UNK     1      15.242   8.705  33.959  1.00  0.00     0.004 C 
HETATM   17  C5  UNK     1      15.042   7.613  32.918  1.00  0.00     0.030 C 
HETATM   18  C3  UNK     1      16.290   7.447  32.054  1.00  0.00     0.273 C 
BRANCH  14  19
HETATM   19  C6  UNK     1      18.959   7.973  34.732  1.00  0.00     0.031 C 
HETATM   20  C9  UNK     1      20.028   9.025  34.530  1.00  0.00     0.007 C 
ENDBRANCH  14  19
ENDBRANCH  12  13
ENDBRANCH   3  12
BRANCH   5  21
HETATM   21  O2  UNK     1      18.821   6.425  29.189  1.00  0.00    -0.360 OA
HETATM   22  H20 UNK     1      18.661   6.125  28.277  1.00  0.00     0.217 HD
ENDBRANCH   5  21
BRANCH  10  23
HETATM   23  C18 UNK     1      18.258   1.246  35.106  1.00  0.00    -0.020 A 
HETATM   24  C19 UNK     1      18.715  -0.041  34.814  1.00  0.00     0.014 A 
HETATM   25  C21 UNK     1      18.645  -1.045  35.781  1.00  0.00     0.024 A 
HETATM   26  C23 UNK     1      18.118  -0.764  37.041  1.00  0.00     0.034 A 
HETATM   27  C22 UNK     1      17.660   0.521  37.335  1.00  0.00     0.024 A 
HETATM   28 Cl1  UNK     1      18.030  -2.003  38.233  1.00  0.00    -0.084 Cl
HETATM   29  C20 UNK     1      17.730   1.524  36.369  1.00  0.00     0.014 A 
ENDBRANCH  10  23
TORSDOF 5
ENDMDL
MODEL 3
REMARK VINA RESULT:      -8.2     30.649     32.993
REMARK  5 active torsions:
REMARK  status: ('A' for Active; 'I' for Inactive)
REMARK    1  A    between atoms: C11_16  and  O2_3 
REMARK    2  A    between atoms: C7_12  and  N1_5 
REMARK    3  A    between atoms: C1_6  and  C6_11 
REMARK    4  A    between atoms: C7_12  and  C8_13 
REMARK    5  A    between atoms: C16_21  and  C18_23 
ROOT
HETATM    1  O1  UNK     1      30.848  -6.497  32.011  1.00  0.00    -0.320 OA
HETATM    2  O3  UNK     1      33.521  -6.774  35.081  1.00  0.00    -0.286 OA
HETATM    3  C8  UNK     1      32.383  -7.473  30.504  1.00  0.00     0.038 A 
HETATM    4  C10 UNK     1      32.092  -7.031  31.795  1.00  0.00     0.100 A 
HETATM    5  C11 UNK     1      33.633  -8.025  30.225  1.00  0.00     0.076 A 
HETATM    6  C12 UNK     1      33.050  -7.139  32.803  1.00  0.00     0.050 A 
HETATM    7  C13 UNK     1      34.591  -8.134  31.234  1.00  0.00     0.038 A 
HETATM    8  C14 UNK     1      34.303  -7.692  32.526  1.00  0.00     0.021 A 
HETATM    9  C15 UNK     1      32.720  -6.669  34.161  1.00  0.00     0.197 A 
HETATM   10  C16 UNK     1      31.366  -6.079  34.347  1.00  0.00     0.048 A 
HETATM   11  C17 UNK     1      30.559  -6.042  33.274  1.00  0.00     0.159 A 
ENDROOT
BRANCH   3  12
HETATM   12  C7  UNK     1      31.360  -7.360  29.417  1.00  0.00     0.317 C 
BRANCH  12  13
HETATM   13  N1  UNK     1      30.370  -8.439  29.479  1.00  0.00     0.097 N 
HETATM   14  C1  UNK     1      29.000  -7.971  29.166  1.00  0.00     0.223 C 
HETATM   15  C2  UNK     1      28.001  -9.142  29.258  1.00  0.00     0.036 C 
HETATM   16  C4  UNK     1      28.404 -10.306  28.362  1.00  0.00     0.004 C 
HETATM   17  C5  UNK     1      29.837 -10.722  28.658  1.00  0.00     0.030 C 
HETATM   18  C3  UNK     1      30.781  -9.526  28.575  1.00  0.00     0.273 C 
BRANCH  14  19
HETATM   19  C6  UNK     1      28.523  -6.859  30.110  1.00  0.00     0.031 C 
HETATM   20  C9  UNK     1      27.036  -6.969  30.373  1.00  0.00     0.007 C 
ENDBRANCH  14  19
ENDBRANCH  12  13
ENDBRANCH   3  12
BRANCH   5  21
HETATM   21  O2  UNK     1      33.939  -8.465  28.971  1.00  0.00    -0.360 OA
HETATM   22  H20 UNK     1      33.149  -8.869  28.574  1.00  0.00     0.217 HD
ENDBRANCH   5  21
BRANCH  10  23
HETATM   23  C18 UNK     1      30.922  -5.535  35.641  1.00  0.00    -0.020 A 
HETATM   24  C19 UNK     1      29.868  -6.138  36.330  1.00  0.00     0.014 A 
HETATM   25  C21 UNK     1      29.448  -5.623  37.557  1.00  0.00     0.024 A 
HETATM   26  C23 UNK     1      30.082  -4.504  38.097  1.00  0.00     0.034 A 
HETATM   27  C22 UNK     1      31.136  -3.900  37.410  1.00  0.00     0.024 A 
HETATM   28 Cl1  UNK     1      29.563  -3.868  39.610  1.00  0.00    -0.084 Cl
HETATM   29  C20 UNK     1      31.555  -4.415  36.184  1.00  0.00     0.014 A 
ENDBRANCH  10  23
TORSDOF 5
ENDMDL
MODEL 4
REMARK VINA RESULT:      -8.0     24.044     26.185
REMARK  5 active torsions:
REMARK  status: ('A' for Active; 'I' for Inactive)
REMARK    1  A    between atoms: C11_16  and  O2_3 
REMARK    2  A    between atoms: C7_12  and  N1_5 
REMARK    3  A    between atoms: C1_6  and  C6_11 
REMARK    4  A    between atoms: C7_12  and  C8_13 
REMARK    5  A    between atoms: C16_21  and  C18_23 
ROOT
HETATM    1  O1  UNK     1      18.145   1.666  33.115  1.00  0.00    -0.320 OA
HETATM    2  O3  UNK     1      19.795  -1.840  31.836  1.00  0.00    -0.286 OA
HETATM    3  C8  UNK     1      18.225   2.570  30.934  1.00  0.00     0.038 A 
HETATM    4  C10 UNK     1      18.482   1.503  31.796  1.00  0.00     0.100 A 
HETATM    5  C11 UNK     1      18.547   2.463  29.582  1.00  0.00     0.076 A 
HETATM    6  C12 UNK     1      19.059   0.333  31.304  1.00  0.00     0.050 A 
HETATM    7  C13 UNK     1      19.124   1.292  29.091  1.00  0.00     0.038 A 
HETATM    8  C14 UNK     1      19.382   0.223  29.950  1.00  0.00     0.021 A 
HETATM    9  C15 UNK     1      19.318  -0.785  32.233  1.00  0.00     0.197 A 
HETATM   10  C16 UNK     1      18.955  -0.559  33.658  1.00  0.00     0.048 A 
HETATM   11  C17 UNK     1      18.410   0.627  33.973  1.00  0.00     0.159 A 
ENDROOT
BRANCH   3  12
HETATM   12  C7  UNK     1      17.606   3.831  31.454  1.00  0.00     0.317 C 
BRANCH  12  13
HETATM   13  N1  UNK     1      18.576   4.666  32.168  1.00  0.00     0.097 N 
HETATM   14  C1  UNK     1      18.561   6.074  31.710  1.00  0.00     0.223 C 
HETATM   15  C2  UNK     1      19.605   6.901  32.485  1.00  0.00     0.036 C 
HETATM   16  C4  UNK     1      19.399   6.810  33.991  1.00  0.00     0.004 C 
HETATM   17  C5  UNK     1      19.352   5.354  34.426  1.00  0.00     0.030 C 
HETATM   18  C3  UNK     1      18.319   4.575  33.616  1.00  0.00     0.273 C 
BRANCH  14  19
HETATM   19  C6  UNK     1      18.858   6.212  30.210  1.00  0.00     0.031 C 
HETATM   20  C9  UNK     1      20.317   5.933  29.917  1.00  0.00     0.007 C 
ENDBRANCH  14  19
ENDBRANCH  12  13
ENDBRANCH   3  12
BRANCH   5  21
HETATM   21  O2  UNK     1      18.305   3.493  28.721  1.00  0.00    -0.360 OA
HETATM   22  H20 UNK     1      19.026   4.143  28.792  1.00  0.00     0.217 HD
ENDBRANCH   5  21
BRANCH  10  23
HETATM   23  C18 UNK     1      19.196  -1.576  34.695  1.00  0.00    -0.020 A 
HETATM   24  C19 UNK     1      18.430  -1.582  35.862  1.00  0.00     0.014 A 
HETATM   25  C21 UNK     1      18.658  -2.546  36.845  1.00  0.00     0.024 A 
HETATM   26  C23 UNK     1      19.653  -3.506  36.661  1.00  0.00     0.034 A 
HETATM   27  C22 UNK     1      20.420  -3.502  35.495  1.00  0.00     0.024 A 
HETATM   28 Cl1  UNK     1      19.936  -4.694  37.874  1.00  0.00    -0.084 Cl
HETATM   29  C20 UNK     1      20.192  -2.538  34.514  1.00  0.00     0.014 A 
ENDBRANCH  10  23
TORSDOF 5
ENDMDL
MODEL 5
REMARK VINA RESULT:      -8.0     32.838     35.423
REMARK  5 active torsions:
REMARK  status: ('A' for Active; 'I' for Inactive)
REMARK    1  A    between atoms: C11_16  and  O2_3 
REMARK    2  A    between atoms: C7_12  and  N1_5 
REMARK    3  A    between atoms: C1_6  and  C6_11 
REMARK    4  A    between atoms: C7_12  and  C8_13 
REMARK    5  A    between atoms: C16_21  and  C18_23 
ROOT
HETATM    1  O1  UNK     1      30.844  -8.148  35.522  1.00  0.00    -0.320 OA
HETATM    2  O3  UNK     1      33.227  -8.162  32.210  1.00  0.00    -0.286 OA
HETATM    3  C8  UNK     1      32.650  -7.492  36.895  1.00  0.00     0.038 A 
HETATM    4  C10 UNK     1      32.173  -7.827  35.627  1.00  0.00     0.100 A 
HETATM    5  C11 UNK     1      33.993  -7.157  37.064  1.00  0.00     0.076 A 
HETATM    6  C12 UNK     1      33.037  -7.826  34.533  1.00  0.00     0.050 A 
HETATM    7  C13 UNK     1      34.858  -7.157  35.968  1.00  0.00     0.038 A 
HETATM    8  C14 UNK     1      34.383  -7.491  34.700  1.00  0.00     0.021 A 
HETATM    9  C15 UNK     1      32.509  -8.179  33.201  1.00  0.00     0.197 A 
HETATM   10  C16 UNK     1      31.066  -8.540  33.135  1.00  0.00     0.048 A 
HETATM   11  C17 UNK     1      30.368  -8.495  34.281  1.00  0.00     0.159 A 
ENDROOT
BRANCH   3  12
HETATM   12  C7  UNK     1      31.729  -7.491  38.076  1.00  0.00     0.317 C 
BRANCH  12  13
HETATM   13  N1  UNK     1      30.701  -6.452  37.969  1.00  0.00     0.097 N 
HETATM   14  C1  UNK     1      29.532  -6.717  38.838  1.00  0.00     0.223 C 
HETATM   15  C2  UNK     1      28.480  -5.601  38.677  1.00  0.00     0.036 C 
HETATM   16  C4  UNK     1      29.067  -4.222  38.949  1.00  0.00     0.004 C 
HETATM   17  C5  UNK     1      30.305  -4.002  38.092  1.00  0.00     0.030 C 
HETATM   18  C3  UNK     1      31.304  -5.142  38.272  1.00  0.00     0.273 C 
BRANCH  14  19
HETATM   19  C6  UNK     1      28.856  -8.060  38.528  1.00  0.00     0.031 C 
HETATM   20  C9  UNK     1      27.756  -8.358  39.523  1.00  0.00     0.007 C 
ENDBRANCH  14  19
ENDBRANCH  12  13
ENDBRANCH   3  12
BRANCH   5  21
HETATM   21  O2  UNK     1      34.483  -6.827  38.293  1.00  0.00    -0.360 OA
HETATM   22  H20 UNK     1      35.436  -6.649  38.219  1.00  0.00     0.217 HD
ENDBRANCH   5  21
BRANCH  10  23
HETATM   23  C18 UNK     1      30.422  -8.949  31.877  1.00  0.00    -0.020 A 
HETATM   24  C19 UNK     1      29.614  -8.050  31.177  1.00  0.00     0.014 A 
HETATM   25  C21 UNK     1      29.004  -8.438  29.984  1.00  0.00     0.024 A 
HETATM   26  C23 UNK     1      29.201  -9.727  29.489  1.00  0.00     0.034 A 
HETATM   27  C22 UNK     1      30.007 -10.627  30.185  1.00  0.00     0.024 A 
HETATM   28 Cl1  UNK     1      28.446 -10.206  28.017  1.00  0.00    -0.084 Cl
HETATM   29  C20 UNK     1      30.616 -10.239  31.377  1.00  0.00     0.014 A 
ENDBRANCH  10  23
TORSDOF 5
ENDMDL
MODEL 6
REMARK VINA RESULT:      -7.9     34.504     36.498
REMARK  5 active torsions:
REMARK  status: ('A' for Active; 'I' for Inactive)
REMARK    1  A    between atoms: C11_16  and  O2_3 
REMARK    2  A    between atoms: C7_12  and  N1_5 
REMARK    3  A    between atoms: C1_6  and  C6_11 
REMARK    4  A    between atoms: C7_12  and  C8_13 
REMARK    5  A    between atoms: C16_21  and  C18_23 
ROOT
HETATM    1  O1  UNK     1      27.520  -8.482  38.479  1.00  0.00    -0.320 OA
HETATM    2  O3  UNK     1      24.873  -5.397  38.827  1.00  0.00    -0.286 OA
HETATM    3  C8  UNK     1      29.353  -6.992  38.491  1.00  0.00     0.038 A 
HETATM    4  C10 UNK     1      27.972  -7.189  38.540  1.00  0.00     0.100 A 
HETATM    5  C11 UNK     1      29.871  -5.699  38.550  1.00  0.00     0.076 A 
HETATM    6  C12 UNK     1      27.114  -6.095  38.648  1.00  0.00     0.050 A 
HETATM    7  C13 UNK     1      29.012  -4.605  38.657  1.00  0.00     0.038 A 
HETATM    8  C14 UNK     1      27.631  -4.799  38.706  1.00  0.00     0.021 A 
HETATM    9  C15 UNK     1      25.658  -6.328  38.702  1.00  0.00     0.197 A 
HETATM   10  C16 UNK     1      25.210  -7.744  38.613  1.00  0.00     0.048 A 
HETATM   11  C17 UNK     1      26.162  -8.685  38.509  1.00  0.00     0.159 A 
ENDROOT
BRANCH   3  12
HETATM   12  C7  UNK     1      30.281  -8.161  38.376  1.00  0.00     0.317 C 
BRANCH  12  13
HETATM   13  N1  UNK     1      30.809  -8.312  37.016  1.00  0.00     0.097 N 
HETATM   14  C1  UNK     1      32.228  -8.734  37.001  1.00  0.00     0.223 C 
HETATM   15  C2  UNK     1      32.732  -8.866  35.550  1.00  0.00     0.036 C 
HETATM   16  C4  UNK     1      31.866  -9.814  34.731  1.00  0.00     0.004 C 
HETATM   17  C5  UNK     1      30.406  -9.398  34.818  1.00  0.00     0.030 C 
HETATM   18  C3  UNK     1      29.963  -9.262  36.272  1.00  0.00     0.273 C 
BRANCH  14  19
HETATM   19  C6  UNK     1      33.146  -7.750  37.739  1.00  0.00     0.031 C 
HETATM   20  C9  UNK     1      34.193  -7.179  36.807  1.00  0.00     0.007 C 
ENDBRANCH  14  19
ENDBRANCH  12  13
ENDBRANCH   3  12
BRANCH   5  21
HETATM   21  O2  UNK     1      31.217  -5.482  38.503  1.00  0.00    -0.360 OA
HETATM   22  H20 UNK     1      31.672  -6.333  38.379  1.00  0.00     0.217 HD
ENDBRANCH   5  21
BRANCH  10  23
HETATM   23  C18 UNK     1      23.785  -8.113  38.616  1.00  0.00    -0.020 A 
HETATM   24  C19 UNK     1      23.039  -8.020  39.793  1.00  0.00     0.014 A 
HETATM   25  C21 UNK     1      21.689  -8.369  39.796  1.00  0.00     0.024 A 
HETATM   26  C23 UNK     1      21.081  -8.810  38.621  1.00  0.00     0.034 A 
HETATM   27  C22 UNK     1      21.823  -8.904  37.444  1.00  0.00     0.024 A 
HETATM   28 Cl1  UNK     1      19.414  -9.242  38.625  1.00  0.00    -0.084 Cl
HETATM   29  C20 UNK     1      23.173  -8.556  37.441  1.00  0.00     0.014 A 
ENDBRANCH  10  23
TORSDOF 5
ENDMDL
MODEL 7
REMARK VINA RESULT:      -7.8     24.746     26.892
REMARK  5 active torsions:
REMARK  status: ('A' for Active; 'I' for Inactive)
REMARK    1  A    between atoms: C11_16  and  O2_3 
REMARK    2  A    between atoms: C7_12  and  N1_5 
REMARK    3  A    between atoms: C1_6  and  C6_11 
REMARK    4  A    between atoms: C7_12  and  C8_13 
REMARK    5  A    between atoms: C16_21  and  C18_23 
ROOT
HETATM    1  O1  UNK     1      18.631  -0.200  33.139  1.00  0.00    -0.320 OA
HETATM    2  O3  UNK     1      21.311  -3.227  32.587  1.00  0.00    -0.286 OA
HETATM    3  C8  UNK     1      19.037   0.638  30.968  1.00  0.00     0.038 A 
HETATM    4  C10 UNK     1      19.312  -0.310  31.954  1.00  0.00     0.100 A 
HETATM    5  C11 UNK     1      19.699   0.576  29.742  1.00  0.00     0.076 A 
HETATM    6  C12 UNK     1      20.248  -1.317  31.713  1.00  0.00     0.050 A 
HETATM    7  C13 UNK     1      20.635  -0.431  29.502  1.00  0.00     0.038 A 
HETATM    8  C14 UNK     1      20.912  -1.380  30.486  1.00  0.00     0.021 A 
HETATM    9  C15 UNK     1      20.520  -2.311  32.769  1.00  0.00     0.197 A 
HETATM   10  C16 UNK     1      19.773  -2.143  34.045  1.00  0.00     0.048 A 
HETATM   11  C17 UNK     1      18.908  -1.119  34.122  1.00  0.00     0.159 A 
ENDROOT
BRANCH   3  12
HETATM   12  C7  UNK     1      18.035   1.721  31.218  1.00  0.00     0.317 C 
BRANCH  12  13
HETATM   13  N1  UNK     1      18.579   2.789  32.062  1.00  0.00     0.097 N 
HETATM   14  C1  UNK     1      18.328   4.138  31.504  1.00  0.00     0.223 C 
HETATM   15  C2  UNK     1      18.930   5.219  32.425  1.00  0.00     0.036 C 
HETATM   16  C4  UNK     1      18.408   5.106  33.851  1.00  0.00     0.004 C 
HETATM   17  C5  UNK     1      18.617   3.694  34.376  1.00  0.00     0.030 C 
HETATM   18  C3  UNK     1      18.022   2.663  33.420  1.00  0.00     0.273 C 
BRANCH  14  19
HETATM   19  C6  UNK     1      18.923   4.319  30.101  1.00  0.00     0.031 C 
HETATM   20  C9  UNK     1      19.630   5.652  29.977  1.00  0.00     0.007 C 
ENDBRANCH  14  19
ENDBRANCH  12  13
ENDBRANCH   3  12
BRANCH   5  21
HETATM   21  O2  UNK     1      19.447   1.492  28.764  1.00  0.00    -0.360 OA
HETATM   22  H20 UNK     1      19.190   1.025  27.950  1.00  0.00     0.217 HD
ENDBRANCH   5  21
BRANCH  10  23
HETATM   23  C18 UNK     1      19.979  -3.041  35.193  1.00  0.00    -0.020 A 
HETATM   24  C19 UNK     1      20.258  -2.513  36.455  1.00  0.00     0.014 A 
HETATM   25  C21 UNK     1      20.453  -3.364  37.543  1.00  0.00     0.024 A 
HETATM   26  C23 UNK     1      20.368  -4.746  37.371  1.00  0.00     0.034 A 
HETATM   27  C22 UNK     1      20.089  -5.276  36.111  1.00  0.00     0.024 A 
HETATM   28 Cl1  UNK     1      20.610  -5.797  38.713  1.00  0.00    -0.084 Cl
HETATM   29  C20 UNK     1      19.895  -4.425  35.024  1.00  0.00     0.014 A 
ENDBRANCH  10  23
TORSDOF 5
ENDMDL
MODEL 8
REMARK VINA RESULT:      -7.8     23.911     25.683
REMARK  5 active torsions:
REMARK  status: ('A' for Active; 'I' for Inactive)
REMARK    1  A    between atoms: C11_16  and  O2_3 
REMARK    2  A    between atoms: C7_12  and  N1_5 
REMARK    3  A    between atoms: C1_6  and  C6_11 
REMARK    4  A    between atoms: C7_12  and  C8_13 
REMARK    5  A    between atoms: C16_21  and  C18_23 
ROOT
HETATM    1  O1  UNK     1      18.118   1.430  33.063  1.00  0.00    -0.320 OA
HETATM    2  O3  UNK     1      19.397   4.139  30.293  1.00  0.00    -0.286 OA
HETATM    3  C8  UNK     1      18.838  -0.375  31.720  1.00  0.00     0.038 A 
HETATM    4  C10 UNK     1      18.700   1.002  31.897  1.00  0.00     0.100 A 
HETATM    5  C11 UNK     1      19.422  -0.869  30.554  1.00  0.00     0.076 A 
HETATM    6  C12 UNK     1      19.145   1.881  30.910  1.00  0.00     0.050 A 
HETATM    7  C13 UNK     1      19.867   0.011  29.567  1.00  0.00     0.038 A 
HETATM    8  C14 UNK     1      19.730   1.388  29.741  1.00  0.00     0.021 A 
HETATM    9  C15 UNK     1      18.992   3.333  31.121  1.00  0.00     0.197 A 
HETATM   10  C16 UNK     1      18.339   3.753  32.390  1.00  0.00     0.048 A 
HETATM   11  C17 UNK     1      17.962   2.783  33.238  1.00  0.00     0.159 A 
ENDROOT
BRANCH   3  12
HETATM   12  C7  UNK     1      18.363  -1.326  32.775  1.00  0.00     0.317 C 
BRANCH  12  13
HETATM   13  N1  UNK     1      19.217  -1.297  33.966  1.00  0.00     0.097 N 
HETATM   14  C1  UNK     1      18.448  -1.465  35.220  1.00  0.00     0.223 C 
HETATM   15  C2  UNK     1      19.393  -1.415  36.438  1.00  0.00     0.036 C 
HETATM   16  C4  UNK     1      20.510  -2.445  36.334  1.00  0.00     0.004 C 
HETATM   17  C5  UNK     1      21.240  -2.294  35.008  1.00  0.00     0.030 C 
HETATM   18  C3  UNK     1      20.260  -2.329  33.838  1.00  0.00     0.273 C 
BRANCH  14  19
HETATM   19  C6  UNK     1      17.373  -0.385  35.405  1.00  0.00     0.031 C 
HETATM   20  C9  UNK     1      17.756   0.582  36.504  1.00  0.00     0.007 C 
ENDBRANCH  14  19
ENDBRANCH  12  13
ENDBRANCH   3  12
BRANCH   5  21
HETATM   21  O2  UNK     1      19.567  -2.211  30.359  1.00  0.00    -0.360 OA
HETATM   22  H20 UNK     1      18.701  -2.596  30.139  1.00  0.00     0.217 HD
ENDBRANCH   5  21
BRANCH  10  23
HETATM   23  C18 UNK     1      18.090   5.169  32.708  1.00  0.00    -0.020 A 
HETATM   24  C19 UNK     1      19.005   5.885  33.483  1.00  0.00     0.014 A 
HETATM   25  C21 UNK     1      18.769   7.227  33.784  1.00  0.00     0.024 A 
HETATM   26  C23 UNK     1      17.618   7.855  33.309  1.00  0.00     0.034 A 
HETATM   27  C22 UNK     1      16.702   7.142  32.534  1.00  0.00     0.024 A 
HETATM   28 Cl1  UNK     1      17.326   9.511  33.681  1.00  0.00    -0.084 Cl
HETATM   29  C20 UNK     1      16.938   5.801  32.234  1.00  0.00     0.014 A 
ENDBRANCH  10  23
TORSDOF 5
ENDMDL
MODEL 9
REMARK VINA RESULT:      -7.8      1.122      2.050
REMARK  5 active torsions:
REMARK  status: ('A' for Active; 'I' for Inactive)
REMARK    1  A    between atoms: C11_16  and  O2_3 
REMARK    2  A    between atoms: C7_12  and  N1_5 
REMARK    3  A    between atoms: C1_6  and  C6_11 
REMARK    4  A    between atoms: C7_12  and  C8_13 
REMARK    5  A    between atoms: C16_21  and  C18_23 
ROOT
HETATM    1  O1  UNK     1      13.926   8.720   8.248  1.00  0.00    -0.320 OA
HETATM    2  O3  UNK     1      17.076   7.741  10.649  1.00  0.00    -0.286 OA
HETATM    3  C8  UNK     1      13.096   6.510   8.332  1.00  0.00     0.038 A 
HETATM    4  C10 UNK     1      14.069   7.436   8.709  1.00  0.00     0.100 A 
HETATM    5  C11 UNK     1      13.188   5.189   8.770  1.00  0.00     0.076 A 
HETATM    6  C12 UNK     1      15.130   7.041   9.522  1.00  0.00     0.050 A 
HETATM    7  C13 UNK     1      14.251   4.795   9.584  1.00  0.00     0.038 A 
HETATM    8  C14 UNK     1      15.225   5.719   9.963  1.00  0.00     0.021 A 
HETATM    9  C15 UNK     1      16.145   8.039   9.912  1.00  0.00     0.197 A 
HETATM   10  C16 UNK     1      15.963   9.415   9.374  1.00  0.00     0.048 A 
HETATM   11  C17 UNK     1      14.888   9.634   8.600  1.00  0.00     0.159 A 
ENDROOT
BRANCH   3  12
HETATM   12  C7  UNK     1      11.953   6.925   7.458  1.00  0.00     0.317 C 
BRANCH  12  13
HETATM   13  N1  UNK     1      10.663   6.792   8.142  1.00  0.00     0.097 N 
HETATM   14  C1  UNK     1      10.126   8.093   8.602  1.00  0.00     0.223 C 
HETATM   15  C2  UNK     1       8.777   7.892   9.322  1.00  0.00     0.036 C 
HETATM   16  C4  UNK     1       7.769   7.159   8.446  1.00  0.00     0.004 C 
HETATM   17  C5  UNK     1       8.369   5.860   7.932  1.00  0.00     0.030 C 
HETATM   18  C3  UNK     1       9.710   6.110   7.248  1.00  0.00     0.273 C 
BRANCH  14  19
HETATM   19  C6  UNK     1      11.078   8.819   9.563  1.00  0.00     0.031 C 
HETATM   20  C9  UNK     1      10.365   9.935  10.296  1.00  0.00     0.007 C 
ENDBRANCH  14  19
ENDBRANCH  12  13
ENDBRANCH   3  12
BRANCH   5  21
HETATM   21  O2  UNK     1      12.249   4.267   8.414  1.00  0.00    -0.360 OA
HETATM   22  H20 UNK     1      11.375   4.693   8.394  1.00  0.00     0.217 HD
ENDBRANCH   5  21
BRANCH  10  23
HETATM   23  C18 UNK     1      16.923  10.495   9.653  1.00  0.00    -0.020 A 
HETATM   24  C19 UNK     1      16.772  11.290  10.791  1.00  0.00     0.014 A 
HETATM   25  C21 UNK     1      17.682  12.314  11.056  1.00  0.00     0.024 A 
HETATM   26  C23 UNK     1      18.746  12.543  10.183  1.00  0.00     0.034 A 
HETATM   27  C22 UNK     1      18.899  11.750   9.046  1.00  0.00     0.024 A 
HETATM   28 Cl1  UNK     1      19.868  13.807  10.509  1.00  0.00    -0.084 Cl
HETATM   29  C20 UNK     1      17.989  10.727   8.781  1.00  0.00     0.014 A 
ENDBRANCH  10  23
TORSDOF 5
ENDMDL
MODEL 10
REMARK VINA RESULT:      -7.7      2.232      3.222
REMARK  5 active torsions:
REMARK  status: ('A' for Active; 'I' for Inactive)
REMARK    1  A    between atoms: C11_16  and  O2_3 
REMARK    2  A    between atoms: C7_12  and  N1_5 
REMARK    3  A    between atoms: C1_6  and  C6_11 
REMARK    4  A    between atoms: C7_12  and  C8_13 
REMARK    5  A    between atoms: C16_21  and  C18_23 
ROOT
HETATM    1  O1  UNK     1      14.995  10.859   7.952  1.00  0.00    -0.320 OA
HETATM    2  O3  UNK     1      18.950  10.826   8.953  1.00  0.00    -0.286 OA
HETATM    3  C8  UNK     1      14.531   9.118   9.479  1.00  0.00     0.038 A 
HETATM    4  C10 UNK     1      15.461   9.975   8.891  1.00  0.00     0.100 A 
HETATM    5  C11 UNK     1      14.946   8.197  10.440  1.00  0.00     0.076 A 
HETATM    6  C12 UNK     1      16.803   9.910   9.264  1.00  0.00     0.050 A 
HETATM    7  C13 UNK     1      16.289   8.133  10.813  1.00  0.00     0.038 A 
HETATM    8  C14 UNK     1      17.222   8.989  10.227  1.00  0.00     0.021 A 
HETATM    9  C15 UNK     1      17.769  10.830   8.632  1.00  0.00     0.197 A 
HETATM   10  C16 UNK     1      17.224  11.759   7.605  1.00  0.00     0.048 A 
HETATM   11  C17 UNK     1      15.906  11.695   7.355  1.00  0.00     0.159 A 
ENDROOT
BRANCH   3  12
HETATM   12  C7  UNK     1      13.088   9.180   9.084  1.00  0.00     0.317 C 
BRANCH  12  13
HETATM   13  N1  UNK     1      12.577   7.873   8.660  1.00  0.00     0.097 N 
HETATM   14  C1  UNK     1      11.153   7.923   8.257  1.00  0.00     0.223 C 
HETATM   15  C2  UNK     1      10.667   6.523   7.832  1.00  0.00     0.036 C 
HETATM   16  C4  UNK     1      11.532   5.932   6.726  1.00  0.00     0.004 C 
HETATM   17  C5  UNK     1      12.996   5.954   7.138  1.00  0.00     0.030 C 
HETATM   18  C3  UNK     1      13.421   7.356   7.569  1.00  0.00     0.273 C 
BRANCH  14  19
HETATM   19  C6  UNK     1      10.237   8.426   9.381  1.00  0.00     0.031 C 
HETATM   20  C9  UNK     1       8.835   7.876   9.229  1.00  0.00     0.007 C 
ENDBRANCH  14  19
ENDBRANCH  12  13
ENDBRANCH   3  12
BRANCH   5  21
HETATM   21  O2  UNK     1      14.055   7.349  11.028  1.00  0.00    -0.360 OA
HETATM   22  H20 UNK     1      13.201   7.803  11.127  1.00  0.00     0.217 HD
ENDBRANCH   5  21
BRANCH  10  23
HETATM   23  C18 UNK     1      18.084  12.701   6.870  1.00  0.00    -0.020 A 
HETATM   24  C19 UNK     1      18.274  13.998   7.350  1.00  0.00     0.014 A 
HETATM   25  C21 UNK     1      19.090  14.891   6.654  1.00  0.00     0.024 A 
HETATM   26  C23 UNK     1      19.718  14.486   5.476  1.00  0.00     0.034 A 
HETATM   27  C22 UNK     1      19.531  13.190   4.995  1.00  0.00     0.024 A 
HETATM   28 Cl1  UNK     1      20.724  15.587   4.616  1.00  0.00    -0.084 Cl
HETATM   29  C20 UNK     1      18.715  12.299   5.690  1.00  0.00     0.014 A 
ENDBRANCH  10  23
TORSDOF 5
ENDMDL
