MODEL 1
REMARK VINA RESULT:      -8.3      0.000      0.000
REMARK  1 active torsions:
REMARK  status: ('A' for Active; 'I' for Inactive)
REMARK       I    between atoms: C5_10  and  N1_4 
REMARK    1  A    between atoms: C2_7  and  C5_10 
ROOT
HETATM    1  O1  UNK     1      19.295   1.049  15.356  1.00  0.00    -0.274 OA
HETATM    2  O3  UNK     1      19.280  -0.541  13.716  1.00  0.00    -0.259 OA
HETATM    3  C1  UNK     1      18.897   0.396  17.665  1.00  0.00    -0.001 A 
HETATM    4  C2  UNK     1      18.881  -1.292  15.927  1.00  0.00     0.110 A 
HETATM    5  C3  UNK     1      19.164   1.382  16.719  1.00  0.00     0.089 A 
HETATM    6  C4  UNK     1      18.755  -0.982  17.223  1.00  0.00     0.037 A 
HETATM    7  C6  UNK     1      18.774   0.765  19.006  1.00  0.00     0.014 A 
HETATM    8  C7  UNK     1      19.165  -0.261  14.904  1.00  0.00     0.304 A 
HETATM    9  C8  UNK     1      19.310   2.720  17.076  1.00  0.00     0.038 A 
HETATM   10  C9  UNK     1      18.918   2.105  19.379  1.00  0.00     0.001 A 
HETATM   11  C10 UNK     1      19.185   3.080  18.416  1.00  0.00     0.003 A 
ENDROOT
BRANCH   4  12
HETATM   12  C5  UNK     1      18.720  -2.712  15.581  1.00  0.00     0.284 C 
HETATM   13  O2  UNK     1      17.659  -3.205  15.229  1.00  0.00    -0.265 OA
HETATM   14  N1  UNK     1      19.856  -3.519  15.663  1.00  0.00    -0.208 N 
HETATM   15  C11 UNK     1      19.927  -4.867  15.384  1.00  0.00     0.123 A 
HETATM   16  N2  UNK     1      21.056  -3.018  16.045  1.00  0.00    -0.177 NA
HETATM   17  C12 UNK     1      21.229  -5.247  15.597  1.00  0.00     0.040 A 
HETATM   18  C13 UNK     1      21.875  -4.070  16.002  1.00  0.00     0.141 A 
ENDBRANCH   4  12
TORSDOF 1
ENDMDL
MODEL 2
REMARK VINA RESULT:      -7.8     15.550     17.369
REMARK  1 active torsions:
REMARK  status: ('A' for Active; 'I' for Inactive)
REMARK       I    between atoms: C5_10  and  N1_4 
REMARK    1  A    between atoms: C2_7  and  C5_10 
ROOT
HETATM    1  O1  UNK     1      18.791   1.195  31.738  1.00  0.00    -0.274 OA
HETATM    2  O3  UNK     1      17.733   1.798  33.670  1.00  0.00    -0.259 OA
HETATM    3  C1  UNK     1      19.523  -1.105  31.437  1.00  0.00    -0.001 A 
HETATM    4  C2  UNK     1      18.401  -0.467  33.488  1.00  0.00     0.110 A 
HETATM    5  C3  UNK     1      19.412   0.198  30.960  1.00  0.00     0.089 A 
HETATM    6  C4  UNK     1      18.990  -1.419  32.752  1.00  0.00     0.037 A 
HETATM    7  C6  UNK     1      20.145  -2.064  30.636  1.00  0.00     0.014 A 
HETATM    8  C7  UNK     1      18.270   0.923  33.000  1.00  0.00     0.304 A 
HETATM    9  C8  UNK     1      19.903   0.565  29.709  1.00  0.00     0.038 A 
HETATM   10  C9  UNK     1      20.643  -1.711  29.378  1.00  0.00     0.001 A 
HETATM   11  C10 UNK     1      20.522  -0.399  28.916  1.00  0.00     0.003 A 
ENDROOT
BRANCH   4  12
HETATM   12  C5  UNK     1      17.894  -0.884  34.803  1.00  0.00     0.284 C 
HETATM   13  O2  UNK     1      16.753  -0.669  35.185  1.00  0.00    -0.265 OA
HETATM   14  N1  UNK     1      18.780  -1.562  35.641  1.00  0.00    -0.208 N 
HETATM   15  C11 UNK     1      18.512  -2.040  36.906  1.00  0.00     0.123 A 
HETATM   16  N2  UNK     1      20.053  -1.827  35.262  1.00  0.00    -0.177 NA
HETATM   17  C12 UNK     1      19.663  -2.635  37.358  1.00  0.00     0.040 A 
HETATM   18  C13 UNK     1      20.576  -2.473  36.305  1.00  0.00     0.141 A 
ENDBRANCH   4  12
TORSDOF 1
ENDMDL
MODEL 3
REMARK VINA RESULT:      -7.7     12.134     13.802
REMARK  1 active torsions:
REMARK  status: ('A' for Active; 'I' for Inactive)
REMARK       I    between atoms: C5_10  and  N1_4 
REMARK    1  A    between atoms: C2_7  and  C5_10 
ROOT
HETATM    1  O1  UNK     1      14.410   6.714  10.324  1.00  0.00    -0.274 OA
HETATM    2  O3  UNK     1      12.457   5.532  10.399  1.00  0.00    -0.259 OA
HETATM    3  C1  UNK     1      14.473   8.859   9.180  1.00  0.00    -0.001 A 
HETATM    4  C2  UNK     1      12.399   7.608   9.260  1.00  0.00     0.110 A 
HETATM    5  C3  UNK     1      15.115   7.860   9.906  1.00  0.00     0.089 A 
HETATM    6  C4  UNK     1      13.064   8.700   8.860  1.00  0.00     0.037 A 
HETATM    7  C6  UNK     1      15.205   9.980   8.785  1.00  0.00     0.014 A 
HETATM    8  C7  UNK     1      13.061   6.534  10.033  1.00  0.00     0.304 A 
HETATM    9  C8  UNK     1      16.463   7.951  10.245  1.00  0.00     0.038 A 
HETATM   10  C9  UNK     1      16.559  10.085   9.117  1.00  0.00     0.001 A 
HETATM   11  C10 UNK     1      17.186   9.073   9.846  1.00  0.00     0.003 A 
ENDROOT
BRANCH   4  12
HETATM   12  C5  UNK     1      10.979   7.540   8.887  1.00  0.00     0.284 C 
HETATM   13  O2  UNK     1      10.076   7.969   9.589  1.00  0.00    -0.265 OA
HETATM   14  N1  UNK     1      10.671   6.951   7.660  1.00  0.00    -0.208 N 
HETATM   15  C11 UNK     1       9.413   6.787   7.120  1.00  0.00     0.123 A 
HETATM   16  N2  UNK     1      11.637   6.462   6.845  1.00  0.00    -0.177 NA
HETATM   17  C12 UNK     1       9.579   6.165   5.908  1.00  0.00     0.040 A 
HETATM   18  C13 UNK     1      10.966   5.990   5.793  1.00  0.00     0.141 A 
ENDBRANCH   4  12
TORSDOF 1
ENDMDL
MODEL 4
REMARK VINA RESULT:      -7.7     14.935     17.179
REMARK  1 active torsions:
REMARK  status: ('A' for Active; 'I' for Inactive)
REMARK       I    between atoms: C5_10  and  N1_4 
REMARK    1  A    between atoms: C2_7  and  C5_10 
ROOT
HETATM    1  O1  UNK     1      18.520   2.030  30.615  1.00  0.00    -0.274 OA
HETATM    2  O3  UNK     1      17.698   3.487  32.170  1.00  0.00    -0.259 OA
HETATM    3  C1  UNK     1      19.435  -0.105  31.337  1.00  0.00    -0.001 A 
HETATM    4  C2  UNK     1      18.562   1.439  32.988  1.00  0.00     0.110 A 
HETATM    5  C3  UNK     1      19.121   0.791  30.319  1.00  0.00     0.089 A 
HETATM    6  C4  UNK     1      19.133   0.260  32.711  1.00  0.00     0.037 A 
HETATM    7  C6  UNK     1      20.029  -1.324  31.003  1.00  0.00     0.014 A 
HETATM    8  C7  UNK     1      18.219   2.406  31.921  1.00  0.00     0.304 A 
HETATM    9  C8  UNK     1      19.385   0.502  28.981  1.00  0.00     0.038 A 
HETATM   10  C9  UNK     1      20.300  -1.627  29.665  1.00  0.00     0.001 A 
HETATM   11  C10 UNK     1      19.979  -0.715  28.657  1.00  0.00     0.003 A 
ENDROOT
BRANCH   4  12
HETATM   12  C5  UNK     1      18.297   1.715  34.407  1.00  0.00     0.284 C 
HETATM   13  O2  UNK     1      18.957   2.495  35.077  1.00  0.00    -0.265 OA
HETATM   14  N1  UNK     1      17.227   1.040  34.997  1.00  0.00    -0.208 N 
HETATM   15  C11 UNK     1      16.807   1.152  36.306  1.00  0.00     0.123 A 
HETATM   16  N2  UNK     1      16.465   0.168  34.295  1.00  0.00    -0.177 NA
HETATM   17  C12 UNK     1      15.729   0.314  36.448  1.00  0.00     0.040 A 
HETATM   18  C13 UNK     1      15.565  -0.264  35.181  1.00  0.00     0.141 A 
ENDBRANCH   4  12
TORSDOF 1
ENDMDL
MODEL 5
REMARK VINA RESULT:      -7.7     12.029     13.647
REMARK  1 active torsions:
REMARK  status: ('A' for Active; 'I' for Inactive)
REMARK       I    between atoms: C5_10  and  N1_4 
REMARK    1  A    between atoms: C2_7  and  C5_10 
ROOT
HETATM    1  O1  UNK     1      14.129   5.149   9.177  1.00  0.00    -0.274 OA
HETATM    2  O3  UNK     1      12.409   4.060   8.139  1.00  0.00    -0.259 OA
HETATM    3  C1  UNK     1      14.352   7.557   8.924  1.00  0.00    -0.001 A 
HETATM    4  C2  UNK     1      12.527   6.405   7.823  1.00  0.00     0.110 A 
HETATM    5  C3  UNK     1      14.807   6.352   9.453  1.00  0.00     0.089 A 
HETATM    6  C4  UNK     1      13.167   7.552   8.082  1.00  0.00     0.037 A 
HETATM    7  C6  UNK     1      15.051   8.729   9.221  1.00  0.00     0.014 A 
HETATM    8  C7  UNK     1      12.992   5.113   8.375  1.00  0.00     0.304 A 
HETATM    9  C8  UNK     1      15.936   6.288  10.266  1.00  0.00     0.038 A 
HETATM   10  C9  UNK     1      16.186   8.680  10.036  1.00  0.00     0.001 A 
HETATM   11  C10 UNK     1      16.627   7.462  10.557  1.00  0.00     0.003 A 
ENDROOT
BRANCH   4  12
HETATM   12  C5  UNK     1      11.340   6.504   6.962  1.00  0.00     0.284 C 
HETATM   13  O2  UNK     1      11.395   6.571   5.742  1.00  0.00    -0.265 OA
HETATM   14  N1  UNK     1      10.095   6.520   7.592  1.00  0.00    -0.208 N 
HETATM   15  C11 UNK     1       8.864   6.605   6.979  1.00  0.00     0.123 A 
HETATM   16  N2  UNK     1       9.983   6.447   8.941  1.00  0.00    -0.177 NA
HETATM   17  C12 UNK     1       7.921   6.587   7.976  1.00  0.00     0.040 A 
HETATM   18  C13 UNK     1       8.668   6.489   9.160  1.00  0.00     0.141 A 
ENDBRANCH   4  12
TORSDOF 1
ENDMDL
MODEL 6
REMARK VINA RESULT:      -7.6     12.247     14.147
REMARK  1 active torsions:
REMARK  status: ('A' for Active; 'I' for Inactive)
REMARK       I    between atoms: C5_10  and  N1_4 
REMARK    1  A    between atoms: C2_7  and  C5_10 
ROOT
HETATM    1  O1  UNK     1      11.159   7.540   9.540  1.00  0.00    -0.274 OA
HETATM    2  O3  UNK     1      12.692   8.089  11.143  1.00  0.00    -0.259 OA
HETATM    3  C1  UNK     1      11.918   6.634   7.414  1.00  0.00    -0.001 A 
HETATM    4  C2  UNK     1      13.545   7.215   9.113  1.00  0.00     0.110 A 
HETATM    5  C3  UNK     1      10.883   7.039   8.253  1.00  0.00     0.089 A 
HETATM    6  C4  UNK     1      13.288   6.738   7.888  1.00  0.00     0.037 A 
HETATM    7  C6  UNK     1      11.603   6.143   6.146  1.00  0.00     0.014 A 
HETATM    8  C7  UNK     1      12.461   7.650  10.021  1.00  0.00     0.304 A 
HETATM    9  C8  UNK     1       9.549   6.966   7.859  1.00  0.00     0.038 A 
HETATM   10  C9  UNK     1      10.268   6.064   5.736  1.00  0.00     0.001 A 
HETATM   11  C10 UNK     1       9.244   6.475   6.591  1.00  0.00     0.003 A 
ENDROOT
BRANCH   4  12
HETATM   12  C5  UNK     1      14.961   7.281   9.500  1.00  0.00     0.284 C 
HETATM   13  O2  UNK     1      15.592   6.320   9.916  1.00  0.00    -0.265 OA
HETATM   14  N1  UNK     1      15.599   8.516   9.374  1.00  0.00    -0.208 N 
HETATM   15  C11 UNK     1      16.914   8.796   9.678  1.00  0.00     0.123 A 
HETATM   16  N2  UNK     1      14.943   9.609   8.916  1.00  0.00    -0.177 NA
HETATM   17  C12 UNK     1      17.110  10.127   9.403  1.00  0.00     0.040 A 
HETATM   18  C13 UNK     1      15.864  10.574   8.938  1.00  0.00     0.141 A 
ENDBRANCH   4  12
TORSDOF 1
ENDMDL
MODEL 7
REMARK VINA RESULT:      -7.4     16.866     19.636
REMARK  1 active torsions:
REMARK  status: ('A' for Active; 'I' for Inactive)
REMARK       I    between atoms: C5_10  and  N1_4 
REMARK    1  A    between atoms: C2_7  and  C5_10 
ROOT
HETATM    1  O1  UNK     1      17.598   6.965  30.745  1.00  0.00    -0.274 OA
HETATM    2  O3  UNK     1      15.506   7.822  31.074  1.00  0.00    -0.259 OA
HETATM    3  C1  UNK     1      19.174   6.904  32.596  1.00  0.00    -0.001 A 
HETATM    4  C2  UNK     1      16.956   7.812  32.947  1.00  0.00     0.110 A 
HETATM    5  C3  UNK     1      18.868   6.645  31.263  1.00  0.00     0.089 A 
HETATM    6  C4  UNK     1      18.162   7.509  33.445  1.00  0.00     0.037 A 
HETATM    7  C6  UNK     1      20.445   6.572  33.072  1.00  0.00     0.014 A 
HETATM    8  C7  UNK     1      16.608   7.545  31.534  1.00  0.00     0.304 A 
HETATM    9  C8  UNK     1      19.794   6.067  30.397  1.00  0.00     0.038 A 
HETATM   10  C9  UNK     1      21.384   5.991  32.214  1.00  0.00     0.001 A 
HETATM   11  C10 UNK     1      21.059   5.740  30.880  1.00  0.00     0.003 A 
ENDROOT
BRANCH   4  12
HETATM   12  C5  UNK     1      16.001   8.421  33.884  1.00  0.00     0.284 C 
HETATM   13  O2  UNK     1      15.077   7.809  34.400  1.00  0.00    -0.265 OA
HETATM   14  N1  UNK     1      16.181   9.771  34.188  1.00  0.00    -0.208 N 
HETATM   15  C11 UNK     1      15.406  10.533  35.037  1.00  0.00     0.123 A 
HETATM   16  N2  UNK     1      17.191  10.492  33.644  1.00  0.00    -0.177 NA
HETATM   17  C12 UNK     1      15.942  11.796  35.037  1.00  0.00     0.040 A 
HETATM   18  C13 UNK     1      17.036  11.711  34.163  1.00  0.00     0.141 A 
ENDBRANCH   4  12
TORSDOF 1
ENDMDL
MODEL 8
REMARK VINA RESULT:      -7.4     13.478     15.549
REMARK  1 active torsions:
REMARK  status: ('A' for Active; 'I' for Inactive)
REMARK       I    between atoms: C5_10  and  N1_4 
REMARK    1  A    between atoms: C2_7  and  C5_10 
ROOT
HETATM    1  O1  UNK     1      18.172   3.184  33.253  1.00  0.00    -0.274 OA
HETATM    2  O3  UNK     1      17.830   1.074  32.447  1.00  0.00    -0.259 OA
HETATM    3  C1  UNK     1      18.762   4.975  31.717  1.00  0.00    -0.001 A 
HETATM    4  C2  UNK     1      18.398   2.738  30.860  1.00  0.00     0.110 A 
HETATM    5  C3  UNK     1      18.494   4.534  33.010  1.00  0.00     0.089 A 
HETATM    6  C4  UNK     1      18.704   4.020  30.623  1.00  0.00     0.037 A 
HETATM    7  C6  UNK     1      19.076   6.321  31.516  1.00  0.00     0.014 A 
HETATM    8  C7  UNK     1      18.110   2.248  32.225  1.00  0.00     0.304 A 
HETATM    9  C8  UNK     1      18.533   5.398  34.102  1.00  0.00     0.038 A 
HETATM   10  C9  UNK     1      19.119   7.200  32.603  1.00  0.00     0.001 A 
HETATM   11  C10 UNK     1      18.848   6.739  33.893  1.00  0.00     0.003 A 
ENDROOT
BRANCH   4  12
HETATM   12  C5  UNK     1      18.366   1.851  29.688  1.00  0.00     0.284 C 
HETATM   13  O2  UNK     1      17.563   1.969  28.774  1.00  0.00    -0.265 OA
HETATM   14  N1  UNK     1      19.314   0.828  29.638  1.00  0.00    -0.208 N 
HETATM   15  C11 UNK     1      19.460  -0.108  28.637  1.00  0.00     0.123 A 
HETATM   16  N2  UNK     1      20.226   0.658  30.626  1.00  0.00    -0.177 NA
HETATM   17  C12 UNK     1      20.510  -0.915  28.999  1.00  0.00     0.040 A 
HETATM   18  C13 UNK     1      20.941  -0.396  30.229  1.00  0.00     0.141 A 
ENDBRANCH   4  12
TORSDOF 1
ENDMDL
MODEL 9
REMARK VINA RESULT:      -7.4     13.131     15.308
REMARK  1 active torsions:
REMARK  status: ('A' for Active; 'I' for Inactive)
REMARK       I    between atoms: C5_10  and  N1_4 
REMARK    1  A    between atoms: C2_7  and  C5_10 
ROOT
HETATM    1  O1  UNK     1      19.113   0.678  28.508  1.00  0.00    -0.274 OA
HETATM    2  O3  UNK     1      18.033   2.661  28.162  1.00  0.00    -0.259 OA
HETATM    3  C1  UNK     1      19.624  -0.030  30.778  1.00  0.00    -0.001 A 
HETATM    4  C2  UNK     1      18.477   2.073  30.413  1.00  0.00     0.110 A 
HETATM    5  C3  UNK     1      19.666  -0.257  29.405  1.00  0.00     0.089 A 
HETATM    6  C4  UNK     1      19.001   1.187  31.270  1.00  0.00     0.037 A 
HETATM    7  C6  UNK     1      20.182  -0.982  31.634  1.00  0.00     0.014 A 
HETATM    8  C7  UNK     1      18.510   1.852  28.950  1.00  0.00     0.304 A 
HETATM    9  C8  UNK     1      20.249  -1.403  28.868  1.00  0.00     0.038 A 
HETATM   10  C9  UNK     1      20.771  -2.136  31.110  1.00  0.00     0.001 A 
HETATM   11  C10 UNK     1      20.804  -2.346  29.730  1.00  0.00     0.003 A 
ENDROOT
BRANCH   4  12
HETATM   12  C5  UNK     1      17.870   3.272  31.009  1.00  0.00     0.284 C 
HETATM   13  O2  UNK     1      16.754   3.286  31.506  1.00  0.00    -0.265 OA
HETATM   14  N1  UNK     1      18.629   4.443  30.995  1.00  0.00    -0.208 N 
HETATM   15  C11 UNK     1      18.254   5.671  31.497  1.00  0.00     0.123 A 
HETATM   16  N2  UNK     1      19.872   4.476  30.457  1.00  0.00    -0.177 NA
HETATM   17  C12 UNK     1      19.301   6.528  31.271  1.00  0.00     0.040 A 
HETATM   18  C13 UNK     1      20.266   5.739  30.629  1.00  0.00     0.141 A 
ENDBRANCH   4  12
TORSDOF 1
ENDMDL
MODEL 10
REMARK VINA RESULT:      -7.4     18.966     20.267
REMARK  1 active torsions:
REMARK  status: ('A' for Active; 'I' for Inactive)
REMARK       I    between atoms: C5_10  and  N1_4 
REMARK    1  A    between atoms: C2_7  and  C5_10 
ROOT
HETATM    1  O1  UNK     1      19.464  -1.354  34.719  1.00  0.00    -0.274 OA
HETATM    2  O3  UNK     1      20.672  -3.233  34.239  1.00  0.00    -0.259 OA
HETATM    3  C1  UNK     1      18.534  -1.060  36.946  1.00  0.00    -0.001 A 
HETATM    4  C2  UNK     1      19.815  -3.054  36.441  1.00  0.00     0.110 A 
HETATM    5  C3  UNK     1      18.723  -0.597  35.647  1.00  0.00     0.089 A 
HETATM    6  C4  UNK     1      19.112  -2.338  37.328  1.00  0.00     0.037 A 
HETATM    7  C6  UNK     1      17.794  -0.281  37.838  1.00  0.00     0.014 A 
HETATM    8  C7  UNK     1      20.030  -2.580  35.056  1.00  0.00     0.304 A 
HETATM    9  C8  UNK     1      18.195   0.619  35.218  1.00  0.00     0.038 A 
HETATM   10  C9  UNK     1      17.258   0.941  37.421  1.00  0.00     0.001 A 
HETATM   11  C10 UNK     1      17.458   1.389  36.114  1.00  0.00     0.003 A 
ENDROOT
BRANCH   4  12
HETATM   12  C5  UNK     1      20.359  -4.331  36.922  1.00  0.00     0.284 C 
HETATM   13  O2  UNK     1      21.507  -4.470  37.318  1.00  0.00    -0.265 OA
HETATM   14  N1  UNK     1      19.499  -5.430  36.921  1.00  0.00    -0.208 N 
HETATM   15  C11 UNK     1      19.802  -6.712  37.329  1.00  0.00     0.123 A 
HETATM   16  N2  UNK     1      18.217  -5.327  36.494  1.00  0.00    -0.177 NA
HETATM   17  C12 UNK     1      18.666  -7.462  37.156  1.00  0.00     0.040 A 
HETATM   18  C13 UNK     1      17.725  -6.558  36.640  1.00  0.00     0.141 A 
ENDBRANCH   4  12
TORSDOF 1
ENDMDL
