MODEL 1
REMARK VINA RESULT:      -9.0      0.000      0.000
REMARK  5 active torsions:
REMARK  status: ('A' for Active; 'I' for Inactive)
REMARK    1  A    between atoms: C12_20  and  O2_3 
REMARK    2  A    between atoms: C16_24  and  O2_3 
REMARK    3  A    between atoms: C4_12  and  N1_7 
REMARK       I    between atoms: C8_16  and  N1_7 
REMARK    4  A    between atoms: C2_10  and  C8_16 
REMARK    5  A    between atoms: C12_20  and  C3_11 
ROOT
HETATM    1  O3  UNK     1      17.586   3.751  32.967  1.00  0.00    -0.267 OA
HETATM    2  N1  UNK     1      18.969   5.185  31.702  1.00  0.00    -0.315 N 
HETATM    3  C8  UNK     1      18.341   3.990  32.026  1.00  0.00     0.262 C 
HETATM    4  H2  UNK     1      19.567   5.220  30.879  1.00  0.00     0.170 HD
ENDROOT
BRANCH   2   5
HETATM    5  C4  UNK     1      18.862   6.388  32.405  1.00  0.00     0.114 A 
HETATM    6  C3  UNK     1      17.922   7.396  32.411  1.00  0.00     0.099 A 
HETATM    7  C7  UNK     1      18.304   8.415  33.331  1.00  0.00     0.058 A 
HETATM    8  C13 UNK     1      17.538   9.651  33.603  1.00  0.00     0.072 C 
HETATM    9  N2  UNK     1      19.442   8.239  33.997  1.00  0.00    -0.213 NA
HETATM   10  S1  UNK     1      20.102   6.792  33.515  1.00  0.00     0.030 SA
BRANCH   6  11
HETATM   11  C12 UNK     1      16.739   7.383  31.592  1.00  0.00     0.298 C 
HETATM   12  O5  UNK     1      16.559   8.048  30.561  1.00  0.00    -0.259 OA
BRANCH  11  13
HETATM   13  O2  UNK     1      15.786   6.519  32.086  1.00  0.00    -0.318 OA
BRANCH  13  14
HETATM   14  C16 UNK     1      14.479   7.059  32.312  1.00  0.00     0.174 C 
HETATM   15  C17 UNK     1      14.381   7.525  33.749  1.00  0.00     0.034 C 
ENDBRANCH  13  14
ENDBRANCH  11  13
ENDBRANCH   6  11
ENDBRANCH   2   5
BRANCH   3  16
HETATM   16  C2  UNK     1      18.672   2.923  31.074  1.00  0.00     0.108 A 
HETATM   17  C10 UNK     1      18.603   3.128  29.610  1.00  0.00     0.304 A 
HETATM   18  O1  UNK     1      18.942   2.040  28.810  1.00  0.00    -0.274 OA
HETATM   19  O4  UNK     1      18.266   4.200  29.120  1.00  0.00    -0.259 OA
HETATM   20  C5  UNK     1      19.333   0.805  29.362  1.00  0.00     0.089 A 
HETATM   21  C1  UNK     1      19.391   0.634  30.741  1.00  0.00    -0.001 A 
HETATM   22  C11 UNK     1      19.655  -0.226  28.481  1.00  0.00     0.038 A 
HETATM   23  C6  UNK     1      19.042   1.752  31.604  1.00  0.00     0.037 A 
HETATM   24  C9  UNK     1      19.783  -0.607  31.252  1.00  0.00     0.014 A 
HETATM   25  C14 UNK     1      20.108  -1.650  30.380  1.00  0.00     0.001 A 
HETATM   26  C15 UNK     1      20.044  -1.459  28.998  1.00  0.00     0.003 A 
ENDBRANCH   3  16
TORSDOF 5
ENDMDL
MODEL 2
REMARK VINA RESULT:      -8.6      8.314     10.636
REMARK  5 active torsions:
REMARK  status: ('A' for Active; 'I' for Inactive)
REMARK    1  A    between atoms: C12_20  and  O2_3 
REMARK    2  A    between atoms: C16_24  and  O2_3 
REMARK    3  A    between atoms: C4_12  and  N1_7 
REMARK       I    between atoms: C8_16  and  N1_7 
REMARK    4  A    between atoms: C2_10  and  C8_16 
REMARK    5  A    between atoms: C12_20  and  C3_11 
ROOT
HETATM    1  O3  UNK     1      21.298  -3.833  37.162  1.00  0.00    -0.267 OA
HETATM    2  N1  UNK     1      19.024  -3.758  36.531  1.00  0.00    -0.315 N 
HETATM    3  C8  UNK     1      20.227  -4.363  36.871  1.00  0.00     0.262 C 
HETATM    4  H2  UNK     1      18.220  -4.344  36.319  1.00  0.00     0.170 HD
ENDROOT
BRANCH   2   5
HETATM    5  C4  UNK     1      18.790  -2.382  36.450  1.00  0.00     0.114 A 
HETATM    6  C3  UNK     1      19.037  -1.440  35.476  1.00  0.00     0.099 A 
HETATM    7  C7  UNK     1      18.592  -0.158  35.910  1.00  0.00     0.058 A 
HETATM    8  C13 UNK     1      18.693   1.093  35.128  1.00  0.00     0.072 C 
HETATM    9  N2  UNK     1      18.040  -0.083  37.119  1.00  0.00    -0.213 NA
HETATM   10  S1  UNK     1      18.046  -1.607  37.784  1.00  0.00     0.030 SA
BRANCH   6  11
HETATM   11  C12 UNK     1      19.657  -1.747  34.214  1.00  0.00     0.298 C 
HETATM   12  O5  UNK     1      20.773  -2.266  34.057  1.00  0.00    -0.259 OA
BRANCH  11  13
HETATM   13  O2  UNK     1      18.854  -1.394  33.151  1.00  0.00    -0.318 OA
BRANCH  13  14
HETATM   14  C16 UNK     1      19.461  -1.388  31.855  1.00  0.00     0.174 C 
HETATM   15  C17 UNK     1      19.441   0.024  31.307  1.00  0.00     0.034 C 
ENDBRANCH  13  14
ENDBRANCH  11  13
ENDBRANCH   6  11
ENDBRANCH   2   5
BRANCH   3  16
HETATM   16  C2  UNK     1      20.123  -5.828  36.859  1.00  0.00     0.108 A 
HETATM   17  C10 UNK     1      20.153  -6.607  35.601  1.00  0.00     0.304 A 
HETATM   18  O1  UNK     1      20.047  -7.990  35.719  1.00  0.00    -0.274 OA
HETATM   19  O4  UNK     1      20.264  -6.066  34.506  1.00  0.00    -0.259 OA
HETATM   20  C5  UNK     1      19.921  -8.621  36.971  1.00  0.00     0.089 A 
HETATM   21  C1  UNK     1      19.896  -7.870  38.142  1.00  0.00    -0.001 A 
HETATM   22  C11 UNK     1      19.822 -10.011  36.990  1.00  0.00     0.038 A 
HETATM   23  C6  UNK     1      20.003  -6.422  38.052  1.00  0.00     0.037 A 
HETATM   24  C9  UNK     1      19.768  -8.532  39.366  1.00  0.00     0.014 A 
HETATM   25  C14 UNK     1      19.668  -9.926  39.400  1.00  0.00     0.001 A 
HETATM   26  C15 UNK     1      19.695 -10.663  38.214  1.00  0.00     0.003 A 
ENDBRANCH   3  16
TORSDOF 5
ENDMDL
MODEL 3
REMARK VINA RESULT:      -8.4     14.943     18.951
REMARK  5 active torsions:
REMARK  status: ('A' for Active; 'I' for Inactive)
REMARK    1  A    between atoms: C12_20  and  O2_3 
REMARK    2  A    between atoms: C16_24  and  O2_3 
REMARK    3  A    between atoms: C4_12  and  N1_7 
REMARK       I    between atoms: C8_16  and  N1_7 
REMARK    4  A    between atoms: C2_10  and  C8_16 
REMARK    5  A    between atoms: C12_20  and  C3_11 
ROOT
HETATM    1  O3  UNK     1      17.947  -3.170  15.892  1.00  0.00    -0.267 OA
HETATM    2  N1  UNK     1      20.235  -3.028  15.333  1.00  0.00    -0.315 N 
HETATM    3  C8  UNK     1      19.006  -2.557  15.776  1.00  0.00     0.262 C 
HETATM    4  H2  UNK     1      21.025  -2.387  15.298  1.00  0.00     0.170 HD
ENDROOT
BRANCH   2   5
HETATM    5  C4  UNK     1      20.516  -4.333  14.919  1.00  0.00     0.114 A 
HETATM    6  C3  UNK     1      20.039  -5.120  13.893  1.00  0.00     0.099 A 
HETATM    7  C7  UNK     1      20.672  -6.396  13.920  1.00  0.00     0.058 A 
HETATM    8  C13 UNK     1      20.412  -7.499  12.971  1.00  0.00     0.072 C 
HETATM    9  N2  UNK     1      21.571  -6.609  14.878  1.00  0.00    -0.213 NA
HETATM   10  S1  UNK     1      21.678  -5.231  15.800  1.00  0.00     0.030 SA
BRANCH   6  11
HETATM   11  C12 UNK     1      19.045  -4.678  12.951  1.00  0.00     0.298 C 
HETATM   12  O5  UNK     1      18.028  -5.306  12.615  1.00  0.00    -0.259 OA
BRANCH  11  13
HETATM   13  O2  UNK     1      19.345  -3.435  12.437  1.00  0.00    -0.318 OA
BRANCH  13  14
HETATM   14  C16 UNK     1      20.227  -3.397  11.309  1.00  0.00     0.174 C 
HETATM   15  C17 UNK     1      20.843  -2.018  11.213  1.00  0.00     0.034 C 
ENDBRANCH  13  14
ENDBRANCH  11  13
ENDBRANCH   6  11
ENDBRANCH   2   5
BRANCH   3  16
HETATM   16  C2  UNK     1      19.063  -1.134  16.132  1.00  0.00     0.108 A 
HETATM   17  C10 UNK     1      19.258  -0.077  15.114  1.00  0.00     0.304 A 
HETATM   18  O1  UNK     1      19.293   1.236  15.575  1.00  0.00    -0.274 OA
HETATM   19  O4  UNK     1      19.383  -0.339  13.923  1.00  0.00    -0.259 OA
HETATM   20  C5  UNK     1      19.148   1.548  16.941  1.00  0.00     0.089 A 
HETATM   21  C1  UNK     1      18.965   0.539  17.881  1.00  0.00    -0.001 A 
HETATM   22  C11 UNK     1      19.196   2.892  17.307  1.00  0.00     0.038 A 
HETATM   23  C6  UNK     1      18.925  -0.843  17.430  1.00  0.00     0.037 A 
HETATM   24  C9  UNK     1      18.826   0.888  19.227  1.00  0.00     0.014 A 
HETATM   25  C14 UNK     1      18.873   2.232  19.609  1.00  0.00     0.001 A 
HETATM   26  C15 UNK     1      19.057   3.231  18.651  1.00  0.00     0.003 A 
ENDBRANCH   3  16
TORSDOF 5
ENDMDL
MODEL 4
REMARK VINA RESULT:      -8.4      2.682      7.917
REMARK  5 active torsions:
REMARK  status: ('A' for Active; 'I' for Inactive)
REMARK    1  A    between atoms: C12_20  and  O2_3 
REMARK    2  A    between atoms: C16_24  and  O2_3 
REMARK    3  A    between atoms: C4_12  and  N1_7 
REMARK       I    between atoms: C8_16  and  N1_7 
REMARK    4  A    between atoms: C2_10  and  C8_16 
REMARK    5  A    between atoms: C12_20  and  C3_11 
ROOT
HETATM    1  O3  UNK     1      19.638   4.658  30.218  1.00  0.00    -0.267 OA
HETATM    2  N1  UNK     1      18.187   2.934  30.921  1.00  0.00    -0.315 N 
HETATM    3  C8  UNK     1      18.775   4.191  30.959  1.00  0.00     0.262 C 
HETATM    4  H2  UNK     1      17.478   2.700  31.612  1.00  0.00     0.170 HD
ENDROOT
BRANCH   2   5
HETATM    5  C4  UNK     1      18.472   1.920  30.002  1.00  0.00     0.114 A 
HETATM    6  C3  UNK     1      19.201   0.753  30.081  1.00  0.00     0.099 A 
HETATM    7  C7  UNK     1      19.170   0.071  28.831  1.00  0.00     0.058 A 
HETATM    8  C13 UNK     1      19.840  -1.215  28.542  1.00  0.00     0.072 C 
HETATM    9  N2  UNK     1      18.482   0.639  27.844  1.00  0.00    -0.213 NA
HETATM   10  S1  UNK     1      17.833   2.058  28.419  1.00  0.00     0.030 SA
BRANCH   6  11
HETATM   11  C12 UNK     1      19.879   0.321  31.275  1.00  0.00     0.298 C 
HETATM   12  O5  UNK     1      21.066  -0.031  31.352  1.00  0.00    -0.259 OA
BRANCH  11  13
HETATM   13  O2  UNK     1      19.045   0.339  32.371  1.00  0.00    -0.318 OA
BRANCH  13  14
HETATM   14  C16 UNK     1      18.676  -0.929  32.924  1.00  0.00     0.174 C 
HETATM   15  C17 UNK     1      18.283  -0.739  34.374  1.00  0.00     0.034 C 
ENDBRANCH  13  14
ENDBRANCH  11  13
ENDBRANCH   6  11
ENDBRANCH   2   5
BRANCH   3  16
HETATM   16  C2  UNK     1      18.243   5.009  32.056  1.00  0.00     0.108 A 
HETATM   17  C10 UNK     1      18.136   4.495  33.440  1.00  0.00     0.304 A 
HETATM   18  O1  UNK     1      17.616   5.366  34.393  1.00  0.00    -0.274 OA
HETATM   19  O4  UNK     1      18.487   3.358  33.737  1.00  0.00    -0.259 OA
HETATM   20  C5  UNK     1      17.212   6.674  34.062  1.00  0.00     0.089 A 
HETATM   21  C1  UNK     1      17.321   7.138  32.755  1.00  0.00    -0.001 A 
HETATM   22  C11 UNK     1      16.704   7.473  35.084  1.00  0.00     0.038 A 
HETATM   23  C6  UNK     1      17.860   6.251  31.736  1.00  0.00     0.037 A 
HETATM   24  C9  UNK     1      16.909   8.441  32.465  1.00  0.00     0.014 A 
HETATM   25  C14 UNK     1      16.397   9.255  33.481  1.00  0.00     0.001 A 
HETATM   26  C15 UNK     1      16.296   8.771  34.787  1.00  0.00     0.003 A 
ENDBRANCH   3  16
TORSDOF 5
ENDMDL
MODEL 5
REMARK VINA RESULT:      -8.3     14.069     18.030
REMARK  5 active torsions:
REMARK  status: ('A' for Active; 'I' for Inactive)
REMARK    1  A    between atoms: C12_20  and  O2_3 
REMARK    2  A    between atoms: C16_24  and  O2_3 
REMARK    3  A    between atoms: C4_12  and  N1_7 
REMARK       I    between atoms: C8_16  and  N1_7 
REMARK    4  A    between atoms: C2_10  and  C8_16 
REMARK    5  A    between atoms: C12_20  and  C3_11 
ROOT
HETATM    1  O3  UNK     1      17.951  -2.227  15.888  1.00  0.00    -0.267 OA
HETATM    2  N1  UNK     1      19.721  -1.279  14.647  1.00  0.00    -0.315 N 
HETATM    3  C8  UNK     1      18.833  -1.389  15.709  1.00  0.00     0.262 C 
HETATM    4  H2  UNK     1      20.402  -0.522  14.650  1.00  0.00     0.170 HD
ENDROOT
BRANCH   2   5
HETATM    5  C4  UNK     1      19.787  -2.128  13.538  1.00  0.00     0.114 A 
HETATM    6  C3  UNK     1      20.201  -3.432  13.373  1.00  0.00     0.099 A 
HETATM    7  C7  UNK     1      20.057  -3.822  12.010  1.00  0.00     0.058 A 
HETATM    8  C13 UNK     1      20.401  -5.151  11.461  1.00  0.00     0.072 C 
HETATM    9  N2  UNK     1      19.574  -2.915  11.166  1.00  0.00    -0.213 NA
HETATM   10  S1  UNK     1      19.272  -1.523  12.022  1.00  0.00     0.030 SA
BRANCH   6  11
HETATM   11  C12 UNK     1      20.699  -4.249  14.448  1.00  0.00     0.298 C 
HETATM   12  O5  UNK     1      20.195  -5.307  14.855  1.00  0.00    -0.259 OA
BRANCH  11  13
HETATM   13  O2  UNK     1      21.842  -3.717  15.006  1.00  0.00    -0.318 OA
BRANCH  13  14
HETATM   14  C16 UNK     1      22.290  -4.294  16.237  1.00  0.00     0.174 C 
HETATM   15  C17 UNK     1      21.935  -3.362  17.376  1.00  0.00     0.034 C 
ENDBRANCH  13  14
ENDBRANCH  11  13
ENDBRANCH   6  11
ENDBRANCH   2   5
BRANCH   3  16
HETATM   16  C2  UNK     1      19.039  -0.330  16.705  1.00  0.00     0.108 A 
HETATM   17  C10 UNK     1      19.242   1.084  16.317  1.00  0.00     0.304 A 
HETATM   18  O1  UNK     1      19.426   1.996  17.352  1.00  0.00    -0.274 OA
HETATM   19  O4  UNK     1      19.250   1.439  15.143  1.00  0.00    -0.259 OA
HETATM   20  C5  UNK     1      19.418   1.598  18.703  1.00  0.00     0.089 A 
HETATM   21  C1  UNK     1      19.225   0.264  19.046  1.00  0.00    -0.001 A 
HETATM   22  C11 UNK     1      19.609   2.583  19.670  1.00  0.00     0.038 A 
HETATM   23  C6  UNK     1      19.030  -0.714  17.986  1.00  0.00     0.037 A 
HETATM   24  C9  UNK     1      19.223  -0.093  20.397  1.00  0.00     0.014 A 
HETATM   25  C14 UNK     1      19.414   0.885  21.378  1.00  0.00     0.001 A 
HETATM   26  C15 UNK     1      19.606   2.220  21.015  1.00  0.00     0.003 A 
ENDBRANCH   3  16
TORSDOF 5
ENDMDL
MODEL 6
REMARK VINA RESULT:      -8.3      4.368      8.141
REMARK  5 active torsions:
REMARK  status: ('A' for Active; 'I' for Inactive)
REMARK    1  A    between atoms: C12_20  and  O2_3 
REMARK    2  A    between atoms: C16_24  and  O2_3 
REMARK    3  A    between atoms: C4_12  and  N1_7 
REMARK       I    between atoms: C8_16  and  N1_7 
REMARK    4  A    between atoms: C2_10  and  C8_16 
REMARK    5  A    between atoms: C12_20  and  C3_11 
ROOT
HETATM    1  O3  UNK     1      16.608   0.729  34.191  1.00  0.00    -0.267 OA
HETATM    2  N1  UNK     1      18.900   0.641  34.750  1.00  0.00    -0.315 N 
HETATM    3  C8  UNK     1      17.773   1.107  34.085  1.00  0.00     0.262 C 
HETATM    4  H2  UNK     1      19.802   1.067  34.550  1.00  0.00     0.170 HD
ENDROOT
BRANCH   2   5
HETATM    5  C4  UNK     1      18.928  -0.383  35.702  1.00  0.00     0.114 A 
HETATM    6  C3  UNK     1      19.657  -1.548  35.810  1.00  0.00     0.099 A 
HETATM    7  C7  UNK     1      19.291  -2.245  36.998  1.00  0.00     0.058 A 
HETATM    8  C13 UNK     1      19.864  -3.533  37.445  1.00  0.00     0.072 C 
HETATM    9  N2  UNK     1      18.357  -1.689  37.766  1.00  0.00    -0.213 NA
HETATM   10  S1  UNK     1      17.881  -0.266  37.051  1.00  0.00     0.030 SA
BRANCH   6  11
HETATM   11  C12 UNK     1      20.638  -1.964  34.843  1.00  0.00     0.298 C 
HETATM   12  O5  UNK     1      21.842  -2.167  35.066  1.00  0.00    -0.259 OA
BRANCH  11  13
HETATM   13  O2  UNK     1      20.085  -2.121  33.591  1.00  0.00    -0.318 OA
BRANCH  13  14
HETATM   14  C16 UNK     1      20.969  -2.524  32.539  1.00  0.00     0.174 C 
HETATM   15  C17 UNK     1      20.372  -2.113  31.209  1.00  0.00     0.034 C 
ENDBRANCH  13  14
ENDBRANCH  11  13
ENDBRANCH   6  11
ENDBRANCH   2   5
BRANCH   3  16
HETATM   16  C2  UNK     1      18.101   2.192  33.152  1.00  0.00     0.108 A 
HETATM   17  C10 UNK     1      18.491   1.929  31.748  1.00  0.00     0.304 A 
HETATM   18  O1  UNK     1      18.777   3.041  30.961  1.00  0.00    -0.274 OA
HETATM   19  O4  UNK     1      18.561   0.791  31.297  1.00  0.00    -0.259 OA
HETATM   20  C5  UNK     1      18.698   4.352  31.469  1.00  0.00     0.089 A 
HETATM   21  C1  UNK     1      18.328   4.576  32.791  1.00  0.00    -0.001 A 
HETATM   22  C11 UNK     1      19.002   5.402  30.604  1.00  0.00     0.038 A 
HETATM   23  C6  UNK     1      18.024   3.435  33.640  1.00  0.00     0.037 A 
HETATM   24  C9  UNK     1      18.262   5.891  33.259  1.00  0.00     0.014 A 
HETATM   25  C14 UNK     1      18.564   6.955  32.403  1.00  0.00     0.001 A 
HETATM   26  C15 UNK     1      18.933   6.709  31.079  1.00  0.00     0.003 A 
ENDBRANCH   3  16
TORSDOF 5
ENDMDL
MODEL 7
REMARK VINA RESULT:      -8.3      2.208      3.429
REMARK  5 active torsions:
REMARK  status: ('A' for Active; 'I' for Inactive)
REMARK    1  A    between atoms: C12_20  and  O2_3 
REMARK    2  A    between atoms: C16_24  and  O2_3 
REMARK    3  A    between atoms: C4_12  and  N1_7 
REMARK       I    between atoms: C8_16  and  N1_7 
REMARK    4  A    between atoms: C2_10  and  C8_16 
REMARK    5  A    between atoms: C12_20  and  C3_11 
ROOT
HETATM    1  O3  UNK     1      18.589   5.095  30.354  1.00  0.00    -0.267 OA
HETATM    2  N1  UNK     1      17.471   4.885  32.421  1.00  0.00    -0.315 N 
HETATM    3  C8  UNK     1      18.210   4.450  31.329  1.00  0.00     0.262 C 
HETATM    4  H2  UNK     1      17.238   4.220  33.155  1.00  0.00     0.170 HD
ENDROOT
BRANCH   2   5
HETATM    5  C4  UNK     1      17.001   6.185  32.632  1.00  0.00     0.114 A 
HETATM    6  C3  UNK     1      17.559   7.308  33.204  1.00  0.00     0.099 A 
HETATM    7  C7  UNK     1      16.633   8.390  33.162  1.00  0.00     0.058 A 
HETATM    8  C13 UNK     1      16.884   9.750  33.683  1.00  0.00     0.072 C 
HETATM    9  N2  UNK     1      15.446   8.153  32.609  1.00  0.00    -0.213 NA
HETATM   10  S1  UNK     1      15.416   6.569  32.109  1.00  0.00     0.030 SA
BRANCH   6  11
HETATM   11  C12 UNK     1      18.889   7.341  33.752  1.00  0.00     0.298 C 
HETATM   12  O5  UNK     1      19.181   7.488  34.949  1.00  0.00    -0.259 OA
BRANCH  11  13
HETATM   13  O2  UNK     1      19.848   7.187  32.775  1.00  0.00    -0.318 OA
BRANCH  13  14
HETATM   14  C16 UNK     1      20.922   6.284  33.058  1.00  0.00     0.174 C 
HETATM   15  C17 UNK     1      21.660   5.977  31.772  1.00  0.00     0.034 C 
ENDBRANCH  13  14
ENDBRANCH  11  13
ENDBRANCH   6  11
ENDBRANCH   2   5
BRANCH   3  16
HETATM   16  C2  UNK     1      18.539   3.023  31.426  1.00  0.00     0.108 A 
HETATM   17  C10 UNK     1      18.362   2.260  32.682  1.00  0.00     0.304 A 
HETATM   18  O1  UNK     1      18.709   0.912  32.648  1.00  0.00    -0.274 OA
HETATM   19  O4  UNK     1      17.933   2.784  33.704  1.00  0.00    -0.259 OA
HETATM   20  C5  UNK     1      19.202   0.300  31.480  1.00  0.00     0.089 A 
HETATM   21  C1  UNK     1      19.360   1.036  30.309  1.00  0.00    -0.001 A 
HETATM   22  C11 UNK     1      19.521  -1.055  31.542  1.00  0.00     0.038 A 
HETATM   23  C6  UNK     1      19.007   2.447  30.313  1.00  0.00     0.037 A 
HETATM   24  C9  UNK     1      19.852   0.394  29.170  1.00  0.00     0.014 A 
HETATM   25  C14 UNK     1      20.177  -0.965  29.218  1.00  0.00     0.001 A 
HETATM   26  C15 UNK     1      20.011  -1.687  30.402  1.00  0.00     0.003 A 
ENDBRANCH   3  16
TORSDOF 5
ENDMDL
MODEL 8
REMARK VINA RESULT:      -7.8     15.225     19.221
REMARK  5 active torsions:
REMARK  status: ('A' for Active; 'I' for Inactive)
REMARK    1  A    between atoms: C12_20  and  O2_3 
REMARK    2  A    between atoms: C16_24  and  O2_3 
REMARK    3  A    between atoms: C4_12  and  N1_7 
REMARK       I    between atoms: C8_16  and  N1_7 
REMARK    4  A    between atoms: C2_10  and  C8_16 
REMARK    5  A    between atoms: C12_20  and  C3_11 
ROOT
HETATM    1  O3  UNK     1      20.434  -3.343  16.057  1.00  0.00    -0.267 OA
HETATM    2  N1  UNK     1      18.258  -3.179  15.160  1.00  0.00    -0.315 N 
HETATM    3  C8  UNK     1      19.407  -2.722  15.790  1.00  0.00     0.262 C 
HETATM    4  H2  UNK     1      17.488  -2.530  15.009  1.00  0.00     0.170 HD
ENDROOT
BRANCH   2   5
HETATM    5  C4  UNK     1      18.037  -4.476  14.690  1.00  0.00     0.114 A 
HETATM    6  C3  UNK     1      18.471  -5.161  13.575  1.00  0.00     0.099 A 
HETATM    7  C7  UNK     1      17.942  -6.485  13.578  1.00  0.00     0.058 A 
HETATM    8  C13 UNK     1      18.192  -7.507  12.540  1.00  0.00     0.072 C 
HETATM    9  N2  UNK     1      17.158  -6.825  14.598  1.00  0.00    -0.213 NA
HETATM   10  S1  UNK     1      17.036  -5.514  15.614  1.00  0.00     0.030 SA
BRANCH   6  11
HETATM   11  C12 UNK     1      19.334  -4.588  12.577  1.00  0.00     0.298 C 
HETATM   12  O5  UNK     1      20.516  -4.899  12.369  1.00  0.00    -0.259 OA
BRANCH  11  13
HETATM   13  O2  UNK     1      18.689  -3.616  11.843  1.00  0.00    -0.318 OA
BRANCH  13  14
HETATM   14  C16 UNK     1      19.063  -3.491  10.466  1.00  0.00     0.174 C 
HETATM   15  C17 UNK     1      18.367  -4.572   9.667  1.00  0.00     0.034 C 
ENDBRANCH  13  14
ENDBRANCH  11  13
ENDBRANCH   6  11
ENDBRANCH   2   5
BRANCH   3  16
HETATM   16  C2  UNK     1      19.303  -1.303  16.155  1.00  0.00     0.108 A 
HETATM   17  C10 UNK     1      19.350  -0.226  15.140  1.00  0.00     0.304 A 
HETATM   18  O1  UNK     1      19.240   1.079  15.609  1.00  0.00    -0.274 OA
HETATM   19  O4  UNK     1      19.478  -0.467  13.945  1.00  0.00    -0.259 OA
HETATM   20  C5  UNK     1      19.090   1.367  16.980  1.00  0.00     0.089 A 
HETATM   21  C1  UNK     1      19.049   0.339  17.917  1.00  0.00    -0.001 A 
HETATM   22  C11 UNK     1      18.988   2.705  17.355  1.00  0.00     0.038 A 
HETATM   23  C6  UNK     1      19.162  -1.036  17.458  1.00  0.00     0.037 A 
HETATM   24  C9  UNK     1      18.900   0.664  19.268  1.00  0.00     0.014 A 
HETATM   25  C14 UNK     1      18.796   2.002  19.659  1.00  0.00     0.001 A 
HETATM   26  C15 UNK     1      18.840   3.020  18.703  1.00  0.00     0.003 A 
ENDBRANCH   3  16
TORSDOF 5
ENDMDL
MODEL 9
REMARK VINA RESULT:      -7.8      2.877      7.907
REMARK  5 active torsions:
REMARK  status: ('A' for Active; 'I' for Inactive)
REMARK    1  A    between atoms: C12_20  and  O2_3 
REMARK    2  A    between atoms: C16_24  and  O2_3 
REMARK    3  A    between atoms: C4_12  and  N1_7 
REMARK       I    between atoms: C8_16  and  N1_7 
REMARK    4  A    between atoms: C2_10  and  C8_16 
REMARK    5  A    between atoms: C12_20  and  C3_11 
ROOT
HETATM    1  O3  UNK     1      19.601   5.376  31.817  1.00  0.00    -0.267 OA
HETATM    2  N1  UNK     1      17.852   3.969  32.545  1.00  0.00    -0.315 N 
HETATM    3  C8  UNK     1      18.536   5.168  32.395  1.00  0.00     0.262 C 
HETATM    4  H2  UNK     1      16.970   3.965  33.054  1.00  0.00     0.170 HD
ENDROOT
BRANCH   2   5
HETATM    5  C4  UNK     1      18.255   2.724  32.053  1.00  0.00     0.114 A 
HETATM    6  C3  UNK     1      18.424   1.488  32.640  1.00  0.00     0.099 A 
HETATM    7  C7  UNK     1      18.858   0.541  31.668  1.00  0.00     0.058 A 
HETATM    8  C13 UNK     1      19.142  -0.886  31.933  1.00  0.00     0.072 C 
HETATM    9  N2  UNK     1      19.022   0.978  30.422  1.00  0.00    -0.213 NA
HETATM   10  S1  UNK     1      18.643   2.597  30.390  1.00  0.00     0.030 SA
BRANCH   6  11
HETATM   11  C12 UNK     1      18.184   1.233  34.035  1.00  0.00     0.298 C 
HETATM   12  O5  UNK     1      19.043   1.202  34.929  1.00  0.00    -0.259 OA
BRANCH  11  13
HETATM   13  O2  UNK     1      16.847   1.018  34.292  1.00  0.00    -0.318 OA
BRANCH  13  14
HETATM   14  C16 UNK     1      16.527  -0.012  35.234  1.00  0.00     0.174 C 
HETATM   15  C17 UNK     1      15.935   0.621  36.475  1.00  0.00     0.034 C 
ENDBRANCH  13  14
ENDBRANCH  11  13
ENDBRANCH   6  11
ENDBRANCH   2   5
BRANCH   3  16
HETATM   16  C2  UNK     1      17.830   6.283  33.037  1.00  0.00     0.108 A 
HETATM   17  C10 UNK     1      18.427   7.052  34.152  1.00  0.00     0.304 A 
HETATM   18  O1  UNK     1      17.660   8.088  34.678  1.00  0.00    -0.274 OA
HETATM   19  O4  UNK     1      19.541   6.794  34.594  1.00  0.00    -0.259 OA
HETATM   20  C5  UNK     1      16.380   8.394  34.176  1.00  0.00     0.089 A 
HETATM   21  C1  UNK     1      15.838   7.658  33.127  1.00  0.00    -0.001 A 
HETATM   22  C11 UNK     1      15.687   9.449  34.766  1.00  0.00     0.038 A 
HETATM   23  C6  UNK     1      16.614   6.569  32.557  1.00  0.00     0.037 A 
HETATM   24  C9  UNK     1      14.564   7.991  32.657  1.00  0.00     0.014 A 
HETATM   25  C14 UNK     1      13.858   9.048  33.240  1.00  0.00     0.001 A 
HETATM   26  C15 UNK     1      14.419   9.775  34.292  1.00  0.00     0.003 A 
ENDBRANCH   3  16
TORSDOF 5
ENDMDL
MODEL 10
REMARK VINA RESULT:      -7.7      6.773      8.844
REMARK  5 active torsions:
REMARK  status: ('A' for Active; 'I' for Inactive)
REMARK    1  A    between atoms: C12_20  and  O2_3 
REMARK    2  A    between atoms: C16_24  and  O2_3 
REMARK    3  A    between atoms: C4_12  and  N1_7 
REMARK       I    between atoms: C8_16  and  N1_7 
REMARK    4  A    between atoms: C2_10  and  C8_16 
REMARK    5  A    between atoms: C12_20  and  C3_11 
ROOT
HETATM    1  O3  UNK     1      21.289  -2.456  34.447  1.00  0.00    -0.267 OA
HETATM    2  N1  UNK     1      19.049  -1.972  35.012  1.00  0.00    -0.315 N 
HETATM    3  C8  UNK     1      20.237  -2.692  35.038  1.00  0.00     0.262 C 
HETATM    4  H2  UNK     1      18.262  -2.302  35.565  1.00  0.00     0.170 HD
ENDROOT
BRANCH   2   5
HETATM    5  C4  UNK     1      18.812  -0.802  34.285  1.00  0.00     0.114 A 
HETATM    6  C3  UNK     1      18.594   0.508  34.654  1.00  0.00     0.099 A 
HETATM    7  C7  UNK     1      18.405   1.317  33.497  1.00  0.00     0.058 A 
HETATM    8  C13 UNK     1      18.147   2.773  33.504  1.00  0.00     0.072 C 
HETATM    9  N2  UNK     1      18.465   0.711  32.314  1.00  0.00    -0.213 NA
HETATM   10  S1  UNK     1      18.761  -0.904  32.577  1.00  0.00     0.030 SA
BRANCH   6  11
HETATM   11  C12 UNK     1      18.571   0.954  36.022  1.00  0.00     0.298 C 
HETATM   12  O5  UNK     1      19.257   1.869  36.503  1.00  0.00    -0.259 OA
BRANCH  11  13
HETATM   13  O2  UNK     1      17.672   0.233  36.778  1.00  0.00    -0.318 OA
BRANCH  13  14
HETATM   14  C16 UNK     1      16.438   0.881  37.107  1.00  0.00     0.174 C 
HETATM   15  C17 UNK     1      15.372   0.436  36.128  1.00  0.00     0.034 C 
ENDBRANCH  13  14
ENDBRANCH  11  13
ENDBRANCH   6  11
ENDBRANCH   2   5
BRANCH   3  16
HETATM   16  C2  UNK     1      20.141  -3.872  35.905  1.00  0.00     0.108 A 
HETATM   17  C10 UNK     1      20.115  -3.763  37.381  1.00  0.00     0.304 A 
HETATM   18  O1  UNK     1      20.021  -4.954  38.094  1.00  0.00    -0.274 OA
HETATM   19  O4  UNK     1      20.173  -2.679  37.951  1.00  0.00    -0.259 OA
HETATM   20  C5  UNK     1      19.952  -6.204  37.449  1.00  0.00     0.089 A 
HETATM   21  C1  UNK     1      19.977  -6.285  36.060  1.00  0.00    -0.001 A 
HETATM   22  C11 UNK     1      19.859  -7.342  38.247  1.00  0.00     0.038 A 
HETATM   23  C6  UNK     1      20.075  -5.057  35.286  1.00  0.00     0.037 A 
HETATM   24  C9  UNK     1      19.907  -7.542  35.455  1.00  0.00     0.014 A 
HETATM   25  C14 UNK     1      19.813  -8.693  36.244  1.00  0.00     0.001 A 
HETATM   26  C15 UNK     1      19.789  -8.592  37.637  1.00  0.00     0.003 A 
ENDBRANCH   3  16
TORSDOF 5
ENDMDL
