MODEL 1
REMARK VINA RESULT:      -9.9      0.000      0.000
REMARK  2 active torsions:
REMARK  status: ('A' for Active; 'I' for Inactive)
REMARK    1  A    between atoms: C6_12  and  N1_4 
REMARK    2  A    between atoms: C6_12  and  C7_13 
ROOT
HETATM    1  O1  UNK     1      27.889  -6.036  38.578  1.00  0.00    -0.273 OA
HETATM    2  O2  UNK     1      32.080  -8.332  38.330  1.00  0.00    -0.288 OA
HETATM    3  O3  UNK     1      25.896  -4.974  38.695  1.00  0.00    -0.259 OA
HETATM    4  N2  UNK     1      23.707  -6.303  38.954  1.00  0.00    -0.340 N 
HETATM    5  N3  UNK     1      23.803  -8.577  39.056  1.00  0.00    -0.340 N 
HETATM    6  C7  UNK     1      30.034  -7.107  38.446  1.00  0.00     0.055 A 
HETATM    7  C8  UNK     1      28.697  -7.204  38.564  1.00  0.00     0.101 A 
HETATM    8  C9  UNK     1      28.036  -8.492  38.681  1.00  0.00    -0.000 A 
HETATM    9  C10 UNK     1      30.858  -8.362  38.435  1.00  0.00     0.182 A 
HETATM   10  C11 UNK     1      25.889  -7.358  38.814  1.00  0.00     0.084 A 
HETATM   11  C12 UNK     1      26.701  -8.549  38.799  1.00  0.00     0.035 A 
HETATM   12  C13 UNK     1      28.822  -9.712  38.672  1.00  0.00     0.018 A 
HETATM   13  C14 UNK     1      30.153  -9.666  38.557  1.00  0.00     0.056 A 
HETATM   14  C15 UNK     1      24.554  -7.408  38.933  1.00  0.00     0.122 A 
HETATM   15  C16 UNK     1      26.526  -6.024  38.693  1.00  0.00     0.302 A 
HETATM   16  C17 UNK     1      22.400  -6.780  39.092  1.00  0.00     0.060 A 
HETATM   17  C18 UNK     1      22.459  -8.199  39.156  1.00  0.00     0.060 A 
HETATM   18  C19 UNK     1      21.204  -6.105  39.166  1.00  0.00     0.032 A 
HETATM   19  C20 UNK     1      21.325  -8.963  39.293  1.00  0.00     0.032 A 
HETATM   20  C21 UNK     1      20.045  -6.874  39.305  1.00  0.00     0.002 A 
HETATM   21  C22 UNK     1      20.104  -8.284  39.368  1.00  0.00     0.002 A 
HETATM   22  H16 UNK     1      23.992  -5.342  38.881  1.00  0.00     0.167 HD
HETATM   23  H17 UNK     1      24.161  -9.515  39.071  1.00  0.00     0.167 HD
ENDROOT
BRANCH   6  24
HETATM   24  C6  UNK     1      30.788  -5.817  38.322  1.00  0.00     0.318 C 
BRANCH  24  25
HETATM   25  N1  UNK     1      31.517  -5.733  37.058  1.00  0.00     0.092 N 
HETATM   26  C1  UNK     1      30.581  -5.675  35.927  1.00  0.00     0.272 C 
HETATM   27  C3  UNK     1      31.328  -5.636  34.593  1.00  0.00     0.030 C 
HETATM   28  C5  UNK     1      32.314  -4.474  34.543  1.00  0.00     0.003 C 
HETATM   29  C4  UNK     1      33.226  -4.497  35.764  1.00  0.00     0.030 C 
HETATM   30  C2  UNK     1      32.419  -4.572  37.061  1.00  0.00     0.272 C 
ENDBRANCH  24  25
ENDBRANCH   6  24
TORSDOF 2
ENDMDL
MODEL 2
REMARK VINA RESULT:      -9.3      1.933      3.230
REMARK  2 active torsions:
REMARK  status: ('A' for Active; 'I' for Inactive)
REMARK    1  A    between atoms: C6_12  and  N1_4 
REMARK    2  A    between atoms: C6_12  and  C7_13 
ROOT
HETATM    1  O1  UNK     1      28.318  -8.198  38.520  1.00  0.00    -0.273 OA
HETATM    2  O2  UNK     1      32.167  -5.362  38.314  1.00  0.00    -0.288 OA
HETATM    3  O3  UNK     1      26.484  -9.517  38.622  1.00  0.00    -0.259 OA
HETATM    4  N2  UNK     1      24.136  -8.493  38.864  1.00  0.00    -0.340 N 
HETATM    5  N3  UNK     1      23.928  -6.228  38.984  1.00  0.00    -0.340 N 
HETATM    6  C7  UNK     1      30.302  -6.849  38.409  1.00  0.00     0.055 A 
HETATM    7  C8  UNK     1      28.964  -6.933  38.522  1.00  0.00     0.101 A 
HETATM    8  C9  UNK     1      28.136  -5.746  38.649  1.00  0.00    -0.000 A 
HETATM    9  C10 UNK     1      30.952  -5.496  38.415  1.00  0.00     0.182 A 
HETATM   10  C11 UNK     1      26.159  -7.156  38.753  1.00  0.00     0.084 A 
HETATM   11  C12 UNK     1      26.805  -5.867  38.758  1.00  0.00     0.035 A 
HETATM   12  C13 UNK     1      28.753  -4.432  38.656  1.00  0.00     0.018 A 
HETATM   13  C14 UNK     1      30.079  -4.299  38.546  1.00  0.00     0.056 A 
HETATM   14  C15 UNK     1      24.828  -7.285  38.861  1.00  0.00     0.122 A 
HETATM   15  C16 UNK     1      26.969  -8.392  38.629  1.00  0.00     0.302 A 
HETATM   16  C17 UNK     1      22.776  -8.195  38.993  1.00  0.00     0.060 A 
HETATM   17  C18 UNK     1      22.645  -6.781  39.067  1.00  0.00     0.060 A 
HETATM   18  C19 UNK     1      21.680  -9.024  39.047  1.00  0.00     0.032 A 
HETATM   19  C20 UNK     1      21.417  -6.176  39.198  1.00  0.00     0.032 A 
HETATM   20  C21 UNK     1      20.427  -8.417  39.180  1.00  0.00     0.002 A 
HETATM   21  C22 UNK     1      20.297  -7.012  39.254  1.00  0.00     0.002 A 
HETATM   22  H16 UNK     1      24.546  -9.407  38.790  1.00  0.00     0.167 HD
HETATM   23  H17 UNK     1      24.157  -5.251  39.008  1.00  0.00     0.167 HD
ENDROOT
BRANCH   6  24
HETATM   24  C6  UNK     1      31.221  -8.027  38.273  1.00  0.00     0.318 C 
BRANCH  24  25
HETATM   25  N1  UNK     1      31.405  -8.415  36.875  1.00  0.00     0.092 N 
HETATM   26  C1  UNK     1      32.827  -8.365  36.511  1.00  0.00     0.272 C 
HETATM   27  C3  UNK     1      33.032  -8.721  35.038  1.00  0.00     0.030 C 
HETATM   28  C5  UNK     1      32.432 -10.084  34.707  1.00  0.00     0.003 C 
HETATM   29  C4  UNK     1      30.980 -10.152  35.165  1.00  0.00     0.030 C 
HETATM   30  C2  UNK     1      30.840  -9.750  36.635  1.00  0.00     0.272 C 
ENDBRANCH  24  25
ENDBRANCH   6  24
TORSDOF 2
ENDMDL
MODEL 3
REMARK VINA RESULT:      -9.3     34.382     36.832
REMARK  2 active torsions:
REMARK  status: ('A' for Active; 'I' for Inactive)
REMARK    1  A    between atoms: C6_12  and  N1_4 
REMARK    2  A    between atoms: C6_12  and  C7_13 
ROOT
HETATM    1  O1  UNK     1      14.475  10.016   8.660  1.00  0.00    -0.273 OA
HETATM    2  O2  UNK     1      12.852   5.848  10.359  1.00  0.00    -0.288 OA
HETATM    3  O3  UNK     1      15.266  11.981   7.866  1.00  0.00    -0.259 OA
HETATM    4  N2  UNK     1      17.777  12.534   7.979  1.00  0.00    -0.340 N 
HETATM    5  N3  UNK     1      19.200  11.013   8.903  1.00  0.00    -0.340 N 
HETATM    6  C7  UNK     1      13.576   7.949   9.488  1.00  0.00     0.055 A 
HETATM    7  C8  UNK     1      14.639   8.749   9.278  1.00  0.00     0.101 A 
HETATM    8  C9  UNK     1      15.979   8.348   9.669  1.00  0.00    -0.000 A 
HETATM    9  C10 UNK     1      13.785   6.615  10.144  1.00  0.00     0.182 A 
HETATM   10  C11 UNK     1      16.839  10.455   8.812  1.00  0.00     0.084 A 
HETATM   11  C12 UNK     1      17.015   9.170   9.441  1.00  0.00     0.035 A 
HETATM   12  C13 UNK     1      16.193   7.061  10.303  1.00  0.00     0.018 A 
HETATM   13  C14 UNK     1      15.169   6.233  10.533  1.00  0.00     0.056 A 
HETATM   14  C15 UNK     1      17.870  11.280   8.580  1.00  0.00     0.122 A 
HETATM   15  C16 UNK     1      15.486  10.901   8.402  1.00  0.00     0.302 A 
HETATM   16  C17 UNK     1      19.068  13.067   7.923  1.00  0.00     0.060 A 
HETATM   17  C18 UNK     1      19.957  12.118   8.499  1.00  0.00     0.060 A 
HETATM   18  C19 UNK     1      19.519  14.268   7.426  1.00  0.00     0.032 A 
HETATM   19  C20 UNK     1      21.308  12.358   8.588  1.00  0.00     0.032 A 
HETATM   20  C21 UNK     1      20.892  14.519   7.513  1.00  0.00     0.002 A 
HETATM   21  C22 UNK     1      21.774  13.577   8.086  1.00  0.00     0.002 A 
HETATM   22  H16 UNK     1      16.932  12.968   7.652  1.00  0.00     0.167 HD
HETATM   23  H17 UNK     1      19.549  10.182   9.344  1.00  0.00     0.167 HD
ENDROOT
BRANCH   6  24
HETATM   24  C6  UNK     1      12.165   8.291   9.113  1.00  0.00     0.318 C 
BRANCH  24  25
HETATM   25  N1  UNK     1      11.543   7.232   8.319  1.00  0.00     0.092 N 
HETATM   26  C1  UNK     1      10.079   7.338   8.381  1.00  0.00     0.272 C 
HETATM   27  C3  UNK     1       9.411   6.208   7.595  1.00  0.00     0.030 C 
HETATM   28  C5  UNK     1       9.894   6.176   6.149  1.00  0.00     0.003 C 
HETATM   29  C4  UNK     1      11.418   6.150   6.098  1.00  0.00     0.030 C 
HETATM   30  C2  UNK     1      12.022   7.282   6.931  1.00  0.00     0.272 C 
ENDBRANCH  24  25
ENDBRANCH   6  24
TORSDOF 2
ENDMDL
MODEL 4
REMARK VINA RESULT:      -9.3     24.739     26.337
REMARK  2 active torsions:
REMARK  status: ('A' for Active; 'I' for Inactive)
REMARK    1  A    between atoms: C6_12  and  N1_4 
REMARK    2  A    between atoms: C6_12  and  C7_13 
ROOT
HETATM    1  O1  UNK     1      19.086  -2.593  12.854  1.00  0.00    -0.273 OA
HETATM    2  O2  UNK     1      18.920  -7.276  11.883  1.00  0.00    -0.288 OA
HETATM    3  O3  UNK     1      19.161  -0.385  13.338  1.00  0.00    -0.259 OA
HETATM    4  N2  UNK     1      19.141   0.431  15.779  1.00  0.00    -0.340 N 
HETATM    5  N3  UNK     1      19.039  -1.109  17.455  1.00  0.00    -0.340 N 
HETATM    6  C7  UNK     1      19.006  -4.923  12.278  1.00  0.00     0.055 A 
HETATM    7  C8  UNK     1      19.020  -3.963  13.221  1.00  0.00     0.101 A 
HETATM    8  C9  UNK     1      18.971  -4.288  14.636  1.00  0.00    -0.000 A 
HETATM    9  C10 UNK     1      18.935  -6.362  12.702  1.00  0.00     0.182 A 
HETATM   10  C11 UNK     1      19.057  -1.917  15.166  1.00  0.00     0.084 A 
HETATM   11  C12 UNK     1      18.989  -3.305  15.549  1.00  0.00     0.035 A 
HETATM   12  C13 UNK     1      18.903  -5.675  15.058  1.00  0.00     0.018 A 
HETATM   13  C14 UNK     1      18.887  -6.664  14.157  1.00  0.00     0.056 A 
HETATM   14  C15 UNK     1      19.077  -0.929  16.073  1.00  0.00     0.122 A 
HETATM   15  C16 UNK     1      19.105  -1.544  13.731  1.00  0.00     0.302 A 
HETATM   16  C17 UNK     1      19.142   1.122  16.994  1.00  0.00     0.060 A 
HETATM   17  C18 UNK     1      19.079   0.161  18.041  1.00  0.00     0.060 A 
HETATM   18  C19 UNK     1      19.195   2.470  17.256  1.00  0.00     0.032 A 
HETATM   19  C20 UNK     1      19.064   0.536  19.364  1.00  0.00     0.032 A 
HETATM   20  C21 UNK     1      19.180   2.861  18.599  1.00  0.00     0.002 A 
HETATM   21  C22 UNK     1      19.116   1.907  19.639  1.00  0.00     0.002 A 
HETATM   22  H16 UNK     1      19.178   0.833  14.859  1.00  0.00     0.167 HD
HETATM   23  H17 UNK     1      18.991  -1.986  17.940  1.00  0.00     0.167 HD
ENDROOT
BRANCH   6  24
HETATM   24  C6  UNK     1      19.055  -4.667  10.801  1.00  0.00     0.318 C 
BRANCH  24  25
HETATM   25  N1  UNK     1      20.414  -4.381  10.344  1.00  0.00     0.092 N 
HETATM   26  C1  UNK     1      20.895  -5.450   9.460  1.00  0.00     0.272 C 
HETATM   27  C3  UNK     1      22.334  -5.191   9.011  1.00  0.00     0.030 C 
HETATM   28  C5  UNK     1      22.469  -3.828   8.341  1.00  0.00     0.003 C 
HETATM   29  C4  UNK     1      21.891  -2.736   9.233  1.00  0.00     0.030 C 
HETATM   30  C2  UNK     1      20.466  -3.073   9.675  1.00  0.00     0.272 C 
ENDBRANCH  24  25
ENDBRANCH   6  24
TORSDOF 2
ENDMDL
MODEL 5
REMARK VINA RESULT:      -8.9      3.118      8.567
REMARK  2 active torsions:
REMARK  status: ('A' for Active; 'I' for Inactive)
REMARK    1  A    between atoms: C6_12  and  N1_4 
REMARK    2  A    between atoms: C6_12  and  C7_13 
ROOT
HETATM    1  O1  UNK     1      24.303  -8.050  37.966  1.00  0.00    -0.273 OA
HETATM    2  O2  UNK     1      20.633 -10.671  36.364  1.00  0.00    -0.288 OA
HETATM    3  O3  UNK     1      26.054  -6.830  38.713  1.00  0.00    -0.259 OA
HETATM    4  N2  UNK     1      28.470  -7.499  38.133  1.00  0.00    -0.340 N 
HETATM    5  N3  UNK     1      28.825  -9.353  36.856  1.00  0.00    -0.340 N 
HETATM    6  C7  UNK     1      22.404  -9.308  37.204  1.00  0.00     0.055 A 
HETATM    7  C8  UNK     1      23.739  -9.142  37.254  1.00  0.00     0.101 A 
HETATM    8  C9  UNK     1      24.644 -10.062  36.587  1.00  0.00    -0.000 A 
HETATM    9  C10 UNK     1      21.841 -10.473  36.442  1.00  0.00     0.182 A 
HETATM   10  C11 UNK     1      26.531  -8.752  37.381  1.00  0.00     0.084 A 
HETATM   11  C12 UNK     1      25.968  -9.864  36.656  1.00  0.00     0.035 A 
HETATM   12  C13 UNK     1      24.111 -11.191  35.847  1.00  0.00     0.018 A 
HETATM   13  C14 UNK     1      22.792 -11.398  35.770  1.00  0.00     0.056 A 
HETATM   14  C15 UNK     1      27.855  -8.548  37.453  1.00  0.00     0.122 A 
HETATM   15  C16 UNK     1      25.641  -7.793  38.078  1.00  0.00     0.302 A 
HETATM   16  C17 UNK     1      29.851  -7.644  37.964  1.00  0.00     0.060 A 
HETATM   17  C18 UNK     1      30.073  -8.800  37.167  1.00  0.00     0.060 A 
HETATM   18  C19 UNK     1      30.894  -6.878  38.429  1.00  0.00     0.032 A 
HETATM   19  C20 UNK     1      31.340  -9.208  36.826  1.00  0.00     0.032 A 
HETATM   20  C21 UNK     1      32.187  -7.286  38.086  1.00  0.00     0.002 A 
HETATM   21  C22 UNK     1      32.407  -8.435  37.295  1.00  0.00     0.002 A 
HETATM   22  H16 UNK     1      28.000  -6.776  38.649  1.00  0.00     0.167 HD
HETATM   23  H17 UNK     1      28.659 -10.175  36.306  1.00  0.00     0.167 HD
ENDROOT
BRANCH   6  24
HETATM   24  C6  UNK     1      21.407  -8.402  37.864  1.00  0.00     0.318 C 
BRANCH  24  25
HETATM   25  N1  UNK     1      21.263  -7.137  37.145  1.00  0.00     0.092 N 
HETATM   26  C1  UNK     1      20.100  -7.184  36.250  1.00  0.00     0.272 C 
HETATM   27  C3  UNK     1      19.963  -5.886  35.454  1.00  0.00     0.030 C 
HETATM   28  C5  UNK     1      19.891  -4.674  36.377  1.00  0.00     0.003 C 
HETATM   29  C4  UNK     1      21.059  -4.680  37.356  1.00  0.00     0.030 C 
HETATM   30  C2  UNK     1      21.161  -6.018  38.092  1.00  0.00     0.272 C 
ENDBRANCH  24  25
ENDBRANCH   6  24
TORSDOF 2
ENDMDL
MODEL 6
REMARK VINA RESULT:      -8.9     12.045     15.450
REMARK  2 active torsions:
REMARK  status: ('A' for Active; 'I' for Inactive)
REMARK    1  A    between atoms: C6_12  and  N1_4 
REMARK    2  A    between atoms: C6_12  and  C7_13 
ROOT
HETATM    1  O1  UNK     1      18.698   1.370  33.163  1.00  0.00    -0.273 OA
HETATM    2  O2  UNK     1      19.893  -1.747  29.735  1.00  0.00    -0.288 OA
HETATM    3  O3  UNK     1      18.133   2.864  34.765  1.00  0.00    -0.259 OA
HETATM    4  N2  UNK     1      17.585   5.304  34.159  1.00  0.00    -0.340 N 
HETATM    5  N3  UNK     1      17.686   5.947  31.976  1.00  0.00    -0.340 N 
HETATM    6  C7  UNK     1      19.307  -0.259  31.507  1.00  0.00     0.055 A 
HETATM    7  C8  UNK     1      18.954   1.003  31.816  1.00  0.00     0.101 A 
HETATM    8  C9  UNK     1      18.821   2.026  30.793  1.00  0.00    -0.000 A 
HETATM    9  C10 UNK     1      19.570  -0.612  30.072  1.00  0.00     0.182 A 
HETATM   10  C11 UNK     1      18.207   3.636  32.508  1.00  0.00     0.084 A 
HETATM   11  C12 UNK     1      18.466   3.273  31.137  1.00  0.00     0.035 A 
HETATM   12  C13 UNK     1      19.073   1.695  29.402  1.00  0.00     0.018 A 
HETATM   13  C14 UNK     1      19.426   0.455  29.047  1.00  0.00     0.056 A 
HETATM   14  C15 UNK     1      17.850   4.881  32.859  1.00  0.00     0.122 A 
HETATM   15  C16 UNK     1      18.335   2.621  33.582  1.00  0.00     0.302 A 
HETATM   16  C17 UNK     1      17.250   6.660  34.097  1.00  0.00     0.060 A 
HETATM   17  C18 UNK     1      17.311   7.062  32.735  1.00  0.00     0.060 A 
HETATM   18  C19 UNK     1      16.904   7.542  35.093  1.00  0.00     0.032 A 
HETATM   19  C20 UNK     1      17.031   8.351  32.350  1.00  0.00     0.032 A 
HETATM   20  C21 UNK     1      16.617   8.856  34.710  1.00  0.00     0.002 A 
HETATM   21  C22 UNK     1      16.679   9.255  33.357  1.00  0.00     0.002 A 
HETATM   22  H16 UNK     1      17.632   4.733  34.985  1.00  0.00     0.167 HD
HETATM   23  H17 UNK     1      17.812   5.920  30.981  1.00  0.00     0.167 HD
ENDROOT
BRANCH   6  24
HETATM   24  C6  UNK     1      19.462  -1.368  32.504  1.00  0.00     0.318 C 
BRANCH  24  25
HETATM   25  N1  UNK     1      18.896  -1.013  33.805  1.00  0.00     0.092 N 
HETATM   26  C1  UNK     1      17.450  -1.270  33.823  1.00  0.00     0.272 C 
HETATM   27  C3  UNK     1      16.833  -0.859  35.161  1.00  0.00     0.030 C 
HETATM   28  C5  UNK     1      17.525  -1.554  36.328  1.00  0.00     0.003 C 
HETATM   29  C4  UNK     1      19.033  -1.349  36.252  1.00  0.00     0.030 C 
HETATM   30  C2  UNK     1      19.581  -1.745  34.880  1.00  0.00     0.272 C 
ENDBRANCH  24  25
ENDBRANCH   6  24
TORSDOF 2
ENDMDL
MODEL 7
REMARK VINA RESULT:      -8.9     10.535     13.600
REMARK  2 active torsions:
REMARK  status: ('A' for Active; 'I' for Inactive)
REMARK    1  A    between atoms: C6_12  and  N1_4 
REMARK    2  A    between atoms: C6_12  and  C7_13 
ROOT
HETATM    1  O1  UNK     1      18.355   1.515  32.846  1.00  0.00    -0.273 OA
HETATM    2  O2  UNK     1      18.330   2.810  28.239  1.00  0.00    -0.288 OA
HETATM    3  O3  UNK     1      18.374   0.878  35.016  1.00  0.00    -0.259 OA
HETATM    4  N2  UNK     1      19.199  -1.463  35.696  1.00  0.00    -0.340 N 
HETATM    5  N3  UNK     1      19.906  -2.897  34.073  1.00  0.00    -0.340 N 
HETATM    6  C7  UNK     1      18.309   2.246  30.559  1.00  0.00     0.055 A 
HETATM    7  C8  UNK     1      18.579   1.286  31.462  1.00  0.00     0.101 A 
HETATM    8  C9  UNK     1      19.107  -0.007  31.062  1.00  0.00    -0.000 A 
HETATM    9  C10 UNK     1      18.558   1.970  29.104  1.00  0.00     0.182 A 
HETATM   10  C11 UNK     1      19.137  -0.697  33.392  1.00  0.00     0.084 A 
HETATM   11  C12 UNK     1      19.367  -0.939  31.990  1.00  0.00     0.035 A 
HETATM   12  C13 UNK     1      19.353  -0.284  29.658  1.00  0.00     0.018 A 
HETATM   13  C14 UNK     1      19.099   0.638  28.724  1.00  0.00     0.056 A 
HETATM   14  C15 UNK     1      19.396  -1.625  34.326  1.00  0.00     0.122 A 
HETATM   15  C16 UNK     1      18.596   0.608  33.841  1.00  0.00     0.302 A 
HETATM   16  C17 UNK     1      19.589  -2.653  36.318  1.00  0.00     0.060 A 
HETATM   17  C18 UNK     1      20.031  -3.549  35.305  1.00  0.00     0.060 A 
HETATM   18  C19 UNK     1      19.594  -3.008  37.646  1.00  0.00     0.032 A 
HETATM   19  C20 UNK     1      20.481  -4.812  35.607  1.00  0.00     0.032 A 
HETATM   20  C21 UNK     1      20.051  -4.292  37.961  1.00  0.00     0.002 A 
HETATM   21  C22 UNK     1      20.488  -5.181  36.956  1.00  0.00     0.002 A 
HETATM   22  H16 UNK     1      18.840  -0.640  36.145  1.00  0.00     0.167 HD
HETATM   23  H17 UNK     1      20.140  -3.276  33.173  1.00  0.00     0.167 HD
ENDROOT
BRANCH   6  24
HETATM   24  C6  UNK     1      17.765   3.603  30.894  1.00  0.00     0.318 C 
BRANCH  24  25
HETATM   25  N1  UNK     1      18.701   4.378  31.707  1.00  0.00     0.092 N 
HETATM   26  C1  UNK     1      19.413   5.358  30.877  1.00  0.00     0.272 C 
HETATM   27  C3  UNK     1      20.432   6.145  31.703  1.00  0.00     0.030 C 
HETATM   28  C5  UNK     1      19.772   6.822  32.900  1.00  0.00     0.003 C 
HETATM   29  C4  UNK     1      18.968   5.809  33.708  1.00  0.00     0.030 C 
HETATM   30  C2  UNK     1      17.995   5.033  32.817  1.00  0.00     0.272 C 
ENDBRANCH  24  25
ENDBRANCH   6  24
TORSDOF 2
ENDMDL
MODEL 8
REMARK VINA RESULT:      -8.8     34.778     37.314
REMARK  2 active torsions:
REMARK  status: ('A' for Active; 'I' for Inactive)
REMARK    1  A    between atoms: C6_12  and  N1_4 
REMARK    2  A    between atoms: C6_12  and  C7_13 
ROOT
HETATM    1  O1  UNK     1      11.350   7.100   9.850  1.00  0.00    -0.273 OA
HETATM    2  O2  UNK     1       8.092   5.054   7.003  1.00  0.00    -0.288 OA
HETATM    3  O3  UNK     1      12.903   8.076  11.174  1.00  0.00    -0.259 OA
HETATM    4  N2  UNK     1      14.729   9.586  10.171  1.00  0.00    -0.340 N 
HETATM    5  N3  UNK     1      14.768   9.921   7.918  1.00  0.00    -0.340 N 
HETATM    6  C7  UNK     1       9.677   6.035   8.495  1.00  0.00     0.055 A 
HETATM    7  C8  UNK     1      10.760   6.829   8.587  1.00  0.00     0.101 A 
HETATM    8  C9  UNK     1      11.360   7.435   7.410  1.00  0.00    -0.000 A 
HETATM    9  C10 UNK     1       9.079   5.770   7.144  1.00  0.00     0.182 A 
HETATM   10  C11 UNK     1      13.028   8.493   8.827  1.00  0.00     0.084 A 
HETATM   11  C12 UNK     1      12.437   8.223   7.540  1.00  0.00     0.035 A 
HETATM   12  C13 UNK     1      10.789   7.186   6.099  1.00  0.00     0.018 A 
HETATM   13  C14 UNK     1       9.714   6.404   5.958  1.00  0.00     0.056 A 
HETATM   14  C15 UNK     1      14.105   9.281   8.964  1.00  0.00     0.122 A 
HETATM   15  C16 UNK     1      12.448   7.890  10.051  1.00  0.00     0.302 A 
HETATM   16  C17 UNK     1      15.805  10.431   9.884  1.00  0.00     0.060 A 
HETATM   17  C18 UNK     1      15.829  10.642   8.478  1.00  0.00     0.060 A 
HETATM   18  C19 UNK     1      16.731  11.015  10.716  1.00  0.00     0.032 A 
HETATM   19  C20 UNK     1      16.781  11.437   7.884  1.00  0.00     0.032 A 
HETATM   20  C21 UNK     1      17.703  11.825  10.120  1.00  0.00     0.002 A 
HETATM   21  C22 UNK     1      17.728  12.033   8.723  1.00  0.00     0.002 A 
HETATM   22  H16 UNK     1      14.452   9.253  11.078  1.00  0.00     0.167 HD
HETATM   23  H17 UNK     1      14.529   9.875   6.944  1.00  0.00     0.167 HD
ENDROOT
BRANCH   6  24
HETATM   24  C6  UNK     1       9.003   5.376   9.661  1.00  0.00     0.318 C 
BRANCH  24  25
HETATM   25  N1  UNK     1       7.623   5.833   9.820  1.00  0.00     0.092 N 
HETATM   26  C1  UNK     1       6.937   5.047  10.854  1.00  0.00     0.272 C 
HETATM   27  C3  UNK     1       5.477   5.480  10.999  1.00  0.00     0.030 C 
HETATM   28  C5  UNK     1       5.367   6.973  11.287  1.00  0.00     0.003 C 
HETATM   29  C4  UNK     1       6.151   7.774  10.254  1.00  0.00     0.030 C 
HETATM   30  C2  UNK     1       7.590   7.268  10.133  1.00  0.00     0.272 C 
ENDBRANCH  24  25
ENDBRANCH   6  24
TORSDOF 2
ENDMDL
MODEL 9
REMARK VINA RESULT:      -8.7     34.978     36.794
REMARK  2 active torsions:
REMARK  status: ('A' for Active; 'I' for Inactive)
REMARK    1  A    between atoms: C6_12  and  N1_4 
REMARK    2  A    between atoms: C6_12  and  C7_13 
ROOT
HETATM    1  O1  UNK     1      10.697   8.590   9.328  1.00  0.00    -0.273 OA
HETATM    2  O2  UNK     1      12.071   6.045   5.515  1.00  0.00    -0.288 OA
HETATM    3  O3  UNK     1      10.023   9.786  11.124  1.00  0.00    -0.259 OA
HETATM    4  N2  UNK     1       7.563   9.756  11.880  1.00  0.00    -0.340 N 
HETATM    5  N3  UNK     1       6.063   8.508  10.704  1.00  0.00    -0.340 N 
HETATM    6  C7  UNK     1      11.472   7.343   7.427  1.00  0.00     0.055 A 
HETATM    7  C8  UNK     1      10.462   7.713   8.236  1.00  0.00     0.101 A 
HETATM    8  C9  UNK     1       9.107   7.232   8.027  1.00  0.00    -0.000 A 
HETATM    9  C10 UNK     1      11.188   6.414   6.282  1.00  0.00     0.182 A 
HETATM   10  C11 UNK     1       8.375   8.510   9.961  1.00  0.00     0.084 A 
HETATM   11  C12 UNK     1       8.126   7.619   8.856  1.00  0.00     0.035 A 
HETATM   12  C13 UNK     1       8.821   6.333   6.925  1.00  0.00     0.018 A 
HETATM   13  C14 UNK     1       9.792   5.938   6.094  1.00  0.00     0.056 A 
HETATM   14  C15 UNK     1       7.398   8.900  10.794  1.00  0.00     0.122 A 
HETATM   15  C16 UNK     1       9.743   9.025  10.206  1.00  0.00     0.302 A 
HETATM   16  C17 UNK     1       6.312   9.909  12.486  1.00  0.00     0.060 A 
HETATM   17  C18 UNK     1       5.375   9.130  11.753  1.00  0.00     0.060 A 
HETATM   18  C19 UNK     1       5.934  10.642  13.586  1.00  0.00     0.032 A 
HETATM   19  C20 UNK     1       4.048   9.075  12.107  1.00  0.00     0.032 A 
HETATM   20  C21 UNK     1       4.586  10.592  13.954  1.00  0.00     0.002 A 
HETATM   21  C22 UNK     1       3.656   9.819  13.225  1.00  0.00     0.002 A 
HETATM   22  H16 UNK     1       8.426  10.183  12.168  1.00  0.00     0.167 HD
HETATM   23  H17 UNK     1       5.668   7.894  10.015  1.00  0.00     0.167 HD
ENDROOT
BRANCH   6  24
HETATM   24  C6  UNK     1      12.894   7.795   7.578  1.00  0.00     0.318 C 
BRANCH  24  25
HETATM   25  N1  UNK     1      13.561   7.126   8.694  1.00  0.00     0.092 N 
HETATM   26  C1  UNK     1      14.208   5.889   8.239  1.00  0.00     0.272 C 
HETATM   27  C3  UNK     1      14.870   5.151   9.404  1.00  0.00     0.030 C 
HETATM   28  C5  UNK     1      15.863   6.048  10.136  1.00  0.00     0.003 C 
HETATM   29  C4  UNK     1      15.202   7.363  10.531  1.00  0.00     0.030 C 
HETATM   30  C2  UNK     1      14.530   8.031   9.330  1.00  0.00     0.272 C 
ENDBRANCH  24  25
ENDBRANCH   6  24
TORSDOF 2
ENDMDL
MODEL 10
REMARK VINA RESULT:      -8.6      2.540      3.428
REMARK  2 active torsions:
REMARK  status: ('A' for Active; 'I' for Inactive)
REMARK    1  A    between atoms: C6_12  and  N1_4 
REMARK    2  A    between atoms: C6_12  and  C7_13 
ROOT
HETATM    1  O1  UNK     1      27.352  -9.326  36.849  1.00  0.00    -0.273 OA
HETATM    2  O2  UNK     1      31.702  -7.480  37.601  1.00  0.00    -0.288 OA
HETATM    3  O3  UNK     1      25.285 -10.182  36.513  1.00  0.00    -0.259 OA
HETATM    4  N2  UNK     1      23.227  -9.149  37.661  1.00  0.00    -0.340 N 
HETATM    5  N3  UNK     1      23.516  -7.356  39.037  1.00  0.00    -0.340 N 
HETATM    6  C7  UNK     1      29.570  -8.463  37.171  1.00  0.00     0.055 A 
HETATM    7  C8  UNK     1      28.252  -8.400  37.439  1.00  0.00     0.101 A 
HETATM    8  C9  UNK     1      27.706  -7.392  38.331  1.00  0.00    -0.000 A 
HETATM    9  C10 UNK     1      30.493  -7.468  37.811  1.00  0.00     0.182 A 
HETATM   10  C11 UNK     1      25.481  -8.302  37.970  1.00  0.00     0.084 A 
HETATM   11  C12 UNK     1      26.388  -7.357  38.574  1.00  0.00     0.035 A 
HETATM   12  C13 UNK     1      28.590  -6.424  38.956  1.00  0.00     0.018 A 
HETATM   13  C14 UNK     1      29.906  -6.448  38.719  1.00  0.00     0.056 A 
HETATM   14  C15 UNK     1      24.161  -8.272  38.207  1.00  0.00     0.122 A 
HETATM   15  C16 UNK     1      26.000  -9.348  37.056  1.00  0.00     0.302 A 
HETATM   16  C17 UNK     1      21.971  -8.783  38.155  1.00  0.00     0.060 A 
HETATM   17  C18 UNK     1      22.151  -7.663  39.013  1.00  0.00     0.060 A 
HETATM   18  C19 UNK     1      20.728  -9.323  37.925  1.00  0.00     0.032 A 
HETATM   19  C20 UNK     1      21.090  -7.070  39.655  1.00  0.00     0.032 A 
HETATM   20  C21 UNK     1      19.643  -8.724  38.574  1.00  0.00     0.002 A 
HETATM   21  C22 UNK     1      19.821  -7.613  39.427  1.00  0.00     0.002 A 
HETATM   22  H16 UNK     1      23.428  -9.905  37.031  1.00  0.00     0.167 HD
HETATM   23  H17 UNK     1      23.950  -6.614  39.555  1.00  0.00     0.167 HD
ENDROOT
BRANCH   6  24
HETATM   24  C6  UNK     1      30.206  -9.472  36.262  1.00  0.00     0.318 C 
BRANCH  24  25
HETATM   25  N1  UNK     1      30.102  -9.080  34.857  1.00  0.00     0.092 N 
HETATM   26  C1  UNK     1      31.432  -8.787  34.305  1.00  0.00     0.272 C 
HETATM   27  C3  UNK     1      31.336  -8.328  32.850  1.00  0.00     0.030 C 
HETATM   28  C5  UNK     1      30.604  -9.354  31.991  1.00  0.00     0.003 C 
HETATM   29  C4  UNK     1      29.261  -9.712  32.618  1.00  0.00     0.030 C 
HETATM   30  C2  UNK     1      29.423 -10.127  34.081  1.00  0.00     0.272 C 
ENDBRANCH  24  25
ENDBRANCH   6  24
TORSDOF 2
ENDMDL
