MODEL 1
REMARK VINA RESULT:      -8.9      0.000      0.000
REMARK  5 active torsions:
REMARK  status: ('A' for Active; 'I' for Inactive)
REMARK    1  A    between atoms: C10_15  and  O3_3 
REMARK    2  A    between atoms: C13_18  and  O4_4 
REMARK    3  A    between atoms: C3_8  and  C9_14 
REMARK    4  A    between atoms: C11_16  and  C7_12 
REMARK    5  A    between atoms: C12_17  and  C9_14 
ROOT
HETATM    1  C11 UNK     1      18.794   4.806  30.845  1.00  0.00     0.018 C 
HETATM    2  C12 UNK     1      18.683   3.477  30.987  1.00  0.00     0.056 C 
ENDROOT
BRANCH   2   3
HETATM    3  C9  UNK     1      18.556   2.587  29.783  1.00  0.00     0.182 C 
HETATM    4  O5  UNK     1      18.014   3.003  28.747  1.00  0.00    -0.288 OA
BRANCH   3   5
HETATM    5  C3  UNK     1      19.108   1.244  29.848  1.00  0.00     0.017 A 
HETATM    6  C4  UNK     1      19.412   0.679  31.089  1.00  0.00     0.055 A 
HETATM    7  C1  UNK     1      19.935  -0.598  31.101  1.00  0.00     0.105 A 
HETATM    8  O1  UNK     1      20.291  -1.305  32.208  1.00  0.00    -0.323 OA
HETATM    9  C2  UNK     1      20.155  -1.301  29.938  1.00  0.00     0.105 A 
HETATM   10  C8  UNK     1      20.759  -2.532  31.613  1.00  0.00     0.352 A 
HETATM   11  O2  UNK     1      20.675  -2.537  30.172  1.00  0.00    -0.323 OA
HETATM   12  C5  UNK     1      19.864  -0.767  28.700  1.00  0.00     0.040 A 
HETATM   13  C6  UNK     1      19.333   0.525  28.660  1.00  0.00     0.018 A 
ENDBRANCH   3   5
ENDBRANCH   2   3
BRANCH   1  14
HETATM   14  C7  UNK     1      18.936   5.756  31.963  1.00  0.00     0.000 A 
HETATM   15  C10 UNK     1      17.823   6.183  32.670  1.00  0.00     0.111 A 
HETATM   16  C13 UNK     1      17.986   7.083  33.724  1.00  0.00     0.102 A 
HETATM   17  C15 UNK     1      19.260   7.544  34.058  1.00  0.00     0.040 A 
HETATM   18  C16 UNK     1      20.371   7.105  33.338  1.00  0.00     0.004 A 
HETATM   19  C14 UNK     1      20.208   6.206  32.285  1.00  0.00     0.014 A 
BRANCH  15  20
HETATM   20  O3  UNK     1      16.572   5.741  32.356  1.00  0.00    -0.352 OA
HETATM   21  C17 UNK     1      15.665   6.697  31.813  1.00  0.00     0.210 C 
ENDBRANCH  15  20
BRANCH  16  22
HETATM   22  O4  UNK     1      16.910   7.520  34.436  1.00  0.00    -0.353 OA
HETATM   23  C18 UNK     1      16.748   8.931  34.567  1.00  0.00     0.210 C 
ENDBRANCH  16  22
ENDBRANCH   1  14
TORSDOF 5
ENDMDL
MODEL 2
REMARK VINA RESULT:      -8.9      1.483      2.239
REMARK  5 active torsions:
REMARK  status: ('A' for Active; 'I' for Inactive)
REMARK    1  A    between atoms: C10_15  and  O3_3 
REMARK    2  A    between atoms: C13_18  and  O4_4 
REMARK    3  A    between atoms: C3_8  and  C9_14 
REMARK    4  A    between atoms: C11_16  and  C7_12 
REMARK    5  A    between atoms: C12_17  and  C9_14 
ROOT
HETATM    1  C11 UNK     1      18.829   4.336  30.737  1.00  0.00     0.018 C 
HETATM    2  C12 UNK     1      18.188   3.162  30.651  1.00  0.00     0.056 C 
ENDROOT
BRANCH   2   3
HETATM    3  C9  UNK     1      18.447   2.231  29.499  1.00  0.00     0.182 C 
HETATM    4  O5  UNK     1      18.148   2.563  28.342  1.00  0.00    -0.288 OA
BRANCH   3   5
HETATM    5  C3  UNK     1      19.083   0.952  29.767  1.00  0.00     0.017 A 
HETATM    6  C4  UNK     1      19.279   0.537  31.087  1.00  0.00     0.055 A 
HETATM    7  C1  UNK     1      19.887  -0.684  31.292  1.00  0.00     0.105 A 
HETATM    8  O1  UNK     1      20.161  -1.248  32.500  1.00  0.00    -0.323 OA
HETATM    9  C2  UNK     1      20.292  -1.476  30.242  1.00  0.00     0.105 A 
HETATM   10  C8  UNK     1      20.782  -2.483  32.094  1.00  0.00     0.352 A 
HETATM   11  O2  UNK     1      20.868  -2.636  30.662  1.00  0.00    -0.323 OA
HETATM   12  C5  UNK     1      20.110  -1.091  28.930  1.00  0.00     0.040 A 
HETATM   13  C6  UNK     1      19.496   0.142  28.695  1.00  0.00     0.018 A 
ENDBRANCH   3   5
ENDBRANCH   2   3
BRANCH   1  14
HETATM   14  C7  UNK     1      18.652   5.306  31.833  1.00  0.00     0.000 A 
HETATM   15  C10 UNK     1      19.678   6.172  32.179  1.00  0.00     0.111 A 
HETATM   16  C13 UNK     1      19.485   7.081  33.220  1.00  0.00     0.102 A 
HETATM   17  C15 UNK     1      18.268   7.111  33.902  1.00  0.00     0.040 A 
HETATM   18  C16 UNK     1      17.245   6.234  33.544  1.00  0.00     0.004 A 
HETATM   19  C14 UNK     1      17.438   5.326  32.503  1.00  0.00     0.014 A 
BRANCH  15  20
HETATM   20  O3  UNK     1      20.873   6.153  31.520  1.00  0.00    -0.352 OA
HETATM   21  C17 UNK     1      22.021   5.775  32.275  1.00  0.00     0.210 C 
ENDBRANCH  15  20
BRANCH  16  22
HETATM   22  O4  UNK     1      20.475   7.943  33.581  1.00  0.00    -0.353 OA
HETATM   23  C18 UNK     1      20.139   8.960  34.523  1.00  0.00     0.210 C 
ENDBRANCH  16  22
ENDBRANCH   1  14
TORSDOF 5
ENDMDL
MODEL 3
REMARK VINA RESULT:      -8.5      1.615      2.475
REMARK  5 active torsions:
REMARK  status: ('A' for Active; 'I' for Inactive)
REMARK    1  A    between atoms: C10_15  and  O3_3 
REMARK    2  A    between atoms: C13_18  and  O4_4 
REMARK    3  A    between atoms: C3_8  and  C9_14 
REMARK    4  A    between atoms: C11_16  and  C7_12 
REMARK    5  A    between atoms: C12_17  and  C9_14 
ROOT
HETATM    1  C11 UNK     1      18.142   5.143  33.676  1.00  0.00     0.018 C 
HETATM    2  C12 UNK     1      18.355   4.438  32.556  1.00  0.00     0.056 C 
ENDROOT
BRANCH   2   3
HETATM    3  C9  UNK     1      18.161   2.947  32.543  1.00  0.00     0.182 C 
HETATM    4  O5  UNK     1      17.756   2.356  33.554  1.00  0.00    -0.288 OA
BRANCH   3   5
HETATM    5  C3  UNK     1      18.429   2.222  31.311  1.00  0.00     0.017 A 
HETATM    6  C4  UNK     1      19.222   1.072  31.343  1.00  0.00     0.055 A 
HETATM    7  C1  UNK     1      19.449   0.417  30.149  1.00  0.00     0.105 A 
HETATM    8  O1  UNK     1      20.194  -0.710  29.986  1.00  0.00    -0.323 OA
HETATM    9  C2  UNK     1      18.918   0.870  28.963  1.00  0.00     0.105 A 
HETATM   10  C8  UNK     1      20.071  -0.917  28.565  1.00  0.00     0.352 A 
HETATM   11  O2  UNK     1      19.263   0.082  27.909  1.00  0.00    -0.323 OA
HETATM   12  C5  UNK     1      18.132   2.002  28.904  1.00  0.00     0.040 A 
HETATM   13  C6  UNK     1      17.886   2.684  30.099  1.00  0.00     0.018 A 
ENDBRANCH   3   5
ENDBRANCH   2   3
BRANCH   1  14
HETATM   14  C7  UNK     1      18.292   6.606  33.783  1.00  0.00     0.000 A 
HETATM   15  C10 UNK     1      17.191   7.438  33.653  1.00  0.00     0.111 A 
HETATM   16  C13 UNK     1      17.360   8.819  33.759  1.00  0.00     0.102 A 
HETATM   17  C15 UNK     1      18.628   9.350  33.994  1.00  0.00     0.040 A 
HETATM   18  C16 UNK     1      19.727   8.501  34.123  1.00  0.00     0.004 A 
HETATM   19  C14 UNK     1      19.558   7.121  34.018  1.00  0.00     0.014 A 
BRANCH  15  20
HETATM   20  O3  UNK     1      15.945   6.932  33.423  1.00  0.00    -0.352 OA
HETATM   21  C17 UNK     1      15.471   6.965  32.079  1.00  0.00     0.210 C 
ENDBRANCH  15  20
BRANCH  16  22
HETATM   22  O4  UNK     1      16.296   9.660  33.634  1.00  0.00    -0.353 OA
HETATM   23  C18 UNK     1      15.590   9.994  34.828  1.00  0.00     0.210 C 
ENDBRANCH  16  22
ENDBRANCH   1  14
TORSDOF 5
ENDMDL
MODEL 4
REMARK VINA RESULT:      -8.5     13.234     16.191
REMARK  5 active torsions:
REMARK  status: ('A' for Active; 'I' for Inactive)
REMARK    1  A    between atoms: C10_15  and  O3_3 
REMARK    2  A    between atoms: C13_18  and  O4_4 
REMARK    3  A    between atoms: C3_8  and  C9_14 
REMARK    4  A    between atoms: C11_16  and  C7_12 
REMARK    5  A    between atoms: C12_17  and  C9_14 
ROOT
HETATM    1  C11 UNK     1      18.153  -0.498  17.890  1.00  0.00     0.018 C 
HETATM    2  C12 UNK     1      18.813  -1.287  17.030  1.00  0.00     0.056 C 
ENDROOT
BRANCH   2   3
HETATM    3  C9  UNK     1      18.068  -2.247  16.146  1.00  0.00     0.182 C 
HETATM    4  O5  UNK     1      16.934  -2.641  16.458  1.00  0.00    -0.288 OA
BRANCH   3   5
HETATM    5  C3  UNK     1      18.690  -2.677  14.904  1.00  0.00     0.017 A 
HETATM    6  C4  UNK     1      18.518  -1.919  13.744  1.00  0.00     0.055 A 
HETATM    7  C1  UNK     1      19.127  -2.367  12.589  1.00  0.00     0.105 A 
HETATM    8  O1  UNK     1      19.070  -1.765  11.370  1.00  0.00    -0.323 OA
HETATM    9  C2  UNK     1      19.881  -3.518  12.569  1.00  0.00     0.105 A 
HETATM   10  C8  UNK     1      19.872  -2.665  10.580  1.00  0.00     0.352 A 
HETATM   11  O2  UNK     1      20.390  -3.780  11.334  1.00  0.00    -0.323 OA
HETATM   12  C5  UNK     1      20.067  -4.285  13.700  1.00  0.00     0.040 A 
HETATM   13  C6  UNK     1      19.460  -3.853  14.883  1.00  0.00     0.018 A 
ENDBRANCH   3   5
ENDBRANCH   2   3
BRANCH   1  14
HETATM   14  C7  UNK     1      18.794   0.481  18.786  1.00  0.00     0.000 A 
HETATM   15  C10 UNK     1      18.964   1.797  18.383  1.00  0.00     0.111 A 
HETATM   16  C13 UNK     1      19.573   2.705  19.250  1.00  0.00     0.102 A 
HETATM   17  C15 UNK     1      20.004   2.285  20.509  1.00  0.00     0.040 A 
HETATM   18  C16 UNK     1      19.827   0.959  20.901  1.00  0.00     0.004 A 
HETATM   19  C14 UNK     1      19.217   0.052  20.034  1.00  0.00     0.014 A 
BRANCH  15  20
HETATM   20  O3  UNK     1      18.547   2.222  17.155  1.00  0.00    -0.352 OA
HETATM   21  C17 UNK     1      19.515   2.226  16.110  1.00  0.00     0.210 C 
ENDBRANCH  15  20
BRANCH  16  22
HETATM   22  O4  UNK     1      19.754   4.003  18.880  1.00  0.00    -0.353 OA
HETATM   23  C18 UNK     1      21.073   4.393  18.504  1.00  0.00     0.210 C 
ENDBRANCH  16  22
ENDBRANCH   1  14
TORSDOF 5
ENDMDL
MODEL 5
REMARK VINA RESULT:      -8.3      6.592     11.618
REMARK  5 active torsions:
REMARK  status: ('A' for Active; 'I' for Inactive)
REMARK    1  A    between atoms: C10_15  and  O3_3 
REMARK    2  A    between atoms: C13_18  and  O4_4 
REMARK    3  A    between atoms: C3_8  and  C9_14 
REMARK    4  A    between atoms: C11_16  and  C7_12 
REMARK    5  A    between atoms: C12_17  and  C9_14 
ROOT
HETATM    1  C11 UNK     1      20.027  -4.742  36.414  1.00  0.00     0.018 C 
HETATM    2  C12 UNK     1      20.457  -3.544  36.832  1.00  0.00     0.056 C 
ENDROOT
BRANCH   2   3
HETATM    3  C9  UNK     1      20.547  -2.387  35.877  1.00  0.00     0.182 C 
HETATM    4  O5  UNK     1      21.633  -2.074  35.367  1.00  0.00    -0.288 OA
BRANCH   3   5
HETATM    5  C3  UNK     1      19.330  -1.665  35.540  1.00  0.00     0.017 A 
HETATM    6  C4  UNK     1      18.491  -1.207  36.559  1.00  0.00     0.055 A 
HETATM    7  C1  UNK     1      17.347  -0.529  36.191  1.00  0.00     0.105 A 
HETATM    8  O1  UNK     1      16.416  -0.014  37.040  1.00  0.00    -0.323 OA
HETATM    9  C2  UNK     1      17.032  -0.304  34.870  1.00  0.00     0.105 A 
HETATM   10  C8  UNK     1      15.480   0.561  36.106  1.00  0.00     0.352 A 
HETATM   11  O2  UNK     1      15.865   0.381  34.727  1.00  0.00    -0.323 OA
HETATM   12  C5  UNK     1      17.843  -0.745  33.845  1.00  0.00     0.040 A 
HETATM   13  C6  UNK     1      19.008  -1.435  34.191  1.00  0.00     0.018 A 
ENDBRANCH   3   5
ENDBRANCH   2   3
BRANCH   1  14
HETATM   14  C7  UNK     1      19.892  -5.929  37.277  1.00  0.00     0.000 A 
HETATM   15  C10 UNK     1      19.346  -7.103  36.780  1.00  0.00     0.111 A 
HETATM   16  C13 UNK     1      19.230  -8.213  37.618  1.00  0.00     0.102 A 
HETATM   17  C15 UNK     1      19.661  -8.134  38.942  1.00  0.00     0.040 A 
HETATM   18  C16 UNK     1      20.208  -6.947  39.429  1.00  0.00     0.004 A 
HETATM   19  C14 UNK     1      20.324  -5.839  38.591  1.00  0.00     0.014 A 
BRANCH  15  20
HETATM   20  O3  UNK     1      18.921  -7.194  35.487  1.00  0.00    -0.352 OA
HETATM   21  C17 UNK     1      17.518  -7.329  35.276  1.00  0.00     0.210 C 
ENDBRANCH  15  20
BRANCH  16  22
HETATM   22  O4  UNK     1      18.698  -9.378  37.156  1.00  0.00    -0.353 OA
HETATM   23  C18 UNK     1      19.461 -10.566  37.359  1.00  0.00     0.210 C 
ENDBRANCH  16  22
ENDBRANCH   1  14
TORSDOF 5
ENDMDL
MODEL 6
REMARK VINA RESULT:      -8.2     12.933     15.945
REMARK  5 active torsions:
REMARK  status: ('A' for Active; 'I' for Inactive)
REMARK    1  A    between atoms: C10_15  and  O3_3 
REMARK    2  A    between atoms: C13_18  and  O4_4 
REMARK    3  A    between atoms: C3_8  and  C9_14 
REMARK    4  A    between atoms: C11_16  and  C7_12 
REMARK    5  A    between atoms: C12_17  and  C9_14 
ROOT
HETATM    1  C11 UNK     1      18.471  -0.768  17.342  1.00  0.00     0.018 C 
HETATM    2  C12 UNK     1      19.236  -1.726  16.799  1.00  0.00     0.056 C 
ENDROOT
BRANCH   2   3
HETATM    3  C9  UNK     1      18.681  -2.642  15.744  1.00  0.00     0.182 C 
HETATM    4  O5  UNK     1      17.590  -2.397  15.208  1.00  0.00    -0.288 OA
BRANCH   3   5
HETATM    5  C3  UNK     1      19.464  -3.800  15.346  1.00  0.00     0.017 A 
HETATM    6  C4  UNK     1      19.019  -4.610  14.298  1.00  0.00     0.055 A 
HETATM    7  C1  UNK     1      19.795  -5.699  13.956  1.00  0.00     0.105 A 
HETATM    8  O1  UNK     1      19.522  -6.597  12.970  1.00  0.00    -0.323 OA
HETATM    9  C2  UNK     1      20.968  -5.987  14.615  1.00  0.00     0.105 A 
HETATM   10  C8  UNK     1      20.655  -7.481  13.080  1.00  0.00     0.352 A 
HETATM   11  O2  UNK     1      21.577  -7.101  14.122  1.00  0.00    -0.323 OA
HETATM   12  C5  UNK     1      21.430  -5.204  15.652  1.00  0.00     0.040 A 
HETATM   13  C6  UNK     1      20.663  -4.095  16.018  1.00  0.00     0.018 A 
ENDBRANCH   3   5
ENDBRANCH   2   3
BRANCH   1  14
HETATM   14  C7  UNK     1      18.930   0.184  18.369  1.00  0.00     0.000 A 
HETATM   15  C10 UNK     1      18.970   1.544  18.101  1.00  0.00     0.111 A 
HETATM   16  C13 UNK     1      19.408   2.424  19.091  1.00  0.00     0.102 A 
HETATM   17  C15 UNK     1      19.799   1.934  20.337  1.00  0.00     0.040 A 
HETATM   18  C16 UNK     1      19.753   0.564  20.593  1.00  0.00     0.004 A 
HETATM   19  C14 UNK     1      19.315  -0.316  19.604  1.00  0.00     0.014 A 
BRANCH  15  20
HETATM   20  O3  UNK     1      18.590   2.038  16.887  1.00  0.00    -0.352 OA
HETATM   21  C17 UNK     1      19.597   2.128  15.882  1.00  0.00     0.210 C 
ENDBRANCH  15  20
BRANCH  16  22
HETATM   22  O4  UNK     1      19.458   3.765  18.854  1.00  0.00    -0.353 OA
HETATM   23  C18 UNK     1      20.729   4.316  18.513  1.00  0.00     0.210 C 
ENDBRANCH  16  22
ENDBRANCH   1  14
TORSDOF 5
ENDMDL
MODEL 7
REMARK VINA RESULT:      -8.2      1.878      7.401
REMARK  5 active torsions:
REMARK  status: ('A' for Active; 'I' for Inactive)
REMARK    1  A    between atoms: C10_15  and  O3_3 
REMARK    2  A    between atoms: C13_18  and  O4_4 
REMARK    3  A    between atoms: C3_8  and  C9_14 
REMARK    4  A    between atoms: C11_16  and  C7_12 
REMARK    5  A    between atoms: C12_17  and  C9_14 
ROOT
HETATM    1  C11 UNK     1      18.834   0.592  31.108  1.00  0.00     0.018 C 
HETATM    2  C12 UNK     1      19.312   1.305  30.078  1.00  0.00     0.056 C 
ENDROOT
BRANCH   2   3
HETATM    3  C9  UNK     1      18.594   2.536  29.601  1.00  0.00     0.182 C 
HETATM    4  O5  UNK     1      17.900   2.501  28.574  1.00  0.00    -0.288 OA
BRANCH   3   5
HETATM    5  C3  UNK     1      18.705   3.755  30.385  1.00  0.00     0.017 A 
HETATM    6  C4  UNK     1      18.205   3.789  31.689  1.00  0.00     0.055 A 
HETATM    7  C1  UNK     1      18.332   4.968  32.394  1.00  0.00     0.105 A 
HETATM    8  O1  UNK     1      17.905   5.188  33.667  1.00  0.00    -0.323 OA
HETATM    9  C2  UNK     1      18.929   6.080  31.843  1.00  0.00     0.105 A 
HETATM   10  C8  UNK     1      18.301   6.561  33.858  1.00  0.00     0.352 A 
HETATM   11  O2  UNK     1      18.951   7.134  32.705  1.00  0.00    -0.323 OA
HETATM   12  C5  UNK     1      19.431   6.073  30.559  1.00  0.00     0.040 A 
HETATM   13  C6  UNK     1      19.315   4.891  29.823  1.00  0.00     0.018 A 
ENDBRANCH   3   5
ENDBRANCH   2   3
BRANCH   1  14
HETATM   14  C7  UNK     1      19.474  -0.618  31.655  1.00  0.00     0.000 A 
HETATM   15  C10 UNK     1      19.353  -0.932  33.000  1.00  0.00     0.111 A 
HETATM   16  C13 UNK     1      19.968  -2.083  33.492  1.00  0.00     0.102 A 
HETATM   17  C15 UNK     1      20.697  -2.906  32.633  1.00  0.00     0.040 A 
HETATM   18  C16 UNK     1      20.811  -2.579  31.283  1.00  0.00     0.004 A 
HETATM   19  C14 UNK     1      20.195  -1.428  30.791  1.00  0.00     0.014 A 
BRANCH  15  20
HETATM   20  O3  UNK     1      18.643  -0.136  33.851  1.00  0.00    -0.352 OA
HETATM   21  C17 UNK     1      17.361  -0.606  34.258  1.00  0.00     0.210 C 
ENDBRANCH  15  20
BRANCH  16  22
HETATM   22  O4  UNK     1      19.866  -2.415  34.809  1.00  0.00    -0.353 OA
HETATM   23  C18 UNK     1      20.969  -2.082  35.650  1.00  0.00     0.210 C 
ENDBRANCH  16  22
ENDBRANCH   1  14
TORSDOF 5
ENDMDL
MODEL 8
REMARK VINA RESULT:      -8.1      3.594      8.511
REMARK  5 active torsions:
REMARK  status: ('A' for Active; 'I' for Inactive)
REMARK    1  A    between atoms: C10_15  and  O3_3 
REMARK    2  A    between atoms: C13_18  and  O4_4 
REMARK    3  A    between atoms: C3_8  and  C9_14 
REMARK    4  A    between atoms: C11_16  and  C7_12 
REMARK    5  A    between atoms: C12_17  and  C9_14 
ROOT
HETATM    1  C11 UNK     1      17.888   1.841  34.163  1.00  0.00     0.018 C 
HETATM    2  C12 UNK     1      18.261   3.124  34.274  1.00  0.00     0.056 C 
ENDROOT
BRANCH   2   3
HETATM    3  C9  UNK     1      18.156   4.056  33.100  1.00  0.00     0.182 C 
HETATM    4  O5  UNK     1      17.887   3.619  31.971  1.00  0.00    -0.288 OA
BRANCH   3   5
HETATM    5  C3  UNK     1      18.344   5.480  33.323  1.00  0.00     0.017 A 
HETATM    6  C4  UNK     1      17.231   6.317  33.437  1.00  0.00     0.055 A 
HETATM    7  C1  UNK     1      17.459   7.662  33.647  1.00  0.00     0.105 A 
HETATM    8  O1  UNK     1      16.504   8.623  33.780  1.00  0.00    -0.323 OA
HETATM    9  C2  UNK     1      18.733   8.174  33.742  1.00  0.00     0.105 A 
HETATM   10  C8  UNK     1      17.319   9.796  33.971  1.00  0.00     0.352 A 
HETATM   11  O2  UNK     1      18.735   9.519  33.948  1.00  0.00    -0.323 OA
HETATM   12  C5  UNK     1      19.848   7.370  33.633  1.00  0.00     0.040 A 
HETATM   13  C6  UNK     1      19.645   6.004  33.420  1.00  0.00     0.018 A 
ENDBRANCH   3   5
ENDBRANCH   2   3
BRANCH   1  14
HETATM   14  C7  UNK     1      17.941   0.857  35.259  1.00  0.00     0.000 A 
HETATM   15  C10 UNK     1      18.645  -0.328  35.108  1.00  0.00     0.111 A 
HETATM   16  C13 UNK     1      18.680  -1.242  36.162  1.00  0.00     0.102 A 
HETATM   17  C15 UNK     1      18.010  -0.960  37.352  1.00  0.00     0.040 A 
HETATM   18  C16 UNK     1      17.306   0.236  37.491  1.00  0.00     0.004 A 
HETATM   19  C14 UNK     1      17.272   1.150  36.438  1.00  0.00     0.014 A 
BRANCH  15  20
HETATM   20  O3  UNK     1      19.304  -0.617  33.949  1.00  0.00    -0.352 OA
HETATM   21  C17 UNK     1      18.539  -1.202  32.899  1.00  0.00     0.210 C 
ENDBRANCH  15  20
BRANCH  16  22
HETATM   22  O4  UNK     1      19.363  -2.415  36.040  1.00  0.00    -0.353 OA
HETATM   23  C18 UNK     1      19.919  -2.967  37.232  1.00  0.00     0.210 C 
ENDBRANCH  16  22
ENDBRANCH   1  14
TORSDOF 5
ENDMDL
MODEL 9
REMARK VINA RESULT:      -8.1      3.664      5.908
REMARK  5 active torsions:
REMARK  status: ('A' for Active; 'I' for Inactive)
REMARK    1  A    between atoms: C10_15  and  O3_3 
REMARK    2  A    between atoms: C13_18  and  O4_4 
REMARK    3  A    between atoms: C3_8  and  C9_14 
REMARK    4  A    between atoms: C11_16  and  C7_12 
REMARK    5  A    between atoms: C12_17  and  C9_14 
ROOT
HETATM    1  C11 UNK     1      17.952   1.637  33.679  1.00  0.00     0.018 C 
HETATM    2  C12 UNK     1      18.181   2.929  33.406  1.00  0.00     0.056 C 
ENDROOT
BRANCH   2   3
HETATM    3  C9  UNK     1      18.182   3.423  31.987  1.00  0.00     0.182 C 
HETATM    4  O5  UNK     1      17.967   4.618  31.735  1.00  0.00    -0.288 OA
BRANCH   3   5
HETATM    5  C3  UNK     1      18.472   2.477  30.921  1.00  0.00     0.017 A 
HETATM    6  C4  UNK     1      19.402   1.457  31.134  1.00  0.00     0.055 A 
HETATM    7  C1  UNK     1      19.645   0.584  30.093  1.00  0.00     0.105 A 
HETATM    8  O1  UNK     1      20.514  -0.463  30.114  1.00  0.00    -0.323 OA
HETATM    9  C2  UNK     1      19.000   0.703  28.883  1.00  0.00     0.105 A 
HETATM   10  C8  UNK     1      20.344  -0.991  28.784  1.00  0.00     0.352 A 
HETATM   11  O2  UNK     1      19.384  -0.256  27.996  1.00  0.00    -0.323 OA
HETATM   12  C5  UNK     1      18.077   1.700  28.647  1.00  0.00     0.040 A 
HETATM   13  C6  UNK     1      17.813   2.598  29.685  1.00  0.00     0.018 A 
ENDBRANCH   3   5
ENDBRANCH   2   3
BRANCH   1  14
HETATM   14  C7  UNK     1      17.917   1.064  35.037  1.00  0.00     0.000 A 
HETATM   15  C10 UNK     1      17.956  -0.310  35.222  1.00  0.00     0.111 A 
HETATM   16  C13 UNK     1      17.922  -0.827  36.518  1.00  0.00     0.102 A 
HETATM   17  C15 UNK     1      17.849   0.036  37.611  1.00  0.00     0.040 A 
HETATM   18  C16 UNK     1      17.810   1.416  37.410  1.00  0.00     0.004 A 
HETATM   19  C14 UNK     1      17.845   1.932  36.115  1.00  0.00     0.014 A 
BRANCH  15  20
HETATM   20  O3  UNK     1      18.028  -1.165  34.162  1.00  0.00    -0.352 OA
HETATM   21  C17 UNK     1      19.330  -1.543  33.723  1.00  0.00     0.210 C 
ENDBRANCH  15  20
BRANCH  16  22
HETATM   22  O4  UNK     1      17.959  -2.172  36.729  1.00  0.00    -0.353 OA
HETATM   23  C18 UNK     1      19.192  -2.723  37.187  1.00  0.00     0.210 C 
ENDBRANCH  16  22
ENDBRANCH   1  14
TORSDOF 5
ENDMDL
MODEL 10
REMARK VINA RESULT:      -8.0      3.509      4.155
REMARK  5 active torsions:
REMARK  status: ('A' for Active; 'I' for Inactive)
REMARK    1  A    between atoms: C10_15  and  O3_3 
REMARK    2  A    between atoms: C13_18  and  O4_4 
REMARK    3  A    between atoms: C3_8  and  C9_14 
REMARK    4  A    between atoms: C11_16  and  C7_12 
REMARK    5  A    between atoms: C12_17  and  C9_14 
ROOT
HETATM    1  C11 UNK     1      18.177   5.124  32.942  1.00  0.00     0.018 C 
HETATM    2  C12 UNK     1      18.334   4.068  33.752  1.00  0.00     0.056 C 
ENDROOT
BRANCH   2   3
HETATM    3  C9  UNK     1      18.072   2.674  33.254  1.00  0.00     0.182 C 
HETATM    4  O5  UNK     1      17.840   2.469  32.053  1.00  0.00    -0.288 OA
BRANCH   3   5
HETATM    5  C3  UNK     1      18.129   1.573  34.201  1.00  0.00     0.017 A 
HETATM    6  C4  UNK     1      18.023   1.831  35.570  1.00  0.00     0.055 A 
HETATM    7  C1  UNK     1      18.084   0.754  36.431  1.00  0.00     0.105 A 
HETATM    8  O1  UNK     1      18.001   0.811  37.789  1.00  0.00    -0.323 OA
HETATM    9  C2  UNK     1      18.242  -0.533  35.971  1.00  0.00     0.105 A 
HETATM   10  C8  UNK     1      18.124  -0.584  38.131  1.00  0.00     0.352 A 
HETATM   11  O2  UNK     1      18.278  -1.443  36.983  1.00  0.00    -0.323 OA
HETATM   12  C5  UNK     1      18.349  -0.815  34.625  1.00  0.00     0.040 A 
HETATM   13  C6  UNK     1      18.291   0.258  33.731  1.00  0.00     0.018 A 
ENDBRANCH   3   5
ENDBRANCH   2   3
BRANCH   1  14
HETATM   14  C7  UNK     1      18.423   6.523  33.335  1.00  0.00     0.000 A 
HETATM   15  C10 UNK     1      17.500   7.512  33.030  1.00  0.00     0.111 A 
HETATM   16  C13 UNK     1      17.756   8.829  33.414  1.00  0.00     0.102 A 
HETATM   17  C15 UNK     1      18.932   9.139  34.098  1.00  0.00     0.040 A 
HETATM   18  C16 UNK     1      19.851   8.134  34.399  1.00  0.00     0.004 A 
HETATM   19  C14 UNK     1      19.594   6.818  34.015  1.00  0.00     0.014 A 
BRANCH  15  20
HETATM   20  O3  UNK     1      16.347   7.222  32.362  1.00  0.00    -0.352 OA
HETATM   21  C17 UNK     1      15.153   7.144  33.136  1.00  0.00     0.210 C 
ENDBRANCH  15  20
BRANCH  16  22
HETATM   22  O4  UNK     1      16.868   9.820  33.127  1.00  0.00    -0.353 OA
HETATM   23  C18 UNK     1      16.337  10.554  34.229  1.00  0.00     0.210 C 
ENDBRANCH  16  22
ENDBRANCH   1  14
TORSDOF 5
ENDMDL
