MODEL 1
REMARK VINA RESULT:      -8.5      0.000      0.000
REMARK  7 active torsions:
REMARK  status: ('A' for Active; 'I' for Inactive)
REMARK    1  A    between atoms: C7_15  and  O2_2 
REMARK    2  A    between atoms: C6_14  and  O3_3 
REMARK    3  A    between atoms: C8_16  and  O4_4 
REMARK    4  A    between atoms: C9_17  and  O6_6 
REMARK    5  A    between atoms: C13_21  and  O7_7 
REMARK    6  A    between atoms: C15_23  and  O8_8 
REMARK    7  A    between atoms: C3_11  and  C4_12 
ROOT
HETATM    1  O1  UNK     1      18.112   3.000  33.052  1.00  0.00    -0.303 OA
HETATM    2  O5  UNK     1      19.354   1.458  29.491  1.00  0.00    -0.284 OA
HETATM    3  C1  UNK     1      18.767   1.066  31.740  1.00  0.00     0.087 A 
HETATM    4  C2  UNK     1      18.343   1.654  32.930  1.00  0.00     0.129 A 
HETATM    5  C3  UNK     1      18.296   3.806  31.941  1.00  0.00     0.123 A 
HETATM    6  C5  UNK     1      18.977   1.918  30.561  1.00  0.00     0.223 A 
HETATM    7  C6  UNK     1      18.710   3.365  30.739  1.00  0.00     0.152 A 
HETATM    8  C7  UNK     1      18.138   0.868  34.064  1.00  0.00     0.136 A 
HETATM    9  C8  UNK     1      18.988  -0.313  31.675  1.00  0.00     0.085 A 
HETATM   10  C9  UNK     1      18.358  -0.509  34.002  1.00  0.00     0.104 A 
HETATM   11  C10 UNK     1      18.782  -1.098  32.810  1.00  0.00     0.077 A 
ENDROOT
BRANCH   5  12
HETATM   12  C4  UNK     1      18.015   5.228  32.208  1.00  0.00     0.004 A 
HETATM   13  C11 UNK     1      16.829   5.803  31.750  1.00  0.00     0.054 A 
HETATM   14  C13 UNK     1      16.564   7.149  32.002  1.00  0.00     0.102 A 
HETATM   15  C15 UNK     1      17.485   7.921  32.711  1.00  0.00     0.099 A 
HETATM   16  C14 UNK     1      18.671   7.346  33.169  1.00  0.00     0.040 A 
HETATM   17  C12 UNK     1      18.935   6.000  32.917  1.00  0.00     0.017 A 
BRANCH  14  18
HETATM   18  O7  UNK     1      15.403   7.700  31.550  1.00  0.00    -0.353 OA
HETATM   19  C17 UNK     1      14.189   7.214  32.120  1.00  0.00     0.210 C 
ENDBRANCH  14  18
BRANCH  15  20
HETATM   20  O8  UNK     1      17.237   9.237  32.965  1.00  0.00    -0.358 OA
HETATM   21  H11 UNK     1      17.315   9.386  33.923  1.00  0.00     0.217 HD
ENDBRANCH  15  20
ENDBRANCH   5  12
BRANCH   7  22
HETATM   22  O3  UNK     1      18.915   4.200  29.661  1.00  0.00    -0.355 OA
HETATM   23  H5  UNK     1      18.102   4.266  29.135  1.00  0.00     0.218 HD
ENDBRANCH   7  22
BRANCH   8  24
HETATM   24  O2  UNK     1      17.725   1.437  35.232  1.00  0.00    -0.351 OA
HETATM   25  C16 UNK     1      18.739   1.841  36.149  1.00  0.00     0.210 C 
ENDBRANCH   8  24
BRANCH   9  26
HETATM   26  O4  UNK     1      19.401  -0.938  30.537  1.00  0.00    -0.360 OA
HETATM   27  H6  UNK     1      19.158  -0.418  29.756  1.00  0.00     0.217 HD
ENDBRANCH   9  26
BRANCH  10  28
HETATM   28  O6  UNK     1      18.163  -1.291  35.101  1.00  0.00    -0.358 OA
HETATM   29  H7  UNK     1      17.273  -1.122  35.457  1.00  0.00     0.217 HD
ENDBRANCH  10  28
TORSDOF 7
ENDMDL
MODEL 2
REMARK VINA RESULT:      -8.3      3.900      6.771
REMARK  7 active torsions:
REMARK  status: ('A' for Active; 'I' for Inactive)
REMARK    1  A    between atoms: C7_15  and  O2_2 
REMARK    2  A    between atoms: C6_14  and  O3_3 
REMARK    3  A    between atoms: C8_16  and  O4_4 
REMARK    4  A    between atoms: C9_17  and  O6_6 
REMARK    5  A    between atoms: C13_21  and  O7_7 
REMARK    6  A    between atoms: C15_23  and  O8_8 
REMARK    7  A    between atoms: C3_11  and  C4_12 
ROOT
HETATM    1  O1  UNK     1      18.873  -0.533  33.920  1.00  0.00    -0.303 OA
HETATM    2  O5  UNK     1      20.490  -3.657  35.976  1.00  0.00    -0.284 OA
HETATM    3  C1  UNK     1      19.185  -1.694  36.029  1.00  0.00     0.087 A 
HETATM    4  C2  UNK     1      18.662  -0.649  35.270  1.00  0.00     0.129 A 
HETATM    5  C3  UNK     1      19.629  -1.503  33.283  1.00  0.00     0.123 A 
HETATM    6  C5  UNK     1      20.000  -2.720  35.361  1.00  0.00     0.223 A 
HETATM    7  C6  UNK     1      20.197  -2.556  33.900  1.00  0.00     0.152 A 
HETATM    8  C7  UNK     1      17.888   0.338  35.880  1.00  0.00     0.136 A 
HETATM    9  C8  UNK     1      18.937  -1.760  37.402  1.00  0.00     0.085 A 
HETATM   10  C9  UNK     1      17.638   0.275  37.251  1.00  0.00     0.104 A 
HETATM   11  C10 UNK     1      18.162  -0.772  38.011  1.00  0.00     0.077 A 
ENDROOT
BRANCH   5  12
HETATM   12  C4  UNK     1      19.780  -1.259  31.837  1.00  0.00     0.004 A 
HETATM   13  C11 UNK     1      19.469  -0.008  31.305  1.00  0.00     0.054 A 
HETATM   14  C13 UNK     1      19.610   0.222  29.936  1.00  0.00     0.102 A 
HETATM   15  C15 UNK     1      20.061  -0.800  29.100  1.00  0.00     0.099 A 
HETATM   16  C14 UNK     1      20.372  -2.051  29.632  1.00  0.00     0.040 A 
HETATM   17  C12 UNK     1      20.231  -2.280  31.000  1.00  0.00     0.017 A 
BRANCH  14  18
HETATM   18  O7  UNK     1      19.304   1.449  29.427  1.00  0.00    -0.353 OA
HETATM   19  C17 UNK     1      17.966   1.649  28.977  1.00  0.00     0.210 C 
ENDBRANCH  14  18
BRANCH  15  20
HETATM   20  O8  UNK     1      20.205  -0.587  27.761  1.00  0.00    -0.358 OA
HETATM   21  H11 UNK     1      20.409  -1.436  27.334  1.00  0.00     0.217 HD
ENDBRANCH  15  20
ENDBRANCH   5  12
BRANCH   7  22
HETATM   22  O3  UNK     1      20.972  -3.486  33.243  1.00  0.00    -0.355 OA
HETATM   23  H5  UNK     1      21.884  -3.448  33.571  1.00  0.00     0.218 HD
ENDBRANCH   7  22
BRANCH   8  24
HETATM   24  O2  UNK     1      17.374   1.364  35.143  1.00  0.00    -0.351 OA
HETATM   25  C16 UNK     1      18.243   2.460  34.866  1.00  0.00     0.210 C 
ENDBRANCH   8  24
BRANCH   9  26
HETATM   26  O4  UNK     1      19.424  -2.760  38.189  1.00  0.00    -0.360 OA
HETATM   27  H6  UNK     1      19.527  -3.577  37.677  1.00  0.00     0.217 HD
ENDBRANCH   9  26
BRANCH  10  28
HETATM   28  O6  UNK     1      16.884   1.231  37.862  1.00  0.00    -0.358 OA
HETATM   29  H7  UNK     1      16.538   1.841  37.188  1.00  0.00     0.217 HD
ENDBRANCH  10  28
TORSDOF 7
ENDMDL
MODEL 3
REMARK VINA RESULT:      -8.1      0.963      2.002
REMARK  7 active torsions:
REMARK  status: ('A' for Active; 'I' for Inactive)
REMARK    1  A    between atoms: C7_15  and  O2_2 
REMARK    2  A    between atoms: C6_14  and  O3_3 
REMARK    3  A    between atoms: C8_16  and  O4_4 
REMARK    4  A    between atoms: C9_17  and  O6_6 
REMARK    5  A    between atoms: C13_21  and  O7_7 
REMARK    6  A    between atoms: C15_23  and  O8_8 
REMARK    7  A    between atoms: C3_11  and  C4_12 
ROOT
HETATM    1  O1  UNK     1      18.026   3.061  33.317  1.00  0.00    -0.303 OA
HETATM    2  O5  UNK     1      19.272   2.028  29.578  1.00  0.00    -0.284 OA
HETATM    3  C1  UNK     1      18.731   1.333  31.765  1.00  0.00     0.087 A 
HETATM    4  C2  UNK     1      18.303   1.751  33.023  1.00  0.00     0.129 A 
HETATM    5  C3  UNK     1      18.167   4.008  32.315  1.00  0.00     0.123 A 
HETATM    6  C5  UNK     1      18.894   2.335  30.700  1.00  0.00     0.223 A 
HETATM    7  C6  UNK     1      18.579   3.738  31.063  1.00  0.00     0.152 A 
HETATM    8  C7  UNK     1      18.141   0.821  34.050  1.00  0.00     0.136 A 
HETATM    9  C8  UNK     1      18.998  -0.017  31.523  1.00  0.00     0.085 A 
HETATM   10  C9  UNK     1      18.408  -0.528  33.812  1.00  0.00     0.104 A 
HETATM   11  C10 UNK     1      18.836  -0.946  32.551  1.00  0.00     0.077 A 
ENDROOT
BRANCH   5  12
HETATM   12  C4  UNK     1      17.840   5.373  32.763  1.00  0.00     0.004 A 
HETATM   13  C11 UNK     1      18.671   6.027  33.673  1.00  0.00     0.054 A 
HETATM   14  C13 UNK     1      18.360   7.319  34.098  1.00  0.00     0.102 A 
HETATM   15  C15 UNK     1      17.217   7.957  33.613  1.00  0.00     0.099 A 
HETATM   16  C14 UNK     1      16.386   7.303  32.703  1.00  0.00     0.040 A 
HETATM   17  C12 UNK     1      16.697   6.011  32.279  1.00  0.00     0.017 A 
BRANCH  14  18
HETATM   18  O7  UNK     1      19.179   7.948  34.986  1.00  0.00    -0.353 OA
HETATM   19  C17 UNK     1      20.141   8.855  34.451  1.00  0.00     0.210 C 
ENDBRANCH  14  18
BRANCH  15  20
HETATM   20  O8  UNK     1      16.903   9.219  34.019  1.00  0.00    -0.358 OA
HETATM   21  H11 UNK     1      17.244   9.848  33.360  1.00  0.00     0.217 HD
ENDBRANCH  15  20
ENDBRANCH   5  12
BRANCH   7  22
HETATM   22  O3  UNK     1      18.740   4.708  30.098  1.00  0.00    -0.355 OA
HETATM   23  H5  UNK     1      19.091   5.519  30.500  1.00  0.00     0.218 HD
ENDBRANCH   7  22
BRANCH   8  24
HETATM   24  O2  UNK     1      17.725   1.223  35.284  1.00  0.00    -0.351 OA
HETATM   25  C16 UNK     1      18.735   1.595  36.219  1.00  0.00     0.210 C 
ENDBRANCH   8  24
BRANCH   9  26
HETATM   26  O4  UNK     1      19.417  -0.477  30.311  1.00  0.00    -0.360 OA
HETATM   27  H6  UNK     1      19.404  -1.446  30.292  1.00  0.00     0.217 HD
ENDBRANCH   9  26
BRANCH  10  28
HETATM   28  O6  UNK     1      18.256  -1.449  34.805  1.00  0.00    -0.358 OA
HETATM   29  H7  UNK     1      18.430  -1.024  35.662  1.00  0.00     0.217 HD
ENDBRANCH  10  28
TORSDOF 7
ENDMDL
MODEL 4
REMARK VINA RESULT:      -7.9      2.150      7.721
REMARK  7 active torsions:
REMARK  status: ('A' for Active; 'I' for Inactive)
REMARK    1  A    between atoms: C7_15  and  O2_2 
REMARK    2  A    between atoms: C6_14  and  O3_3 
REMARK    3  A    between atoms: C8_16  and  O4_4 
REMARK    4  A    between atoms: C9_17  and  O6_6 
REMARK    5  A    between atoms: C13_21  and  O7_7 
REMARK    6  A    between atoms: C15_23  and  O8_8 
REMARK    7  A    between atoms: C3_11  and  C4_12 
ROOT
HETATM    1  O1  UNK     1      17.363   7.182  32.660  1.00  0.00    -0.303 OA
HETATM    2  O5  UNK     1      20.694   9.026  34.113  1.00  0.00    -0.284 OA
HETATM    3  C1  UNK     1      18.379   9.138  33.679  1.00  0.00     0.087 A 
HETATM    4  C2  UNK     1      17.279   8.454  33.166  1.00  0.00     0.129 A 
HETATM    5  C3  UNK     1      18.595   6.547  32.671  1.00  0.00     0.123 A 
HETATM    6  C5  UNK     1      19.691   8.474  33.681  1.00  0.00     0.223 A 
HETATM    7  C6  UNK     1      19.734   7.098  33.129  1.00  0.00     0.152 A 
HETATM    8  C7  UNK     1      16.024   9.062  33.151  1.00  0.00     0.136 A 
HETATM    9  C8  UNK     1      18.233  10.433  34.181  1.00  0.00     0.085 A 
HETATM   10  C9  UNK     1      15.874  10.356  33.651  1.00  0.00     0.104 A 
HETATM   11  C10 UNK     1      16.976  11.041  34.165  1.00  0.00     0.077 A 
ENDROOT
BRANCH   5  12
HETATM   12  C4  UNK     1      18.547   5.189  32.100  1.00  0.00     0.004 A 
HETATM   13  C11 UNK     1      18.154   4.111  32.894  1.00  0.00     0.054 A 
HETATM   14  C13 UNK     1      18.110   2.826  32.352  1.00  0.00     0.102 A 
HETATM   15  C15 UNK     1      18.461   2.619  31.018  1.00  0.00     0.099 A 
HETATM   16  C14 UNK     1      18.854   3.697  30.224  1.00  0.00     0.040 A 
HETATM   17  C12 UNK     1      18.897   4.981  30.766  1.00  0.00     0.017 A 
BRANCH  14  18
HETATM   18  O7  UNK     1      17.724   1.781  33.137  1.00  0.00    -0.353 OA
HETATM   19  C17 UNK     1      18.108   1.824  34.509  1.00  0.00     0.210 C 
ENDBRANCH  14  18
BRANCH  15  20
HETATM   20  O8  UNK     1      18.421   1.369  30.477  1.00  0.00    -0.358 OA
HETATM   21  H11 UNK     1      19.323   1.005  30.472  1.00  0.00     0.217 HD
ENDBRANCH  15  20
ENDBRANCH   5  12
BRANCH   7  22
HETATM   22  O3  UNK     1      20.949   6.451  33.095  1.00  0.00    -0.355 OA
HETATM   23  H5  UNK     1      21.547   6.834  33.757  1.00  0.00     0.218 HD
ENDBRANCH   7  22
BRANCH   8  24
HETATM   24  O2  UNK     1      14.943   8.400  32.649  1.00  0.00    -0.351 OA
HETATM   25  C16 UNK     1      14.210   7.578  33.554  1.00  0.00     0.210 C 
ENDBRANCH   8  24
BRANCH   9  26
HETATM   26  O4  UNK     1      19.275  11.145  34.694  1.00  0.00    -0.360 OA
HETATM   27  H6  UNK     1      20.115  10.836  34.321  1.00  0.00     0.217 HD
ENDBRANCH   9  26
BRANCH  10  28
HETATM   28  O6  UNK     1      14.655  10.964  33.643  1.00  0.00    -0.358 OA
HETATM   29  H7  UNK     1      14.737  11.835  33.217  1.00  0.00     0.217 HD
ENDBRANCH  10  28
TORSDOF 7
ENDMDL
MODEL 5
REMARK VINA RESULT:      -7.9     13.862     17.219
REMARK  7 active torsions:
REMARK  status: ('A' for Active; 'I' for Inactive)
REMARK    1  A    between atoms: C7_15  and  O2_2 
REMARK    2  A    between atoms: C6_14  and  O3_3 
REMARK    3  A    between atoms: C8_16  and  O4_4 
REMARK    4  A    between atoms: C9_17  and  O6_6 
REMARK    5  A    between atoms: C13_21  and  O7_7 
REMARK    6  A    between atoms: C15_23  and  O8_8 
REMARK    7  A    between atoms: C3_11  and  C4_12 
ROOT
HETATM    1  O1  UNK     1      18.923  -0.787  17.738  1.00  0.00    -0.303 OA
HETATM    2  O5  UNK     1      19.421   2.284  15.108  1.00  0.00    -0.284 OA
HETATM    3  C1  UNK     1      19.090   1.601  17.340  1.00  0.00     0.087 A 
HETATM    4  C2  UNK     1      18.923   0.508  18.187  1.00  0.00     0.129 A 
HETATM    5  C3  UNK     1      19.109  -1.018  16.385  1.00  0.00     0.123 A 
HETATM    6  C5  UNK     1      19.275   1.364  15.901  1.00  0.00     0.223 A 
HETATM    7  C6  UNK     1      19.273  -0.053  15.462  1.00  0.00     0.152 A 
HETATM    8  C7  UNK     1      18.743   0.707  19.556  1.00  0.00     0.136 A 
HETATM    9  C8  UNK     1      19.080   2.900  17.855  1.00  0.00     0.085 A 
HETATM   10  C9  UNK     1      18.733   2.003  20.074  1.00  0.00     0.104 A 
HETATM   11  C10 UNK     1      18.900   3.097  19.224  1.00  0.00     0.077 A 
ENDROOT
BRANCH   5  12
HETATM   12  C4  UNK     1      19.087  -2.450  16.036  1.00  0.00     0.004 A 
HETATM   13  C11 UNK     1      20.274  -3.184  16.024  1.00  0.00     0.054 A 
HETATM   14  C13 UNK     1      20.252  -4.539  15.692  1.00  0.00     0.102 A 
HETATM   15  C15 UNK     1      19.044  -5.160  15.372  1.00  0.00     0.099 A 
HETATM   16  C14 UNK     1      17.858  -4.426  15.385  1.00  0.00     0.040 A 
HETATM   17  C12 UNK     1      17.880  -3.071  15.716  1.00  0.00     0.017 A 
BRANCH  14  18
HETATM   18  O7  UNK     1      21.417  -5.246  15.684  1.00  0.00    -0.353 OA
HETATM   19  C17 UNK     1      22.531  -4.667  16.360  1.00  0.00     0.210 C 
ENDBRANCH  14  18
BRANCH  15  20
HETATM   20  O8  UNK     1      19.010  -6.483  15.049  1.00  0.00    -0.358 OA
HETATM   21  H11 UNK     1      18.806  -6.992  15.852  1.00  0.00     0.217 HD
ENDBRANCH  15  20
ENDBRANCH   5  12
BRANCH   7  22
HETATM   22  O3  UNK     1      19.424  -0.315  14.117  1.00  0.00    -0.355 OA
HETATM   23  H5  UNK     1      19.903   0.413  13.690  1.00  0.00     0.218 HD
ENDBRANCH   7  22
BRANCH   8  24
HETATM   24  O2  UNK     1      18.577  -0.358  20.391  1.00  0.00    -0.351 OA
HETATM   25  C16 UNK     1      19.518  -0.503  21.451  1.00  0.00     0.210 C 
ENDBRANCH   8  24
BRANCH   9  26
HETATM   26  O4  UNK     1      19.240   4.003  17.070  1.00  0.00    -0.360 OA
HETATM   27  H6  UNK     1      20.130   4.371  17.179  1.00  0.00     0.217 HD
ENDBRANCH   9  26
BRANCH  10  28
HETATM   28  O6  UNK     1      18.558   2.213  21.408  1.00  0.00    -0.358 OA
HETATM   29  H7  UNK     1      18.846   1.422  21.895  1.00  0.00     0.217 HD
ENDBRANCH  10  28
TORSDOF 7
ENDMDL
MODEL 6
REMARK VINA RESULT:      -7.7     23.163     25.264
REMARK  7 active torsions:
REMARK  status: ('A' for Active; 'I' for Inactive)
REMARK    1  A    between atoms: C7_15  and  O2_2 
REMARK    2  A    between atoms: C6_14  and  O3_3 
REMARK    3  A    between atoms: C8_16  and  O4_4 
REMARK    4  A    between atoms: C9_17  and  O6_6 
REMARK    5  A    between atoms: C13_21  and  O7_7 
REMARK    6  A    between atoms: C15_23  and  O8_8 
REMARK    7  A    between atoms: C3_11  and  C4_12 
ROOT
HETATM    1  O1  UNK     1      10.211   7.287   9.608  1.00  0.00    -0.303 OA
HETATM    2  O5  UNK     1       9.601   6.383   5.682  1.00  0.00    -0.284 OA
HETATM    3  C1  UNK     1      11.139   6.724   7.436  1.00  0.00     0.087 A 
HETATM    4  C2  UNK     1      11.280   7.040   8.785  1.00  0.00     0.129 A 
HETATM    5  C3  UNK     1       8.935   7.206   9.075  1.00  0.00     0.123 A 
HETATM    6  C5  UNK     1       9.787   6.650   6.861  1.00  0.00     0.223 A 
HETATM    7  C6  UNK     1       8.662   6.919   7.789  1.00  0.00     0.152 A 
HETATM    8  C7  UNK     1      12.552   7.118   9.355  1.00  0.00     0.136 A 
HETATM    9  C8  UNK     1      12.266   6.483   6.646  1.00  0.00     0.085 A 
HETATM   10  C9  UNK     1      13.679   6.878   8.569  1.00  0.00     0.104 A 
HETATM   11  C10 UNK     1      13.537   6.562   7.217  1.00  0.00     0.077 A 
ENDROOT
BRANCH   5  12
HETATM   12  C4  UNK     1       7.880   7.494  10.062  1.00  0.00     0.004 A 
HETATM   13  C11 UNK     1       7.074   6.462  10.544  1.00  0.00     0.054 A 
HETATM   14  C13 UNK     1       6.074   6.735  11.477  1.00  0.00     0.102 A 
HETATM   15  C15 UNK     1       5.879   8.041  11.929  1.00  0.00     0.099 A 
HETATM   16  C14 UNK     1       6.685   9.073  11.447  1.00  0.00     0.040 A 
HETATM   17  C12 UNK     1       7.684   8.799  10.514  1.00  0.00     0.017 A 
BRANCH  14  18
HETATM   18  O7  UNK     1       5.294   5.719  11.941  1.00  0.00    -0.353 OA
HETATM   19  C17 UNK     1       5.902   4.790  12.835  1.00  0.00     0.210 C 
ENDBRANCH  14  18
BRANCH  15  20
HETATM   20  O8  UNK     1       4.907   8.321  12.842  1.00  0.00    -0.358 OA
HETATM   21  H11 UNK     1       5.332   8.523  13.693  1.00  0.00     0.217 HD
ENDBRANCH  15  20
ENDBRANCH   5  12
BRANCH   7  22
HETATM   22  O3  UNK     1       7.381   6.880   7.282  1.00  0.00    -0.355 OA
HETATM   23  H5  UNK     1       6.898   6.129   7.662  1.00  0.00     0.218 HD
ENDBRANCH   7  22
BRANCH   8  24
HETATM   24  O2  UNK     1      12.698   7.429  10.674  1.00  0.00    -0.351 OA
HETATM   25  C16 UNK     1      12.951   8.794  10.993  1.00  0.00     0.210 C 
ENDBRANCH   8  24
BRANCH   9  26
HETATM   26  O4  UNK     1      12.182   6.170   5.323  1.00  0.00    -0.360 OA
HETATM   27  H6  UNK     1      12.453   6.923   4.777  1.00  0.00     0.217 HD
ENDBRANCH   9  26
BRANCH  10  28
HETATM   28  O6  UNK     1      14.928   6.951   9.109  1.00  0.00    -0.358 OA
HETATM   29  H7  UNK     1      15.083   6.163   9.657  1.00  0.00     0.217 HD
ENDBRANCH  10  28
TORSDOF 7
ENDMDL
MODEL 7
REMARK VINA RESULT:      -7.6      2.828      6.432
REMARK  7 active torsions:
REMARK  status: ('A' for Active; 'I' for Inactive)
REMARK    1  A    between atoms: C7_15  and  O2_2 
REMARK    2  A    between atoms: C6_14  and  O3_3 
REMARK    3  A    between atoms: C8_16  and  O4_4 
REMARK    4  A    between atoms: C9_17  and  O6_6 
REMARK    5  A    between atoms: C13_21  and  O7_7 
REMARK    6  A    between atoms: C15_23  and  O8_8 
REMARK    7  A    between atoms: C3_11  and  C4_12 
ROOT
HETATM    1  O1  UNK     1      18.393   1.017  32.579  1.00  0.00    -0.303 OA
HETATM    2  O5  UNK     1      20.215  -2.367  31.226  1.00  0.00    -0.284 OA
HETATM    3  C1  UNK     1      19.233  -0.286  30.712  1.00  0.00     0.087 A 
HETATM    4  C2  UNK     1      18.614   0.846  31.237  1.00  0.00     0.129 A 
HETATM    5  C3  UNK     1      18.815   0.026  33.450  1.00  0.00     0.123 A 
HETATM    6  C5  UNK     1      19.672  -1.348  31.630  1.00  0.00     0.223 A 
HETATM    7  C6  UNK     1      19.416  -1.117  33.072  1.00  0.00     0.152 A 
HETATM    8  C7  UNK     1      18.187   1.866  30.386  1.00  0.00     0.136 A 
HETATM    9  C8  UNK     1      19.431  -0.406  29.333  1.00  0.00     0.085 A 
HETATM   10  C9  UNK     1      18.383   1.749  29.010  1.00  0.00     0.104 A 
HETATM   11  C10 UNK     1      19.003   0.615  28.484  1.00  0.00     0.077 A 
ENDROOT
BRANCH   5  12
HETATM   12  C4  UNK     1      18.517   0.334  34.860  1.00  0.00     0.004 A 
HETATM   13  C11 UNK     1      18.532  -0.683  35.815  1.00  0.00     0.054 A 
HETATM   14  C13 UNK     1      18.248  -0.391  37.149  1.00  0.00     0.102 A 
HETATM   15  C15 UNK     1      17.947   0.917  37.529  1.00  0.00     0.099 A 
HETATM   16  C14 UNK     1      17.931   1.934  36.574  1.00  0.00     0.040 A 
HETATM   17  C12 UNK     1      18.215   1.642  35.240  1.00  0.00     0.017 A 
BRANCH  14  18
HETATM   18  O7  UNK     1      18.268  -1.392  38.073  1.00  0.00    -0.353 OA
HETATM   19  C17 UNK     1      19.067  -2.535  37.775  1.00  0.00     0.210 C 
ENDBRANCH  14  18
BRANCH  15  20
HETATM   20  O8  UNK     1      17.670   1.215  38.829  1.00  0.00    -0.358 OA
HETATM   21  H11 UNK     1      18.284   0.719  39.397  1.00  0.00     0.217 HD
ENDBRANCH  15  20
ENDBRANCH   5  12
BRANCH   7  22
HETATM   22  O3  UNK     1      19.794  -2.098  33.962  1.00  0.00    -0.355 OA
HETATM   23  H5  UNK     1      20.734  -1.998  34.185  1.00  0.00     0.218 HD
ENDBRANCH   7  22
BRANCH   8  24
HETATM   24  O2  UNK     1      17.578   2.976  30.893  1.00  0.00    -0.351 OA
HETATM   25  C16 UNK     1      18.423   4.051  31.294  1.00  0.00     0.210 C 
ENDBRANCH   8  24
BRANCH   9  26
HETATM   26  O4  UNK     1      20.032  -1.491  28.769  1.00  0.00    -0.360 OA
HETATM   27  H6  UNK     1      20.344  -2.102  29.454  1.00  0.00     0.217 HD
ENDBRANCH   9  26
BRANCH  10  28
HETATM   28  O6  UNK     1      17.971   2.737  28.166  1.00  0.00    -0.358 OA
HETATM   29  H7  UNK     1      17.004   2.824  28.227  1.00  0.00     0.217 HD
ENDBRANCH  10  28
TORSDOF 7
ENDMDL
MODEL 8
REMARK VINA RESULT:      -7.5     14.416     16.834
REMARK  7 active torsions:
REMARK  status: ('A' for Active; 'I' for Inactive)
REMARK    1  A    between atoms: C7_15  and  O2_2 
REMARK    2  A    between atoms: C6_14  and  O3_3 
REMARK    3  A    between atoms: C8_16  and  O4_4 
REMARK    4  A    between atoms: C9_17  and  O6_6 
REMARK    5  A    between atoms: C13_21  and  O7_7 
REMARK    6  A    between atoms: C15_23  and  O8_8 
REMARK    7  A    between atoms: C3_11  and  C4_12 
ROOT
HETATM    1  O1  UNK     1      20.578  -2.235  16.727  1.00  0.00    -0.303 OA
HETATM    2  O5  UNK     1      17.664  -4.510  15.013  1.00  0.00    -0.284 OA
HETATM    3  C1  UNK     1      19.886  -4.364  15.789  1.00  0.00     0.087 A 
HETATM    4  C2  UNK     1      20.838  -3.535  16.376  1.00  0.00     0.129 A 
HETATM    5  C3  UNK     1      19.308  -1.731  16.498  1.00  0.00     0.123 A 
HETATM    6  C5  UNK     1      18.540  -3.831  15.532  1.00  0.00     0.223 A 
HETATM    7  C6  UNK     1      18.302  -2.423  15.932  1.00  0.00     0.152 A 
HETATM    8  C7  UNK     1      22.123  -4.016  16.630  1.00  0.00     0.136 A 
HETATM    9  C8  UNK     1      20.209  -5.681  15.452  1.00  0.00     0.085 A 
HETATM   10  C9  UNK     1      22.450  -5.331  16.294  1.00  0.00     0.104 A 
HETATM   11  C10 UNK     1      21.495  -6.161  15.706  1.00  0.00     0.077 A 
ENDROOT
BRANCH   5  12
HETATM   12  C4  UNK     1      19.162  -0.326  16.919  1.00  0.00     0.004 A 
HETATM   13  C11 UNK     1      18.828  -0.024  18.240  1.00  0.00     0.054 A 
HETATM   14  C13 UNK     1      18.688   1.306  18.637  1.00  0.00     0.102 A 
HETATM   15  C15 UNK     1      18.881   2.334  17.714  1.00  0.00     0.099 A 
HETATM   16  C14 UNK     1      19.215   2.032  16.393  1.00  0.00     0.040 A 
HETATM   17  C12 UNK     1      19.354   0.703  15.997  1.00  0.00     0.017 A 
BRANCH  14  18
HETATM   18  O7  UNK     1      18.363   1.589  19.930  1.00  0.00    -0.353 OA
HETATM   19  C17 UNK     1      19.398   1.461  20.902  1.00  0.00     0.210 C 
ENDBRANCH  14  18
BRANCH  15  20
HETATM   20  O8  UNK     1      18.750   3.637  18.090  1.00  0.00    -0.358 OA
HETATM   21  H11 UNK     1      18.382   4.139  17.342  1.00  0.00     0.217 HD
ENDBRANCH  15  20
ENDBRANCH   5  12
BRANCH   7  22
HETATM   22  O3  UNK     1      17.059  -1.881  15.687  1.00  0.00    -0.355 OA
HETATM   23  H5  UNK     1      16.511  -2.517  15.201  1.00  0.00     0.218 HD
ENDBRANCH   7  22
BRANCH   8  24
HETATM   24  O2  UNK     1      23.061  -3.209  17.202  1.00  0.00    -0.351 OA
HETATM   25  C16 UNK     1      23.228  -3.312  18.614  1.00  0.00     0.210 C 
ENDBRANCH   8  24
BRANCH   9  26
HETATM   26  O4  UNK     1      19.315  -6.533  14.878  1.00  0.00    -0.360 OA
HETATM   27  H6  UNK     1      18.715  -6.051  14.289  1.00  0.00     0.217 HD
ENDBRANCH   9  26
BRANCH  10  28
HETATM   28  O6  UNK     1      23.700  -5.816  16.534  1.00  0.00    -0.358 OA
HETATM   29  H7  UNK     1      24.161  -5.216  17.146  1.00  0.00     0.217 HD
ENDBRANCH  10  28
TORSDOF 7
ENDMDL
MODEL 9
REMARK VINA RESULT:      -7.5      1.460      2.670
REMARK  7 active torsions:
REMARK  status: ('A' for Active; 'I' for Inactive)
REMARK    1  A    between atoms: C7_15  and  O2_2 
REMARK    2  A    between atoms: C6_14  and  O3_3 
REMARK    3  A    between atoms: C8_16  and  O4_4 
REMARK    4  A    between atoms: C9_17  and  O6_6 
REMARK    5  A    between atoms: C13_21  and  O7_7 
REMARK    6  A    between atoms: C15_23  and  O8_8 
REMARK    7  A    between atoms: C3_11  and  C4_12 
ROOT
HETATM    1  O1  UNK     1      17.920   4.306  33.053  1.00  0.00    -0.303 OA
HETATM    2  O5  UNK     1      19.009   4.086  29.133  1.00  0.00    -0.284 OA
HETATM    3  C1  UNK     1      18.669   2.961  31.177  1.00  0.00     0.087 A 
HETATM    4  C2  UNK     1      18.288   3.103  32.509  1.00  0.00     0.129 A 
HETATM    5  C3  UNK     1      17.915   5.426  32.238  1.00  0.00     0.123 A 
HETATM    6  C5  UNK     1      18.679   4.148  30.309  1.00  0.00     0.223 A 
HETATM    7  C6  UNK     1      18.268   5.426  30.939  1.00  0.00     0.152 A 
HETATM    8  C7  UNK     1      18.272   1.992  33.353  1.00  0.00     0.136 A 
HETATM    9  C8  UNK     1      19.036   1.708  30.677  1.00  0.00     0.085 A 
HETATM   10  C9  UNK     1      18.638   0.739  32.858  1.00  0.00     0.104 A 
HETATM   11  C10 UNK     1      19.019   0.598  31.523  1.00  0.00     0.077 A 
ENDROOT
BRANCH   5  12
HETATM   12  C4  UNK     1      17.501   6.651  32.945  1.00  0.00     0.004 A 
HETATM   13  C11 UNK     1      18.438   7.646  33.224  1.00  0.00     0.054 A 
HETATM   14  C13 UNK     1      18.047   8.805  33.895  1.00  0.00     0.102 A 
HETATM   15  C15 UNK     1      16.718   8.968  34.288  1.00  0.00     0.099 A 
HETATM   16  C14 UNK     1      15.780   7.973  34.009  1.00  0.00     0.040 A 
HETATM   17  C12 UNK     1      16.173   6.815  33.338  1.00  0.00     0.017 A 
BRANCH  14  18
HETATM   18  O7  UNK     1      18.970   9.770  34.161  1.00  0.00    -0.353 OA
HETATM   19  C17 UNK     1      20.283   9.334  34.507  1.00  0.00     0.210 C 
ENDBRANCH  14  18
BRANCH  15  20
HETATM   20  O8  UNK     1      16.322  10.096  34.942  1.00  0.00    -0.358 OA
HETATM   21  H11 UNK     1      17.108  10.642  35.118  1.00  0.00     0.217 HD
ENDBRANCH  15  20
ENDBRANCH   5  12
BRANCH   7  22
HETATM   22  O3  UNK     1      18.284   6.565  30.164  1.00  0.00    -0.355 OA
HETATM   23  H5  UNK     1      19.136   7.020  30.262  1.00  0.00     0.218 HD
ENDBRANCH   7  22
BRANCH   8  24
HETATM   24  O2  UNK     1      17.903   2.123  34.658  1.00  0.00    -0.351 OA
HETATM   25  C16 UNK     1      18.949   2.204  35.622  1.00  0.00     0.210 C 
ENDBRANCH   8  24
BRANCH   9  26
HETATM   26  O4  UNK     1      19.415   1.515  29.383  1.00  0.00    -0.360 OA
HETATM   27  H6  UNK     1      20.190   2.056  29.171  1.00  0.00     0.217 HD
ENDBRANCH   9  26
BRANCH  10  28
HETATM   28  O6  UNK     1      18.628  -0.355  33.669  1.00  0.00    -0.358 OA
HETATM   29  H7  UNK     1      19.489  -0.804  33.607  1.00  0.00     0.217 HD
ENDBRANCH  10  28
TORSDOF 7
ENDMDL
MODEL 10
REMARK VINA RESULT:      -7.4     23.101     24.950
REMARK  7 active torsions:
REMARK  status: ('A' for Active; 'I' for Inactive)
REMARK    1  A    between atoms: C7_15  and  O2_2 
REMARK    2  A    between atoms: C6_14  and  O3_3 
REMARK    3  A    between atoms: C8_16  and  O4_4 
REMARK    4  A    between atoms: C9_17  and  O6_6 
REMARK    5  A    between atoms: C13_21  and  O7_7 
REMARK    6  A    between atoms: C15_23  and  O8_8 
REMARK    7  A    between atoms: C3_11  and  C4_12 
ROOT
HETATM    1  O1  UNK     1      13.213   7.985   8.770  1.00  0.00    -0.303 OA
HETATM    2  O5  UNK     1      15.488   4.656   9.359  1.00  0.00    -0.284 OA
HETATM    3  C1  UNK     1      15.343   7.009   9.406  1.00  0.00     0.087 A 
HETATM    4  C2  UNK     1      14.514   8.106   9.186  1.00  0.00     0.129 A 
HETATM    5  C3  UNK     1      12.698   6.714   8.574  1.00  0.00     0.123 A 
HETATM    6  C5  UNK     1      14.806   5.657   9.187  1.00  0.00     0.223 A 
HETATM    7  C6  UNK     1      13.394   5.574   8.743  1.00  0.00     0.152 A 
HETATM    8  C7  UNK     1      14.999   9.399   9.386  1.00  0.00     0.136 A 
HETATM    9  C8  UNK     1      16.662   7.194   9.829  1.00  0.00     0.085 A 
HETATM   10  C9  UNK     1      16.316   9.588   9.808  1.00  0.00     0.104 A 
HETATM   11  C10 UNK     1      17.146   8.488  10.029  1.00  0.00     0.077 A 
ENDROOT
BRANCH   5  12
HETATM   12  C4  UNK     1      11.294   6.724   8.128  1.00  0.00     0.004 A 
HETATM   13  C11 UNK     1      10.265   6.826   9.065  1.00  0.00     0.054 A 
HETATM   14  C13 UNK     1       8.935   6.834   8.642  1.00  0.00     0.102 A 
HETATM   15  C15 UNK     1       8.635   6.739   7.283  1.00  0.00     0.099 A 
HETATM   16  C14 UNK     1       9.664   6.637   6.346  1.00  0.00     0.040 A 
HETATM   17  C12 UNK     1      10.992   6.629   6.769  1.00  0.00     0.017 A 
BRANCH  14  18
HETATM   18  O7  UNK     1       7.939   6.935   9.566  1.00  0.00    -0.353 OA
HETATM   19  C17 UNK     1       7.779   8.196  10.212  1.00  0.00     0.210 C 
ENDBRANCH  14  18
BRANCH  15  20
HETATM   20  O8  UNK     1       7.340   6.748   6.857  1.00  0.00    -0.358 OA
HETATM   21  H11 UNK     1       7.327   6.986   5.914  1.00  0.00     0.217 HD
ENDBRANCH  15  20
ENDBRANCH   5  12
BRANCH   7  22
HETATM   22  O3  UNK     1      12.862   4.325   8.506  1.00  0.00    -0.355 OA
HETATM   23  H5  UNK     1      13.235   3.683   9.131  1.00  0.00     0.218 HD
ENDBRANCH   7  22
BRANCH   8  24
HETATM   24  O2  UNK     1      14.195  10.478   9.170  1.00  0.00    -0.351 OA
HETATM   25  C16 UNK     1      13.462  10.973  10.288  1.00  0.00     0.210 C 
ENDBRANCH   8  24
BRANCH   9  26
HETATM   26  O4  UNK     1      17.512   6.155  10.060  1.00  0.00    -0.360 OA
HETATM   27  H6  UNK     1      17.138   5.549  10.717  1.00  0.00     0.217 HD
ENDBRANCH   9  26
BRANCH  10  28
HETATM   28  O6  UNK     1      16.805  10.844  10.007  1.00  0.00    -0.358 OA
HETATM   29  H7  UNK     1      17.759  10.848   9.814  1.00  0.00     0.217 HD
ENDBRANCH  10  28
TORSDOF 7
ENDMDL
