MODEL 1
REMARK VINA RESULT:      -9.2      0.000      0.000
REMARK  2 active torsions:
REMARK  status: ('A' for Active; 'I' for Inactive)
REMARK    1  A    between atoms: C11_18  and  N1_6 
REMARK    2  A    between atoms: C1_8  and  C3_10 
ROOT
HETATM    1  O1  UNK     1      17.670   2.489  31.321  1.00  0.00    -0.269 OA
HETATM    2  O2  UNK     1      17.338   1.305  33.316  1.00  0.00    -0.286 OA
HETATM    3  O5  UNK     1      19.490   4.033  35.434  1.00  0.00    -0.287 OA
HETATM    4  N2  UNK     1      20.284   6.164  29.628  1.00  0.00    -0.191 NA
HETATM    5  C1  UNK     1      19.133   4.584  32.619  1.00  0.00     0.109 C 
HETATM    6  C2  UNK     1      18.573   3.377  33.338  1.00  0.00     0.065 A 
HETATM    7  C4  UNK     1      19.029   4.446  31.106  1.00  0.00     0.086 C 
HETATM    8  C5  UNK     1      17.883   2.417  32.693  1.00  0.00     0.204 A 
HETATM    9  C6  UNK     1      18.818   3.230  34.799  1.00  0.00     0.197 A 
HETATM   10  C9  UNK     1      18.212   2.060  35.448  1.00  0.00     0.049 A 
HETATM   11  C11 UNK     1      18.320   3.443  30.541  1.00  0.00     0.162 C 
HETATM   12  C13 UNK     1      17.499   1.155  34.668  1.00  0.00     0.092 A 
HETATM   13  C17 UNK     1      18.347   1.853  36.823  1.00  0.00     0.018 A 
HETATM   14  C18 UNK     1      16.914   0.035  35.258  1.00  0.00     0.038 A 
HETATM   15  C19 UNK     1      19.722   5.395  30.290  1.00  0.00     0.100 C 
HETATM   16  C20 UNK     1      17.761   0.732  37.412  1.00  0.00     0.001 A 
HETATM   17  C21 UNK     1      17.045  -0.175  36.632  1.00  0.00     0.003 A 
ENDROOT
BRANCH   5  18
HETATM   18  C3  UNK     1      18.445   5.831  33.073  1.00  0.00    -0.041 A 
HETATM   19  C7  UNK     1      17.068   5.971  32.892  1.00  0.00     0.047 A 
HETATM   20  C10 UNK     1      16.427   7.132  33.323  1.00  0.00     0.102 A 
HETATM   21  O3  UNK     1      15.071   7.204  33.138  1.00  0.00    -0.346 OA
HETATM   22  C12 UNK     1      17.166   8.165  33.908  1.00  0.00     0.102 A 
HETATM   23  C15 UNK     1      14.480   8.252  33.911  1.00  0.00     0.202 C 
HETATM   24  C16 UNK     1      15.291   9.527  33.774  1.00  0.00     0.202 C 
HETATM   25  O4  UNK     1      16.599   9.342  34.321  1.00  0.00    -0.346 OA
HETATM   26  C14 UNK     1      18.540   8.017  34.100  1.00  0.00     0.040 A 
HETATM   27  C8  UNK     1      19.178   6.850  33.680  1.00  0.00     0.011 A 
ENDBRANCH   5  18
BRANCH  11  28
HETATM   28  N1  UNK     1      18.161   3.253  29.195  1.00  0.00    -0.379 N 
HETATM   29  H11 UNK     1      17.342   3.600  28.713  1.00  0.00     0.158 HD
HETATM   30  H12 UNK     1      18.880   2.757  28.684  1.00  0.00     0.158 HD
ENDBRANCH  11  28
TORSDOF 2
ENDMDL
MODEL 2
REMARK VINA RESULT:      -8.5     15.915     18.065
REMARK  2 active torsions:
REMARK  status: ('A' for Active; 'I' for Inactive)
REMARK    1  A    between atoms: C11_18  and  N1_6 
REMARK    2  A    between atoms: C1_8  and  C3_10 
ROOT
HETATM    1  O1  UNK     1      31.771  -4.883  34.241  1.00  0.00    -0.269 OA
HETATM    2  O2  UNK     1      30.241  -5.321  32.520  1.00  0.00    -0.286 OA
HETATM    3  O5  UNK     1      29.530  -9.066  33.942  1.00  0.00    -0.287 OA
HETATM    4  N2  UNK     1      34.092  -7.207  37.765  1.00  0.00    -0.191 NA
HETATM    5  C1  UNK     1      31.356  -7.435  35.478  1.00  0.00     0.109 C 
HETATM    6  C2  UNK     1      30.657  -6.988  34.214  1.00  0.00     0.065 A 
HETATM    7  C4  UNK     1      32.464  -6.474  35.887  1.00  0.00     0.086 C 
HETATM    8  C5  UNK     1      30.873  -5.777  33.667  1.00  0.00     0.204 A 
HETATM    9  C6  UNK     1      29.724  -7.929  33.535  1.00  0.00     0.197 A 
HETATM   10  C9  UNK     1      29.043  -7.421  32.336  1.00  0.00     0.049 A 
HETATM   11  C11 UNK     1      32.615  -5.277  35.277  1.00  0.00     0.162 C 
HETATM   12  C13 UNK     1      29.338  -6.136  31.891  1.00  0.00     0.092 A 
HETATM   13  C17 UNK     1      28.117  -8.210  31.650  1.00  0.00     0.018 A 
HETATM   14  C18 UNK     1      28.708  -5.630  30.754  1.00  0.00     0.038 A 
HETATM   15  C19 UNK     1      33.363  -6.879  36.924  1.00  0.00     0.100 C 
HETATM   16  C20 UNK     1      27.486  -7.702  30.514  1.00  0.00     0.001 A 
HETATM   17  C21 UNK     1      27.780  -6.414  30.067  1.00  0.00     0.003 A 
ENDROOT
BRANCH   5  18
HETATM   18  C3  UNK     1      30.373  -7.594  36.592  1.00  0.00    -0.041 A 
HETATM   19  C7  UNK     1      30.198  -8.841  37.194  1.00  0.00     0.047 A 
HETATM   20  C10 UNK     1      29.285  -8.985  38.239  1.00  0.00     0.102 A 
HETATM   21  O3  UNK     1      29.172 -10.228  38.804  1.00  0.00    -0.346 OA
HETATM   22  C12 UNK     1      28.526  -7.890  38.662  1.00  0.00     0.102 A 
HETATM   23  C15 UNK     1      28.489 -10.184  40.059  1.00  0.00     0.202 C 
HETATM   24  C16 UNK     1      27.240  -9.331  39.948  1.00  0.00     0.202 C 
HETATM   25  O4  UNK     1      27.591  -7.975  39.660  1.00  0.00    -0.346 OA
HETATM   26  C14 UNK     1      28.712  -6.641  38.068  1.00  0.00     0.040 A 
HETATM   27  C8  UNK     1      29.635  -6.495  37.032  1.00  0.00     0.011 A 
ENDBRANCH   5  18
BRANCH  11  28
HETATM   28  N1  UNK     1      33.570  -4.349  35.591  1.00  0.00    -0.379 N 
HETATM   29  H11 UNK     1      33.871  -3.661  34.913  1.00  0.00     0.158 HD
HETATM   30  H12 UNK     1      33.976  -4.361  36.518  1.00  0.00     0.158 HD
ENDBRANCH  11  28
TORSDOF 2
ENDMDL
MODEL 3
REMARK VINA RESULT:      -8.3     23.442     25.157
REMARK  2 active torsions:
REMARK  status: ('A' for Active; 'I' for Inactive)
REMARK    1  A    between atoms: C11_18  and  N1_6 
REMARK    2  A    between atoms: C1_8  and  C3_10 
ROOT
HETATM    1  O1  UNK     1      11.917   7.187   8.425  1.00  0.00    -0.269 OA
HETATM    2  O2  UNK     1      10.482   8.762   9.401  1.00  0.00    -0.286 OA
HETATM    3  O5  UNK     1      13.323   9.858  12.099  1.00  0.00    -0.287 OA
HETATM    4  N2  UNK     1      16.185   5.110   9.245  1.00  0.00    -0.191 NA
HETATM    5  C1  UNK     1      14.099   7.864  10.156  1.00  0.00     0.109 C 
HETATM    6  C2  UNK     1      12.737   8.518  10.223  1.00  0.00     0.065 A 
HETATM    7  C4  UNK     1      14.109   6.659   9.225  1.00  0.00     0.086 C 
HETATM    8  C5  UNK     1      11.738   8.177   9.385  1.00  0.00     0.204 A 
HETATM    9  C6  UNK     1      12.481   9.547  11.267  1.00  0.00     0.197 A 
HETATM   10  C9  UNK     1      11.153  10.175  11.253  1.00  0.00     0.049 A 
HETATM   11  C11 UNK     1      13.057   6.385   8.421  1.00  0.00     0.162 C 
HETATM   12  C13 UNK     1      10.219   9.748  10.314  1.00  0.00     0.092 A 
HETATM   13  C17 UNK     1      10.828  11.183  12.164  1.00  0.00     0.018 A 
HETATM   14  C18 UNK     1       8.950  10.327  10.280  1.00  0.00     0.038 A 
HETATM   15  C19 UNK     1      15.256   5.804   9.236  1.00  0.00     0.100 C 
HETATM   16  C20 UNK     1       9.559  11.761  12.128  1.00  0.00     0.001 A 
HETATM   17  C21 UNK     1       8.621  11.335  11.187  1.00  0.00     0.003 A 
ENDROOT
BRANCH   5  18
HETATM   18  C3  UNK     1      15.135   8.854   9.730  1.00  0.00    -0.041 A 
HETATM   19  C7  UNK     1      14.867   9.733   8.680  1.00  0.00     0.047 A 
HETATM   20  C10 UNK     1      15.833  10.661   8.290  1.00  0.00     0.102 A 
HETATM   21  O3  UNK     1      15.506  11.512   7.266  1.00  0.00    -0.346 OA
HETATM   22  C12 UNK     1      17.076  10.691   8.930  1.00  0.00     0.102 A 
HETATM   23  C15 UNK     1      16.405  12.621   7.184  1.00  0.00     0.202 C 
HETATM   24  C16 UNK     1      17.841  12.142   7.288  1.00  0.00     0.202 C 
HETATM   25  O4  UNK     1      18.076  11.556   8.571  1.00  0.00    -0.346 OA
HETATM   26  C14 UNK     1      17.335   9.821   9.989  1.00  0.00     0.040 A 
HETATM   27  C8  UNK     1      16.364   8.902  10.387  1.00  0.00     0.011 A 
ENDBRANCH   5  18
BRANCH  11  28
HETATM   28  N1  UNK     1      12.988   5.336   7.545  1.00  0.00    -0.379 N 
HETATM   29  H11 UNK     1      13.170   4.390   7.851  1.00  0.00     0.158 HD
HETATM   30  H12 UNK     1      12.752   5.523   6.579  1.00  0.00     0.158 HD
ENDBRANCH  11  28
TORSDOF 2
ENDMDL
MODEL 4
REMARK VINA RESULT:      -8.3     16.294     18.216
REMARK  2 active torsions:
REMARK  status: ('A' for Active; 'I' for Inactive)
REMARK    1  A    between atoms: C11_18  and  N1_6 
REMARK    2  A    between atoms: C1_8  and  C3_10 
ROOT
HETATM    1  O1  UNK     1      32.667  -8.425  37.217  1.00  0.00    -0.269 OA
HETATM    2  O2  UNK     1      30.696  -9.133  38.269  1.00  0.00    -0.286 OA
HETATM    3  O5  UNK     1      28.532  -6.206  36.451  1.00  0.00    -0.287 OA
HETATM    4  N2  UNK     1      34.295  -4.743  34.573  1.00  0.00    -0.191 NA
HETATM    5  C1  UNK     1      31.332  -6.356  35.751  1.00  0.00     0.109 C 
HETATM    6  C2  UNK     1      30.636  -7.283  36.721  1.00  0.00     0.065 A 
HETATM    7  C4  UNK     1      32.847  -6.497  35.814  1.00  0.00     0.086 C 
HETATM    8  C5  UNK     1      31.298  -8.250  37.386  1.00  0.00     0.204 A 
HETATM    9  C6  UNK     1      29.181  -7.103  36.973  1.00  0.00     0.197 A 
HETATM   10  C9  UNK     1      28.553  -8.063  37.892  1.00  0.00     0.049 A 
HETATM   11  C11 UNK     1      33.430  -7.495  36.514  1.00  0.00     0.162 C 
HETATM   12  C13 UNK     1      29.349  -9.033  38.494  1.00  0.00     0.092 A 
HETATM   13  C17 UNK     1      27.184  -8.006  38.162  1.00  0.00     0.018 A 
HETATM   14  C18 UNK     1      28.779  -9.956  39.371  1.00  0.00     0.038 A 
HETATM   15  C19 UNK     1      33.647  -5.528  35.128  1.00  0.00     0.100 C 
HETATM   16  C20 UNK     1      26.616  -8.930  39.040  1.00  0.00     0.001 A 
HETATM   17  C21 UNK     1      27.411  -9.904  39.643  1.00  0.00     0.003 A 
ENDROOT
BRANCH   5  18
HETATM   18  C3  UNK     1      30.848  -6.595  34.357  1.00  0.00    -0.041 A 
HETATM   19  C7  UNK     1      30.814  -7.893  33.846  1.00  0.00     0.047 A 
HETATM   20  C10 UNK     1      30.354  -8.114  32.547  1.00  0.00     0.102 A 
HETATM   21  O3  UNK     1      30.324  -9.412  32.107  1.00  0.00    -0.346 OA
HETATM   22  C12 UNK     1      29.958  -7.036  31.751  1.00  0.00     0.102 A 
HETATM   23  C15 UNK     1      29.529  -9.558  30.928  1.00  0.00     0.202 C 
HETATM   24  C16 UNK     1      29.869  -8.469  29.928  1.00  0.00     0.202 C 
HETATM   25  O4  UNK     1      29.529  -7.186  30.459  1.00  0.00    -0.346 OA
HETATM   26  C14 UNK     1      29.980  -5.741  32.269  1.00  0.00     0.040 A 
HETATM   27  C8  UNK     1      30.427  -5.522  33.572  1.00  0.00     0.011 A 
ENDBRANCH   5  18
BRANCH  11  28
HETATM   28  N1  UNK     1      34.779  -7.706  36.611  1.00  0.00    -0.379 N 
HETATM   29  H11 UNK     1      35.150  -8.451  37.185  1.00  0.00     0.158 HD
HETATM   30  H12 UNK     1      35.405  -7.098  36.097  1.00  0.00     0.158 HD
ENDBRANCH  11  28
TORSDOF 2
ENDMDL
MODEL 5
REMARK VINA RESULT:      -8.3     15.733     18.219
REMARK  2 active torsions:
REMARK  status: ('A' for Active; 'I' for Inactive)
REMARK    1  A    between atoms: C11_18  and  N1_6 
REMARK    2  A    between atoms: C1_8  and  C3_10 
ROOT
HETATM    1  O1  UNK     1      28.167  -7.219  37.972  1.00  0.00    -0.269 OA
HETATM    2  O2  UNK     1      30.373  -6.444  38.139  1.00  0.00    -0.286 OA
HETATM    3  O5  UNK     1      31.736  -9.446  35.756  1.00  0.00    -0.287 OA
HETATM    4  N2  UNK     1      25.738 -11.045  36.340  1.00  0.00    -0.191 NA
HETATM    5  C1  UNK     1      28.881  -9.352  36.196  1.00  0.00     0.109 C 
HETATM    6  C2  UNK     1      29.875  -8.370  36.775  1.00  0.00     0.065 A 
HETATM    7  C4  UNK     1      27.507  -9.219  36.838  1.00  0.00     0.086 C 
HETATM    8  C5  UNK     1      29.498  -7.375  37.601  1.00  0.00     0.204 A 
HETATM    9  C6  UNK     1      31.318  -8.527  36.448  1.00  0.00     0.197 A 
HETATM   10  C9  UNK     1      32.227  -7.516  37.005  1.00  0.00     0.049 A 
HETATM   11  C11 UNK     1      27.216  -8.189  37.665  1.00  0.00     0.162 C 
HETATM   12  C13 UNK     1      31.703  -6.522  37.825  1.00  0.00     0.092 A 
HETATM   13  C17 UNK     1      33.595  -7.550  36.723  1.00  0.00     0.018 A 
HETATM   14  C18 UNK     1      32.544  -5.551  38.369  1.00  0.00     0.038 A 
HETATM   15  C19 UNK     1      26.530 -10.228  36.563  1.00  0.00     0.100 C 
HETATM   16  C20 UNK     1      34.435  -6.577  37.267  1.00  0.00     0.001 A 
HETATM   17  C21 UNK     1      33.911  -5.579  38.088  1.00  0.00     0.003 A 
ENDROOT
BRANCH   5  18
HETATM   18  C3  UNK     1      28.779  -9.182  34.715  1.00  0.00    -0.041 A 
HETATM   19  C7  UNK     1      28.343  -7.968  34.183  1.00  0.00     0.047 A 
HETATM   20  C10 UNK     1      28.255  -7.810  32.799  1.00  0.00     0.102 A 
HETATM   21  O3  UNK     1      27.841  -6.588  32.335  1.00  0.00    -0.346 OA
HETATM   22  C12 UNK     1      28.575  -8.873  31.950  1.00  0.00     0.102 A 
HETATM   23  C15 UNK     1      28.117  -6.425  30.941  1.00  0.00     0.202 C 
HETATM   24  C16 UNK     1      27.697  -7.665  30.174  1.00  0.00     0.202 C 
HETATM   25  O4  UNK     1      28.478  -8.790  30.586  1.00  0.00    -0.346 OA
HETATM   26  C14 UNK     1      29.023 -10.081  32.484  1.00  0.00     0.040 A 
HETATM   27  C8  UNK     1      29.124 -10.235  33.868  1.00  0.00     0.011 A 
ENDBRANCH   5  18
BRANCH  11  28
HETATM   28  N1  UNK     1      26.006  -7.984  38.270  1.00  0.00    -0.379 N 
HETATM   29  H11 UNK     1      25.921  -7.375  39.073  1.00  0.00     0.158 HD
HETATM   30  H12 UNK     1      25.190  -8.456  37.901  1.00  0.00     0.158 HD
ENDBRANCH  11  28
TORSDOF 2
ENDMDL
MODEL 6
REMARK VINA RESULT:      -8.2     19.197     22.754
REMARK  2 active torsions:
REMARK  status: ('A' for Active; 'I' for Inactive)
REMARK    1  A    between atoms: C11_18  and  N1_6 
REMARK    2  A    between atoms: C1_8  and  C3_10 
ROOT
HETATM    1  O1  UNK     1      18.312  -7.392  12.949  1.00  0.00    -0.269 OA
HETATM    2  O2  UNK     1      19.212  -6.549  10.956  1.00  0.00    -0.286 OA
HETATM    3  O5  UNK     1      18.949  -2.722  12.312  1.00  0.00    -0.287 OA
HETATM    4  N2  UNK     1      16.169  -5.809  16.962  1.00  0.00    -0.191 NA
HETATM    5  C1  UNK     1      18.127  -4.796  14.150  1.00  0.00     0.109 C 
HETATM    6  C2  UNK     1      18.647  -5.041  12.751  1.00  0.00     0.065 A 
HETATM    7  C4  UNK     1      17.507  -6.047  14.756  1.00  0.00     0.086 C 
HETATM    8  C5  UNK     1      18.726  -6.278  12.225  1.00  0.00     0.204 A 
HETATM    9  C6  UNK     1      19.054  -3.877  11.919  1.00  0.00     0.197 A 
HETATM   10  C9  UNK     1      19.592  -4.184  10.586  1.00  0.00     0.049 A 
HETATM   11  C11 UNK     1      17.628  -7.252  14.154  1.00  0.00     0.162 C 
HETATM   12  C13 UNK     1      19.643  -5.511  10.173  1.00  0.00     0.092 A 
HETATM   13  C17 UNK     1      20.042  -3.164   9.743  1.00  0.00     0.018 A 
HETATM   14  C18 UNK     1      20.147  -5.830   8.912  1.00  0.00     0.038 A 
HETATM   15  C19 UNK     1      16.768  -5.915  15.975  1.00  0.00     0.100 C 
HETATM   16  C20 UNK     1      20.546  -3.486   8.483  1.00  0.00     0.001 A 
HETATM   17  C21 UNK     1      20.600  -4.816   8.068  1.00  0.00     0.003 A 
ENDROOT
BRANCH   5  18
HETATM   18  C3  UNK     1      19.219  -4.281  15.032  1.00  0.00    -0.041 A 
HETATM   19  C7  UNK     1      20.400  -5.010  15.175  1.00  0.00     0.047 A 
HETATM   20  C10 UNK     1      21.420  -4.523  15.993  1.00  0.00     0.102 A 
HETATM   21  O3  UNK     1      22.565  -5.271  16.077  1.00  0.00    -0.346 OA
HETATM   22  C12 UNK     1      21.247  -3.323  16.690  1.00  0.00     0.102 A 
HETATM   23  C15 UNK     1      23.648  -4.530  16.644  1.00  0.00     0.202 C 
HETATM   24  C16 UNK     1      23.184  -3.785  17.882  1.00  0.00     0.202 C 
HETATM   25  O4  UNK     1      22.198  -2.811  17.533  1.00  0.00    -0.346 OA
HETATM   26  C14 UNK     1      20.071  -2.590  16.535  1.00  0.00     0.040 A 
HETATM   27  C8  UNK     1      19.056  -3.070  15.706  1.00  0.00     0.011 A 
ENDBRANCH   5  18
BRANCH  11  28
HETATM   28  N1  UNK     1      17.117  -8.427  14.636  1.00  0.00    -0.379 N 
HETATM   29  H11 UNK     1      16.231  -8.449  15.124  1.00  0.00     0.158 HD
HETATM   30  H12 UNK     1      17.644  -9.280  14.498  1.00  0.00     0.158 HD
ENDBRANCH  11  28
TORSDOF 2
ENDMDL
MODEL 7
REMARK VINA RESULT:      -8.1     16.603     18.624
REMARK  2 active torsions:
REMARK  status: ('A' for Active; 'I' for Inactive)
REMARK    1  A    between atoms: C11_18  and  N1_6 
REMARK    2  A    between atoms: C1_8  and  C3_10 
ROOT
HETATM    1  O1  UNK     1      30.908  -9.984  36.497  1.00  0.00    -0.269 OA
HETATM    2  O2  UNK     1      30.198  -8.067  37.644  1.00  0.00    -0.286 OA
HETATM    3  O5  UNK     1      32.072  -5.631  34.977  1.00  0.00    -0.287 OA
HETATM    4  N2  UNK     1      33.914 -11.231  32.946  1.00  0.00    -0.191 NA
HETATM    5  C1  UNK     1      32.215  -8.468  34.445  1.00  0.00     0.109 C 
HETATM    6  C2  UNK     1      31.494  -7.847  35.621  1.00  0.00     0.065 A 
HETATM    7  C4  UNK     1      32.361  -9.976  34.597  1.00  0.00     0.086 C 
HETATM    8  C5  UNK     1      30.884  -8.595  36.561  1.00  0.00     0.204 A 
HETATM    9  C6  UNK     1      31.485  -6.366  35.760  1.00  0.00     0.197 A 
HETATM   10  C9  UNK     1      30.731  -5.822  36.899  1.00  0.00     0.049 A 
HETATM   11  C11 UNK     1      31.717 -10.648  35.578  1.00  0.00     0.162 C 
HETATM   12  C13 UNK     1      30.123  -6.707  37.784  1.00  0.00     0.092 A 
HETATM   13  C17 UNK     1      30.625  -4.443  37.095  1.00  0.00     0.018 A 
HETATM   14  C18 UNK     1      29.403  -6.217  38.874  1.00  0.00     0.038 A 
HETATM   15  C19 UNK     1      33.219 -10.669  33.685  1.00  0.00     0.100 C 
HETATM   16  C20 UNK     1      29.904  -3.956  38.185  1.00  0.00     0.001 A 
HETATM   17  C21 UNK     1      29.293  -4.841  39.073  1.00  0.00     0.003 A 
ENDROOT
BRANCH   5  18
HETATM   18  C3  UNK     1      31.511  -8.143  33.168  1.00  0.00    -0.041 A 
HETATM   19  C7  UNK     1      30.205  -8.590  32.959  1.00  0.00     0.047 A 
HETATM   20  C10 UNK     1      29.548  -8.278  31.769  1.00  0.00     0.102 A 
HETATM   21  O3  UNK     1      28.260  -8.726  31.630  1.00  0.00    -0.346 OA
HETATM   22  C12 UNK     1      30.205  -7.546  30.776  1.00  0.00     0.102 A 
HETATM   23  C15 UNK     1      27.579  -8.071  30.557  1.00  0.00     0.202 C 
HETATM   24  C16 UNK     1      28.461  -8.029  29.323  1.00  0.00     0.202 C 
HETATM   25  O4  UNK     1      29.625  -7.237  29.574  1.00  0.00    -0.346 OA
HETATM   26  C14 UNK     1      31.505  -7.089  30.992  1.00  0.00     0.040 A 
HETATM   27  C8  UNK     1      32.158  -7.389  32.188  1.00  0.00     0.011 A 
ENDBRANCH   5  18
BRANCH  11  28
HETATM   28  N1  UNK     1      31.779 -12.001  35.777  1.00  0.00    -0.379 N 
HETATM   29  H11 UNK     1      31.109 -12.622  35.343  1.00  0.00     0.158 HD
HETATM   30  H12 UNK     1      32.509 -12.373  36.371  1.00  0.00     0.158 HD
ENDBRANCH  11  28
TORSDOF 2
ENDMDL
MODEL 8
REMARK VINA RESULT:      -8.0     16.300     18.746
REMARK  2 active torsions:
REMARK  status: ('A' for Active; 'I' for Inactive)
REMARK    1  A    between atoms: C11_18  and  N1_6 
REMARK    2  A    between atoms: C1_8  and  C3_10 
ROOT
HETATM    1  O1  UNK     1      32.117  -4.146  35.427  1.00  0.00    -0.269 OA
HETATM    2  O2  UNK     1      33.451  -5.561  34.118  1.00  0.00    -0.286 OA
HETATM    3  O5  UNK     1      32.670  -8.737  36.539  1.00  0.00    -0.287 OA
HETATM    4  N2  UNK     1      29.820  -4.153  39.661  1.00  0.00    -0.191 NA
HETATM    5  C1  UNK     1      31.348  -6.256  37.209  1.00  0.00     0.109 C 
HETATM    6  C2  UNK     1      32.282  -6.444  36.035  1.00  0.00     0.065 A 
HETATM    7  C4  UNK     1      31.047  -4.786  37.469  1.00  0.00     0.086 C 
HETATM    8  C5  UNK     1      32.614  -5.428  35.215  1.00  0.00     0.204 A 
HETATM    9  C6  UNK     1      32.879  -7.786  35.796  1.00  0.00     0.197 A 
HETATM   10  C9  UNK     1      33.744  -7.915  34.615  1.00  0.00     0.049 A 
HETATM   11  C11 UNK     1      31.425  -3.827  36.593  1.00  0.00     0.162 C 
HETATM   12  C13 UNK     1      33.984  -6.790  33.834  1.00  0.00     0.092 A 
HETATM   13  C17 UNK     1      34.318  -9.144  34.279  1.00  0.00     0.018 A 
HETATM   14  C18 UNK     1      34.803  -6.884  32.708  1.00  0.00     0.038 A 
HETATM   15  C19 UNK     1      30.369  -4.437  38.680  1.00  0.00     0.100 C 
HETATM   16  C20 UNK     1      35.136  -9.236  33.153  1.00  0.00     0.001 A 
HETATM   17  C21 UNK     1      35.377  -8.109  32.368  1.00  0.00     0.003 A 
ENDROOT
BRANCH   5  18
HETATM   18  C3  UNK     1      30.077  -7.013  36.994  1.00  0.00    -0.041 A 
HETATM   19  C7  UNK     1      29.712  -8.025  37.883  1.00  0.00     0.047 A 
HETATM   20  C10 UNK     1      28.521  -8.725  37.684  1.00  0.00     0.102 A 
HETATM   21  O3  UNK     1      28.205  -9.693  38.601  1.00  0.00    -0.346 OA
HETATM   22  C12 UNK     1      27.713  -8.434  36.582  1.00  0.00     0.102 A 
HETATM   23  C15 UNK     1      26.836 -10.094  38.504  1.00  0.00     0.202 C 
HETATM   24  C16 UNK     1      26.459 -10.329  37.054  1.00  0.00     0.202 C 
HETATM   25  O4  UNK     1      26.550  -9.108  36.314  1.00  0.00    -0.346 OA
HETATM   26  C14 UNK     1      28.074  -7.413  35.702  1.00  0.00     0.040 A 
HETATM   27  C8  UNK     1      29.257  -6.704  35.909  1.00  0.00     0.011 A 
ENDBRANCH   5  18
BRANCH  11  28
HETATM   28  N1  UNK     1      31.182  -2.488  36.739  1.00  0.00    -0.379 N 
HETATM   29  H11 UNK     1      31.756  -1.918  37.346  1.00  0.00     0.158 HD
HETATM   30  H12 UNK     1      30.412  -2.074  36.229  1.00  0.00     0.158 HD
ENDBRANCH  11  28
TORSDOF 2
ENDMDL
MODEL 9
REMARK VINA RESULT:      -8.0     16.477     18.783
REMARK  2 active torsions:
REMARK  status: ('A' for Active; 'I' for Inactive)
REMARK    1  A    between atoms: C11_18  and  N1_6 
REMARK    2  A    between atoms: C1_8  and  C3_10 
ROOT
HETATM    1  O1  UNK     1      29.341  -7.831  35.938  1.00  0.00    -0.269 OA
HETATM    2  O2  UNK     1      28.531  -7.873  33.739  1.00  0.00    -0.286 OA
HETATM    3  O5  UNK     1      30.860  -4.706  32.692  1.00  0.00    -0.287 OA
HETATM    4  N2  UNK     1      32.001  -5.028  38.814  1.00  0.00    -0.191 NA
HETATM    5  C1  UNK     1      31.139  -5.663  35.405  1.00  0.00     0.109 C 
HETATM    6  C2  UNK     1      30.209  -6.260  34.372  1.00  0.00     0.065 A 
HETATM    7  C4  UNK     1      30.849  -6.188  36.804  1.00  0.00     0.086 C 
HETATM    8  C5  UNK     1      29.384  -7.285  34.660  1.00  0.00     0.204 A 
HETATM    9  C6  UNK     1      30.183  -5.677  33.003  1.00  0.00     0.197 A 
HETATM   10  C9  UNK     1      29.292  -6.329  32.033  1.00  0.00     0.049 A 
HETATM   11  C11 UNK     1      29.998  -7.220  37.004  1.00  0.00     0.162 C 
HETATM   12  C13 UNK     1      28.510  -7.399  32.455  1.00  0.00     0.092 A 
HETATM   13  C17 UNK     1      29.225  -5.884  30.710  1.00  0.00     0.018 A 
HETATM   14  C18 UNK     1      27.654  -8.034  31.555  1.00  0.00     0.038 A 
HETATM   15  C19 UNK     1      31.486  -5.547  37.914  1.00  0.00     0.100 C 
HETATM   16  C20 UNK     1      28.370  -6.521  29.811  1.00  0.00     0.001 A 
HETATM   17  C21 UNK     1      27.586  -7.595  30.232  1.00  0.00     0.003 A 
ENDROOT
BRANCH   5  18
HETATM   18  C3  UNK     1      32.564  -5.923  35.040  1.00  0.00    -0.041 A 
HETATM   19  C7  UNK     1      32.984  -7.222  34.753  1.00  0.00     0.047 A 
HETATM   20  C10 UNK     1      34.314  -7.461  34.406  1.00  0.00     0.102 A 
HETATM   21  O3  UNK     1      34.662  -8.754  34.114  1.00  0.00    -0.346 OA
HETATM   22  C12 UNK     1      35.229  -6.405  34.373  1.00  0.00     0.102 A 
HETATM   23  C15 UNK     1      35.924  -8.831  33.448  1.00  0.00     0.202 C 
HETATM   24  C16 UNK     1      36.944  -7.954  34.152  1.00  0.00     0.202 C 
HETATM   25  O4  UNK     1      36.554  -6.581  34.071  1.00  0.00    -0.346 OA
HETATM   26  C14 UNK     1      34.805  -5.105  34.646  1.00  0.00     0.040 A 
HETATM   27  C8  UNK     1      33.472  -4.865  34.981  1.00  0.00     0.011 A 
ENDBRANCH   5  18
BRANCH  11  28
HETATM   28  N1  UNK     1      29.693  -7.764  38.222  1.00  0.00    -0.379 N 
HETATM   29  H11 UNK     1      30.419  -8.126  38.827  1.00  0.00     0.158 HD
HETATM   30  H12 UNK     1      28.724  -7.801  38.511  1.00  0.00     0.158 HD
ENDBRANCH  11  28
TORSDOF 2
ENDMDL
MODEL 10
REMARK VINA RESULT:      -8.0     17.418     19.571
REMARK  2 active torsions:
REMARK  status: ('A' for Active; 'I' for Inactive)
REMARK    1  A    between atoms: C11_18  and  N1_6 
REMARK    2  A    between atoms: C1_8  and  C3_10 
ROOT
HETATM    1  O1  UNK     1      34.470  -7.434  36.040  1.00  0.00    -0.269 OA
HETATM    2  O2  UNK     1      32.440  -7.283  37.202  1.00  0.00    -0.286 OA
HETATM    3  O5  UNK     1      30.484  -6.024  33.864  1.00  0.00    -0.287 OA
HETATM    4  N2  UNK     1      36.359  -6.208  31.781  1.00  0.00    -0.191 NA
HETATM    5  C1  UNK     1      33.285  -6.661  33.547  1.00  0.00     0.109 C 
HETATM    6  C2  UNK     1      32.517  -6.774  34.845  1.00  0.00     0.065 A 
HETATM    7  C4  UNK     1      34.788  -6.782  33.760  1.00  0.00     0.086 C 
HETATM    8  C5  UNK     1      33.109  -7.149  35.995  1.00  0.00     0.204 A 
HETATM    9  C6  UNK     1      31.070  -6.431  34.859  1.00  0.00     0.197 A 
HETATM   10  C9  UNK     1      30.370  -6.604  36.139  1.00  0.00     0.049 A 
HETATM   11  C11 UNK     1      35.299  -7.157  34.955  1.00  0.00     0.162 C 
HETATM   12  C13 UNK     1      31.096  -7.024  37.249  1.00  0.00     0.092 A 
HETATM   13  C17 UNK     1      29.001  -6.349  36.247  1.00  0.00     0.018 A 
HETATM   14  C18 UNK     1      30.457  -7.193  38.477  1.00  0.00     0.038 A 
HETATM   15  C19 UNK     1      35.655  -6.465  32.667  1.00  0.00     0.100 C 
HETATM   16  C20 UNK     1      28.363  -6.520  37.476  1.00  0.00     0.001 A 
HETATM   17  C21 UNK     1      29.089  -6.942  38.589  1.00  0.00     0.003 A 
ENDROOT
BRANCH   5  18
HETATM   18  C3  UNK     1      32.818  -7.691  32.570  1.00  0.00    -0.041 A 
HETATM   19  C7  UNK     1      32.335  -7.297  31.321  1.00  0.00     0.047 A 
HETATM   20  C10 UNK     1      31.906  -8.262  30.409  1.00  0.00     0.102 A 
HETATM   21  O3  UNK     1      31.462  -7.816  29.190  1.00  0.00    -0.346 OA
HETATM   22  C12 UNK     1      31.933  -9.616  30.755  1.00  0.00     0.102 A 
HETATM   23  C15 UNK     1      31.382  -8.874  28.232  1.00  0.00     0.202 C 
HETATM   24  C16 UNK     1      30.705 -10.087  28.842  1.00  0.00     0.202 C 
HETATM   25  O4  UNK     1      31.495 -10.606  29.915  1.00  0.00    -0.346 OA
HETATM   26  C14 UNK     1      32.429 -10.008  31.998  1.00  0.00     0.040 A 
HETATM   27  C8  UNK     1      32.870  -9.044  32.906  1.00  0.00     0.011 A 
ENDBRANCH   5  18
BRANCH  11  28
HETATM   28  N1  UNK     1      36.631  -7.307  35.228  1.00  0.00    -0.379 N 
HETATM   29  H11 UNK     1      37.038  -8.224  35.354  1.00  0.00     0.158 HD
HETATM   30  H12 UNK     1      37.209  -6.479  35.306  1.00  0.00     0.158 HD
ENDBRANCH  11  28
TORSDOF 2
ENDMDL
