MODEL 1
REMARK VINA RESULT:      -8.5      0.000      0.000
REMARK  1 active torsions:
REMARK  status: ('A' for Active; 'I' for Inactive)
REMARK    1  A    between atoms: C1_5  and  C5_9 
ROOT
HETATM    1  O1  UNK     1      17.343   9.075  32.896  1.00  0.00    -0.315 OA
HETATM    2  O2  UNK     1      13.908   7.115  31.174  1.00  0.00    -0.247 OA
HETATM    3  N1  UNK     1      16.106   7.426  31.767  1.00  0.00    -0.306 N 
HETATM    4  N2  UNK     1      14.425   7.303  33.405  1.00  0.00    -0.334 N 
HETATM    5  C1  UNK     1      17.158   7.646  32.776  1.00  0.00     0.174 C 
HETATM    6  C2  UNK     1      16.735   7.014  34.113  1.00  0.00     0.097 C 
HETATM    7  C3  UNK     1      15.383   7.627  34.455  1.00  0.00     0.127 C 
HETATM    8  C4  UNK     1      15.552   9.119  34.549  1.00  0.00    -0.002 A 
HETATM    9  C6  UNK     1      16.514   9.753  33.752  1.00  0.00     0.080 A 
HETATM   10  C7  UNK     1      14.755   7.277  32.055  1.00  0.00     0.319 C 
HETATM   11  C8  UNK     1      14.738   9.888  35.388  1.00  0.00     0.012 A 
HETATM   12  C9  UNK     1      16.674  11.139  33.810  1.00  0.00     0.037 A 
HETATM   13  C12 UNK     1      14.897  11.273  35.443  1.00  0.00     0.001 A 
HETATM   14  C13 UNK     1      15.865  11.897  34.656  1.00  0.00     0.003 A 
HETATM   15  H4  UNK     1      16.367   7.473  30.786  1.00  0.00     0.167 HD
HETATM   16  H5  UNK     1      13.448   7.197  33.660  1.00  0.00     0.165 HD
ENDROOT
BRANCH   5  17
HETATM   17  C5  UNK     1      18.479   7.018  32.327  1.00  0.00    -0.003 A 
HETATM   18  C10 UNK     1      18.582   6.437  31.064  1.00  0.00     0.012 A 
HETATM   19  C14 UNK     1      19.786   5.864  30.654  1.00  0.00     0.001 A 
HETATM   20  C16 UNK     1      20.889   5.874  31.508  1.00  0.00     0.000 A 
HETATM   21  C15 UNK     1      20.787   6.456  32.772  1.00  0.00     0.001 A 
HETATM   22  C11 UNK     1      19.582   7.028  33.181  1.00  0.00     0.012 A 
ENDBRANCH   5  17
TORSDOF 1
ENDMDL
MODEL 2
REMARK VINA RESULT:      -7.8      7.942      9.779
REMARK  1 active torsions:
REMARK  status: ('A' for Active; 'I' for Inactive)
REMARK    1  A    between atoms: C1_5  and  C5_9 
ROOT
HETATM    1  O1  UNK     1      19.845  -1.158  33.887  1.00  0.00    -0.315 OA
HETATM    2  O2  UNK     1      18.161   2.739  34.651  1.00  0.00    -0.247 OA
HETATM    3  N1  UNK     1      18.960   0.969  33.423  1.00  0.00    -0.306 N 
HETATM    4  N2  UNK     1      17.102   0.709  34.837  1.00  0.00    -0.334 N 
HETATM    5  C1  UNK     1      18.929  -0.449  33.021  1.00  0.00     0.174 C 
HETATM    6  C2  UNK     1      17.496  -0.993  33.143  1.00  0.00     0.097 C 
HETATM    7  C3  UNK     1      17.069  -0.726  34.581  1.00  0.00     0.127 C 
HETATM    8  C4  UNK     1      18.034  -1.430  35.497  1.00  0.00    -0.002 A 
HETATM    9  C6  UNK     1      19.367  -1.591  35.098  1.00  0.00     0.080 A 
HETATM   10  C7  UNK     1      18.083   1.551  34.330  1.00  0.00     0.319 C 
HETATM   11  C8  UNK     1      17.632  -1.890  36.756  1.00  0.00     0.012 A 
HETATM   12  C9  UNK     1      20.282  -2.223  35.941  1.00  0.00     0.037 A 
HETATM   13  C12 UNK     1      18.548  -2.520  37.597  1.00  0.00     0.001 A 
HETATM   14  C13 UNK     1      19.872  -2.688  37.190  1.00  0.00     0.003 A 
HETATM   15  H4  UNK     1      19.725   1.546  33.084  1.00  0.00     0.167 HD
HETATM   16  H5  UNK     1      16.439   1.094  35.504  1.00  0.00     0.165 HD
ENDROOT
BRANCH   5  17
HETATM   17  C5  UNK     1      19.400  -0.613  31.574  1.00  0.00    -0.003 A 
HETATM   18  C10 UNK     1      19.296   0.453  30.682  1.00  0.00     0.012 A 
HETATM   19  C14 UNK     1      19.724   0.305  29.363  1.00  0.00     0.001 A 
HETATM   20  C16 UNK     1      20.260  -0.911  28.937  1.00  0.00     0.000 A 
HETATM   21  C15 UNK     1      20.366  -1.978  29.830  1.00  0.00     0.001 A 
HETATM   22  C11 UNK     1      19.936  -1.829  31.148  1.00  0.00     0.012 A 
ENDBRANCH   5  17
TORSDOF 1
ENDMDL
MODEL 3
REMARK VINA RESULT:      -7.7     22.672     24.475
REMARK  1 active torsions:
REMARK  status: ('A' for Active; 'I' for Inactive)
REMARK    1  A    between atoms: C1_5  and  C5_9 
ROOT
HETATM    1  O1  UNK     1      11.961   8.020  10.064  1.00  0.00    -0.315 OA
HETATM    2  O2  UNK     1      14.862   4.846  10.394  1.00  0.00    -0.247 OA
HETATM    3  N1  UNK     1      13.071   6.012   9.554  1.00  0.00    -0.306 N 
HETATM    4  N2  UNK     1      15.215   6.971   9.595  1.00  0.00    -0.334 N 
HETATM    5  C1  UNK     1      12.472   7.226   8.968  1.00  0.00     0.174 C 
HETATM    6  C2  UNK     1      13.535   7.991   8.161  1.00  0.00     0.097 C 
HETATM    7  C3  UNK     1      14.688   8.246   9.123  1.00  0.00     0.127 C 
HETATM    8  C4  UNK     1      14.163   9.043  10.287  1.00  0.00    -0.002 A 
HETATM    9  C6  UNK     1      12.834   8.870  10.694  1.00  0.00     0.080 A 
HETATM   10  C7  UNK     1      14.412   5.875   9.888  1.00  0.00     0.319 C 
HETATM   11  C8  UNK     1      14.990   9.922  10.994  1.00  0.00     0.012 A 
HETATM   12  C9  UNK     1      12.333   9.585  11.783  1.00  0.00     0.037 A 
HETATM   13  C12 UNK     1      14.489  10.634  12.083  1.00  0.00     0.001 A 
HETATM   14  C13 UNK     1      13.160  10.466  12.477  1.00  0.00     0.003 A 
HETATM   15  H4  UNK     1      12.450   5.250   9.813  1.00  0.00     0.167 HD
HETATM   16  H5  UNK     1      16.204   6.914   9.822  1.00  0.00     0.165 HD
ENDROOT
BRANCH   5  17
HETATM   17  C5  UNK     1      11.310   6.865   8.042  1.00  0.00    -0.003 A 
HETATM   18  C10 UNK     1      11.554   6.549   6.706  1.00  0.00     0.012 A 
HETATM   19  C14 UNK     1      10.495   6.220   5.861  1.00  0.00     0.001 A 
HETATM   20  C16 UNK     1       9.189   6.206   6.353  1.00  0.00     0.000 A 
HETATM   21  C15 UNK     1       8.944   6.522   7.689  1.00  0.00     0.001 A 
HETATM   22  C11 UNK     1      10.004   6.851   8.533  1.00  0.00     0.012 A 
ENDBRANCH   5  17
TORSDOF 1
ENDMDL
MODEL 4
REMARK VINA RESULT:      -7.6     18.870     20.784
REMARK  1 active torsions:
REMARK  status: ('A' for Active; 'I' for Inactive)
REMARK    1  A    between atoms: C1_5  and  C5_9 
ROOT
HETATM    1  O1  UNK     1      31.069  -7.179  38.036  1.00  0.00    -0.315 OA
HETATM    2  O2  UNK     1      29.506  -3.691  40.035  1.00  0.00    -0.247 OA
HETATM    3  N1  UNK     1      30.872  -4.921  38.658  1.00  0.00    -0.306 N 
HETATM    4  N2  UNK     1      28.555  -4.826  38.278  1.00  0.00    -0.334 N 
HETATM    5  C1  UNK     1      31.084  -5.830  37.516  1.00  0.00     0.174 C 
HETATM    6  C2  UNK     1      29.979  -5.613  36.468  1.00  0.00     0.097 C 
HETATM    7  C3  UNK     1      28.660  -5.808  37.205  1.00  0.00     0.127 C 
HETATM    8  C4  UNK     1      28.644  -7.198  37.782  1.00  0.00    -0.002 A 
HETATM    9  C6  UNK     1      29.850  -7.793  38.175  1.00  0.00     0.080 A 
HETATM   10  C7  UNK     1      29.635  -4.434  39.060  1.00  0.00     0.319 C 
HETATM   11  C8  UNK     1      27.442  -7.889  37.971  1.00  0.00     0.012 A 
HETATM   12  C9  UNK     1      29.854  -9.073  38.731  1.00  0.00     0.037 A 
HETATM   13  C12 UNK     1      27.449  -9.167  38.529  1.00  0.00     0.001 A 
HETATM   14  C13 UNK     1      28.654  -9.759  38.907  1.00  0.00     0.003 A 
HETATM   15  H4  UNK     1      31.670  -4.700  39.248  1.00  0.00     0.167 HD
HETATM   16  H5  UNK     1      27.631  -4.492  38.536  1.00  0.00     0.165 HD
ENDROOT
BRANCH   5  17
HETATM   17  C5  UNK     1      32.444  -5.573  36.863  1.00  0.00    -0.003 A 
HETATM   18  C10 UNK     1      33.596  -6.140  37.405  1.00  0.00     0.012 A 
HETATM   19  C14 UNK     1      34.836  -5.906  36.811  1.00  0.00     0.001 A 
HETATM   20  C16 UNK     1      34.923  -5.105  35.672  1.00  0.00     0.000 A 
HETATM   21  C15 UNK     1      33.770  -4.538  35.129  1.00  0.00     0.001 A 
HETATM   22  C11 UNK     1      32.531  -4.772  35.724  1.00  0.00     0.012 A 
ENDBRANCH   5  17
TORSDOF 1
ENDMDL
MODEL 5
REMARK VINA RESULT:      -7.6     16.260     18.592
REMARK  1 active torsions:
REMARK  status: ('A' for Active; 'I' for Inactive)
REMARK    1  A    between atoms: C1_5  and  C5_9 
ROOT
HETATM    1  O1  UNK     1      22.803  -8.291  37.109  1.00  0.00    -0.315 OA
HETATM    2  O2  UNK     1      19.777 -10.784  38.908  1.00  0.00    -0.247 OA
HETATM    3  N1  UNK     1      20.694  -8.913  37.942  1.00  0.00    -0.306 N 
HETATM    4  N2  UNK     1      20.633 -10.956  36.783  1.00  0.00    -0.334 N 
HETATM    5  C1  UNK     1      21.385  -8.233  36.830  1.00  0.00     0.174 C 
HETATM    6  C2  UNK     1      21.038  -8.927  35.502  1.00  0.00     0.097 C 
HETATM    7  C3  UNK     1      21.411 -10.392  35.686  1.00  0.00     0.127 C 
HETATM    8  C4  UNK     1      22.879 -10.467  36.011  1.00  0.00    -0.002 A 
HETATM    9  C6  UNK     1      23.481  -9.417  36.715  1.00  0.00     0.080 A 
HETATM   10  C7  UNK     1      20.336 -10.255  37.946  1.00  0.00     0.319 C 
HETATM   11  C8  UNK     1      23.642 -11.586  35.659  1.00  0.00     0.012 A 
HETATM   12  C9  UNK     1      24.837  -9.475  37.044  1.00  0.00     0.037 A 
HETATM   13  C12 UNK     1      24.996 -11.644  35.989  1.00  0.00     0.001 A 
HETATM   14  C13 UNK     1      25.593 -10.589  36.680  1.00  0.00     0.003 A 
HETATM   15  H4  UNK     1      20.545  -8.392  38.802  1.00  0.00     0.167 HD
HETATM   16  H5  UNK     1      20.387 -11.941  36.742  1.00  0.00     0.165 HD
ENDROOT
BRANCH   5  17
HETATM   17  C5  UNK     1      20.963  -6.764  36.747  1.00  0.00    -0.003 A 
HETATM   18  C10 UNK     1      20.141  -6.332  35.707  1.00  0.00     0.012 A 
HETATM   19  C14 UNK     1      19.757  -4.993  35.631  1.00  0.00     0.001 A 
HETATM   20  C16 UNK     1      20.194  -4.086  36.597  1.00  0.00     0.000 A 
HETATM   21  C15 UNK     1      21.016  -4.519  37.638  1.00  0.00     0.001 A 
HETATM   22  C11 UNK     1      21.401  -5.857  37.713  1.00  0.00     0.012 A 
ENDBRANCH   5  17
TORSDOF 1
ENDMDL
MODEL 6
REMARK VINA RESULT:      -7.6     23.426     24.943
REMARK  1 active torsions:
REMARK  status: ('A' for Active; 'I' for Inactive)
REMARK    1  A    between atoms: C1_5  and  C5_9 
ROOT
HETATM    1  O1  UNK     1      13.571   7.646   7.670  1.00  0.00    -0.315 OA
HETATM    2  O2  UNK     1      15.213   4.135   9.561  1.00  0.00    -0.247 OA
HETATM    3  N1  UNK     1      15.018   6.352   8.996  1.00  0.00    -0.306 N 
HETATM    4  N2  UNK     1      13.285   5.246  10.134  1.00  0.00    -0.334 N 
HETATM    5  C1  UNK     1      14.258   7.616   8.942  1.00  0.00     0.174 C 
HETATM    6  C2  UNK     1      13.273   7.679  10.121  1.00  0.00     0.097 C 
HETATM    7  C3  UNK     1      12.424   6.418  10.026  1.00  0.00     0.127 C 
HETATM    8  C4  UNK     1      11.729   6.419   8.691  1.00  0.00    -0.002 A 
HETATM    9  C6  UNK     1      12.352   7.022   7.591  1.00  0.00     0.080 A 
HETATM   10  C7  UNK     1      14.548   5.173   9.558  1.00  0.00     0.319 C 
HETATM   11  C8  UNK     1      10.489   5.791   8.521  1.00  0.00     0.012 A 
HETATM   12  C9  UNK     1      11.732   7.016   6.341  1.00  0.00     0.037 A 
HETATM   13  C12 UNK     1       9.873   5.785   7.270  1.00  0.00     0.001 A 
HETATM   14  C13 UNK     1      10.493   6.398   6.181  1.00  0.00     0.003 A 
HETATM   15  H4  UNK     1      15.911   6.311   8.514  1.00  0.00     0.167 HD
HETATM   16  H5  UNK     1      12.903   4.406  10.558  1.00  0.00     0.165 HD
ENDROOT
BRANCH   5  17
HETATM   17  C5  UNK     1      15.201   8.818   9.017  1.00  0.00    -0.003 A 
HETATM   18  C10 UNK     1      14.919   9.972   8.286  1.00  0.00     0.012 A 
HETATM   19  C14 UNK     1      15.779  11.069   8.354  1.00  0.00     0.001 A 
HETATM   20  C16 UNK     1      16.920  11.012   9.155  1.00  0.00     0.000 A 
HETATM   21  C15 UNK     1      17.201   9.858   9.887  1.00  0.00     0.001 A 
HETATM   22  C11 UNK     1      16.342   8.762   9.818  1.00  0.00     0.012 A 
ENDBRANCH   5  17
TORSDOF 1
ENDMDL
MODEL 7
REMARK VINA RESULT:      -7.5     18.412     20.100
REMARK  1 active torsions:
REMARK  status: ('A' for Active; 'I' for Inactive)
REMARK    1  A    between atoms: C1_5  and  C5_9 
ROOT
HETATM    1  O1  UNK     1      28.094  -6.802  35.473  1.00  0.00    -0.315 OA
HETATM    2  O2  UNK     1      30.083  -3.680  37.687  1.00  0.00    -0.247 OA
HETATM    3  N1  UNK     1      29.015  -5.681  37.322  1.00  0.00    -0.306 N 
HETATM    4  N2  UNK     1      31.046  -5.189  36.247  1.00  0.00    -0.334 N 
HETATM    5  C1  UNK     1      28.908  -6.991  36.653  1.00  0.00     0.174 C 
HETATM    6  C2  UNK     1      30.312  -7.509  36.299  1.00  0.00     0.097 C 
HETATM    7  C3  UNK     1      30.962  -6.414  35.461  1.00  0.00     0.127 C 
HETATM    8  C4  UNK     1      30.107  -6.182  34.244  1.00  0.00    -0.002 A 
HETATM    9  C6  UNK     1      28.723  -6.377  34.330  1.00  0.00     0.080 A 
HETATM   10  C7  UNK     1      30.047  -4.773  37.119  1.00  0.00     0.319 C 
HETATM   11  C8  UNK     1      30.666  -5.735  33.042  1.00  0.00     0.012 A 
HETATM   12  C9  UNK     1      27.910  -6.149  33.218  1.00  0.00     0.037 A 
HETATM   13  C12 UNK     1      29.852  -5.505  31.933  1.00  0.00     0.001 A 
HETATM   14  C13 UNK     1      28.475  -5.713  32.021  1.00  0.00     0.003 A 
HETATM   15  H4  UNK     1      28.241  -5.377  37.907  1.00  0.00     0.167 HD
HETATM   16  H5  UNK     1      31.821  -4.556  36.071  1.00  0.00     0.165 HD
ENDROOT
BRANCH   5  17
HETATM   17  C5  UNK     1      28.219  -8.009  37.564  1.00  0.00    -0.003 A 
HETATM   18  C10 UNK     1      28.252  -7.843  38.948  1.00  0.00     0.012 A 
HETATM   19  C14 UNK     1      27.625  -8.771  39.778  1.00  0.00     0.001 A 
HETATM   20  C16 UNK     1      26.962  -9.867  39.223  1.00  0.00     0.000 A 
HETATM   21  C15 UNK     1      26.929 -10.034  37.839  1.00  0.00     0.001 A 
HETATM   22  C11 UNK     1      27.557  -9.105  37.009  1.00  0.00     0.012 A 
ENDBRANCH   5  17
TORSDOF 1
ENDMDL
MODEL 8
REMARK VINA RESULT:      -7.5     18.465     20.566
REMARK  1 active torsions:
REMARK  status: ('A' for Active; 'I' for Inactive)
REMARK    1  A    between atoms: C1_5  and  C5_9 
ROOT
HETATM    1  O1  UNK     1      31.367  -7.294  31.259  1.00  0.00    -0.315 OA
HETATM    2  O2  UNK     1      30.202  -3.347  29.964  1.00  0.00    -0.247 OA
HETATM    3  N1  UNK     1      30.218  -5.643  30.042  1.00  0.00    -0.306 N 
HETATM    4  N2  UNK     1      29.644  -4.381  31.939  1.00  0.00    -0.334 N 
HETATM    5  C1  UNK     1      30.060  -6.918  30.767  1.00  0.00     0.174 C 
HETATM    6  C2  UNK     1      29.050  -6.741  31.914  1.00  0.00     0.097 C 
HETATM    7  C3  UNK     1      29.575  -5.586  32.757  1.00  0.00     0.127 C 
HETATM    8  C4  UNK     1      30.950  -5.948  33.249  1.00  0.00    -0.002 A 
HETATM    9  C6  UNK     1      31.767  -6.770  32.462  1.00  0.00     0.080 A 
HETATM   10  C7  UNK     1      30.039  -4.387  30.607  1.00  0.00     0.319 C 
HETATM   11  C8  UNK     1      31.442  -5.446  34.459  1.00  0.00     0.012 A 
HETATM   12  C9  UNK     1      33.053  -7.102  32.890  1.00  0.00     0.037 A 
HETATM   13  C12 UNK     1      32.728  -5.777  34.885  1.00  0.00     0.001 A 
HETATM   14  C13 UNK     1      33.532  -6.605  34.102  1.00  0.00     0.003 A 
HETATM   15  H4  UNK     1      30.566  -5.676  29.088  1.00  0.00     0.167 HD
HETATM   16  H5  UNK     1      29.501  -3.483  32.392  1.00  0.00     0.165 HD
ENDROOT
BRANCH   5  17
HETATM   17  C5  UNK     1      29.557  -8.016  29.828  1.00  0.00    -0.003 A 
HETATM   18  C10 UNK     1      30.421  -8.586  28.894  1.00  0.00     0.012 A 
HETATM   19  C14 UNK     1      29.962  -9.587  28.038  1.00  0.00     0.001 A 
HETATM   20  C16 UNK     1      28.638 -10.020  28.117  1.00  0.00     0.000 A 
HETATM   21  C15 UNK     1      27.773  -9.451  29.053  1.00  0.00     0.001 A 
HETATM   22  C11 UNK     1      28.232  -8.449  29.908  1.00  0.00     0.012 A 
ENDBRANCH   5  17
TORSDOF 1
ENDMDL
MODEL 9
REMARK VINA RESULT:      -7.4      2.034      5.988
REMARK  1 active torsions:
REMARK  status: ('A' for Active; 'I' for Inactive)
REMARK    1  A    between atoms: C1_5  and  C5_9 
ROOT
HETATM    1  O1  UNK     1      17.109   8.463  32.274  1.00  0.00    -0.315 OA
HETATM    2  O2  UNK     1      20.431   9.961  34.582  1.00  0.00    -0.247 OA
HETATM    3  N1  UNK     1      18.248   9.702  33.915  1.00  0.00    -0.306 N 
HETATM    4  N2  UNK     1      19.489   7.868  34.702  1.00  0.00    -0.334 N 
HETATM    5  C1  UNK     1      17.059   8.866  33.662  1.00  0.00     0.174 C 
HETATM    6  C2  UNK     1      17.067   7.653  34.607  1.00  0.00     0.097 C 
HETATM    7  C3  UNK     1      18.401   6.953  34.378  1.00  0.00     0.127 C 
HETATM    8  C4  UNK     1      18.483   6.557  32.928  1.00  0.00    -0.002 A 
HETATM    9  C6  UNK     1      17.842   7.345  31.963  1.00  0.00     0.080 A 
HETATM   10  C7  UNK     1      19.457   9.226  34.406  1.00  0.00     0.319 C 
HETATM   11  C8  UNK     1      19.221   5.440  32.524  1.00  0.00     0.012 A 
HETATM   12  C9  UNK     1      17.922   7.007  30.612  1.00  0.00     0.037 A 
HETATM   13  C12 UNK     1      19.301   5.104  31.173  1.00  0.00     0.001 A 
HETATM   14  C13 UNK     1      18.651   5.886  30.218  1.00  0.00     0.003 A 
HETATM   15  H4  UNK     1      18.216  10.677  33.632  1.00  0.00     0.167 HD
HETATM   16  H5  UNK     1      20.354   7.478  35.065  1.00  0.00     0.165 HD
ENDROOT
BRANCH   5  17
HETATM   17  C5  UNK     1      15.776   9.666  33.892  1.00  0.00    -0.003 A 
HETATM   18  C10 UNK     1      15.472  10.147  35.165  1.00  0.00     0.012 A 
HETATM   19  C14 UNK     1      14.302  10.876  35.376  1.00  0.00     0.001 A 
HETATM   20  C16 UNK     1      13.435  11.125  34.312  1.00  0.00     0.000 A 
HETATM   21  C15 UNK     1      13.738  10.645  33.038  1.00  0.00     0.001 A 
HETATM   22  C11 UNK     1      14.908   9.915  32.828  1.00  0.00     0.012 A 
ENDBRANCH   5  17
TORSDOF 1
ENDMDL
MODEL 10
REMARK VINA RESULT:      -7.4      3.651      4.977
REMARK  1 active torsions:
REMARK  status: ('A' for Active; 'I' for Inactive)
REMARK    1  A    between atoms: C1_5  and  C5_9 
ROOT
HETATM    1  O1  UNK     1      17.422   5.483  34.173  1.00  0.00    -0.315 OA
HETATM    2  O2  UNK     1      21.312   6.855  32.914  1.00  0.00    -0.247 OA
HETATM    3  N1  UNK     1      19.710   5.381  33.645  1.00  0.00    -0.306 N 
HETATM    4  N2  UNK     1      19.474   6.486  31.585  1.00  0.00    -0.334 N 
HETATM    5  C1  UNK     1      18.418   4.687  33.490  1.00  0.00     0.174 C 
HETATM    6  C2  UNK     1      18.091   4.527  31.996  1.00  0.00     0.097 C 
HETATM    7  C3  UNK     1      18.138   5.930  31.405  1.00  0.00     0.127 C 
HETATM    8  C4  UNK     1      17.130   6.780  32.129  1.00  0.00    -0.002 A 
HETATM    9  C6  UNK     1      16.843   6.512  33.474  1.00  0.00     0.080 A 
HETATM   10  C7  UNK     1      20.235   6.284  32.730  1.00  0.00     0.319 C 
HETATM   11  C8  UNK     1      16.504   7.859  31.495  1.00  0.00     0.012 A 
HETATM   12  C9  UNK     1      15.926   7.301  34.169  1.00  0.00     0.037 A 
HETATM   13  C12 UNK     1      15.589   8.648  32.191  1.00  0.00     0.001 A 
HETATM   14  C13 UNK     1      15.299   8.368  33.527  1.00  0.00     0.003 A 
HETATM   15  H4  UNK     1      20.215   5.261  34.519  1.00  0.00     0.167 HD
HETATM   16  H5  UNK     1      19.822   7.139  30.889  1.00  0.00     0.165 HD
ENDROOT
BRANCH   5  17
HETATM   17  C5  UNK     1      18.465   3.302  34.139  1.00  0.00    -0.003 A 
HETATM   18  C10 UNK     1      18.942   3.157  35.441  1.00  0.00     0.012 A 
HETATM   19  C14 UNK     1      18.986   1.895  36.033  1.00  0.00     0.001 A 
HETATM   20  C16 UNK     1      18.550   0.777  35.322  1.00  0.00     0.000 A 
HETATM   21  C15 UNK     1      18.072   0.921  34.019  1.00  0.00     0.001 A 
HETATM   22  C11 UNK     1      18.029   2.183  33.428  1.00  0.00     0.012 A 
ENDBRANCH   5  17
TORSDOF 1
ENDMDL
