MODEL 1
REMARK VINA RESULT:      -9.0      0.000      0.000
REMARK  7 active torsions:
REMARK  status: ('A' for Active; 'I' for Inactive)
REMARK    1  A    between atoms: C17_24  and  O3_3 
REMARK    2  A    between atoms: C24_31  and  O3_3 
REMARK    3  A    between atoms: C5_12  and  N1_5 
REMARK    4  A    between atoms: C6_13  and  N2_6 
REMARK    5  A    between atoms: C14_21  and  N3_7 
REMARK       I    between atoms: C8_15  and  N3_7 
REMARK    6  A    between atoms: C5_12  and  C7_14 
REMARK    7  A    between atoms: C6_13  and  C8_15 
ROOT
HETATM    1  N1  UNK     1      18.752   3.132  31.143  1.00  0.00     0.096 N 
HETATM    2  N2  UNK     1      18.761   5.884  32.030  1.00  0.00     0.100 N 
HETATM    3  C1  UNK     1      19.005   4.234  30.207  1.00  0.00     0.303 C 
HETATM    4  C2  UNK     1      17.890   3.581  32.243  1.00  0.00     0.303 C 
HETATM    5  C3  UNK     1      19.623   5.435  30.930  1.00  0.00     0.303 C 
HETATM    6  C4  UNK     1      18.511   4.782  32.967  1.00  0.00     0.303 C 
ENDROOT
BRANCH   1   7
HETATM    7  C5  UNK     1      18.158   1.990  30.453  1.00  0.00     0.312 C 
BRANCH   7   8
HETATM    8  C7  UNK     1      19.076   0.817  30.414  1.00  0.00    -0.011 A 
HETATM    9  C10 UNK     1      19.821   0.556  29.331  1.00  0.00     0.092 A 
HETATM   10  C13 UNK     1      20.741  -0.590  29.245  1.00  0.00     0.288 A 
HETATM   11  O1  UNK     1      20.814  -1.415  30.357  1.00  0.00    -0.275 OA
HETATM   12  O4  UNK     1      21.408  -0.797  28.237  1.00  0.00    -0.260 OA
HETATM   13  C11 UNK     1      20.042  -1.168  31.510  1.00  0.00     0.090 A 
HETATM   14  C9  UNK     1      19.174  -0.077  31.576  1.00  0.00     0.009 A 
HETATM   15  C15 UNK     1      20.195  -2.065  32.568  1.00  0.00     0.041 A 
HETATM   16  C12 UNK     1      18.442   0.100  32.758  1.00  0.00     0.051 A 
HETATM   17  C17 UNK     1      18.583  -0.792  33.828  1.00  0.00     0.069 A 
HETATM   18  C18 UNK     1      19.459  -1.872  33.733  1.00  0.00     0.039 A 
BRANCH  17  19
HETATM   19  O3  UNK     1      17.862  -0.602  34.966  1.00  0.00    -0.351 OA
BRANCH  19  20
HETATM   20  C24 UNK     1      17.042   0.564  35.029  1.00  0.00     0.171 C 
HETATM   21  C26 UNK     1      15.713   0.198  35.656  1.00  0.00     0.034 C 
ENDBRANCH  19  20
ENDBRANCH  17  19
ENDBRANCH   7   8
ENDBRANCH   1   7
BRANCH   2  22
HETATM   22  C6  UNK     1      19.353   7.028  32.720  1.00  0.00     0.375 C 
BRANCH  22  23
HETATM   23  C8  UNK     1      18.277   8.071  32.990  1.00  0.00     0.252 C 
HETATM   24  O2  UNK     1      17.190   7.998  32.408  1.00  0.00    -0.271 OA
HETATM   25  N3  UNK     1      18.637   9.099  33.891  1.00  0.00    -0.321 N 
HETATM   26  C16 UNK     1      19.949   9.133  34.556  1.00  0.00     0.159 C 
BRANCH  25  27
HETATM   27  C14 UNK     1      17.765  10.234  34.125  1.00  0.00     0.037 A 
HETATM   28  C19 UNK     1      16.432  10.028  34.480  1.00  0.00     0.036 A 
HETATM   29  C21 UNK     1      15.594  11.121  34.704  1.00  0.00    -0.060 A 
HETATM   30  C23 UNK     1      16.089  12.418  34.574  1.00  0.00     0.007 A 
HETATM   31  C25 UNK     1      14.169  10.901  35.084  1.00  0.00     0.048 C 
HETATM   32  C22 UNK     1      17.423  12.623  34.218  1.00  0.00     0.003 A 
HETATM   33  C20 UNK     1      18.260  11.530  33.993  1.00  0.00     0.030 A 
ENDBRANCH  25  27
ENDBRANCH  22  23
ENDBRANCH   2  22
TORSDOF 7
ENDMDL
MODEL 2
REMARK VINA RESULT:      -8.9      7.527     14.581
REMARK  7 active torsions:
REMARK  status: ('A' for Active; 'I' for Inactive)
REMARK    1  A    between atoms: C17_24  and  O3_3 
REMARK    2  A    between atoms: C24_31  and  O3_3 
REMARK    3  A    between atoms: C5_12  and  N1_5 
REMARK    4  A    between atoms: C6_13  and  N2_6 
REMARK    5  A    between atoms: C14_21  and  N3_7 
REMARK       I    between atoms: C8_15  and  N3_7 
REMARK    6  A    between atoms: C5_12  and  C7_14 
REMARK    7  A    between atoms: C6_13  and  C8_15 
ROOT
HETATM    1  N1  UNK     1      20.124  -4.213  36.955  1.00  0.00     0.096 N 
HETATM    2  N2  UNK     1      20.230  -7.100  36.846  1.00  0.00     0.100 N 
HETATM    3  C1  UNK     1      19.733  -4.944  35.744  1.00  0.00     0.303 C 
HETATM    4  C2  UNK     1      21.133  -4.967  37.707  1.00  0.00     0.303 C 
HETATM    5  C3  UNK     1      19.220  -6.345  36.094  1.00  0.00     0.303 C 
HETATM    6  C4  UNK     1      20.618  -6.368  38.058  1.00  0.00     0.303 C 
ENDROOT
BRANCH   1   7
HETATM    7  C5  UNK     1      20.617  -2.879  36.620  1.00  0.00     0.312 C 
BRANCH   7   8
HETATM    8  C7  UNK     1      19.520  -1.963  36.196  1.00  0.00    -0.011 A 
HETATM    9  C10 UNK     1      18.672  -1.438  37.092  1.00  0.00     0.092 A 
HETATM   10  C13 UNK     1      17.574  -0.530  36.723  1.00  0.00     0.288 A 
HETATM   11  O1  UNK     1      17.443  -0.227  35.376  1.00  0.00    -0.275 OA
HETATM   12  O4  UNK     1      16.818  -0.068  37.571  1.00  0.00    -0.260 OA
HETATM   13  C11 UNK     1      18.317  -0.765  34.411  1.00  0.00     0.090 A 
HETATM   14  C9  UNK     1      19.354  -1.625  34.776  1.00  0.00     0.009 A 
HETATM   15  C15 UNK     1      18.090  -0.392  33.085  1.00  0.00     0.041 A 
HETATM   16  C12 UNK     1      20.180  -2.117  33.758  1.00  0.00     0.051 A 
HETATM   17  C17 UNK     1      19.964  -1.754  32.423  1.00  0.00     0.069 A 
HETATM   18  C18 UNK     1      18.921  -0.892  32.088  1.00  0.00     0.039 A 
BRANCH  17  19
HETATM   19  O3  UNK     1      20.777  -2.244  31.448  1.00  0.00    -0.351 OA
BRANCH  19  20
HETATM   20  C24 UNK     1      20.262  -2.254  30.117  1.00  0.00     0.171 C 
HETATM   21  C26 UNK     1      20.879  -1.110  29.341  1.00  0.00     0.034 C 
ENDBRANCH  19  20
ENDBRANCH  17  19
ENDBRANCH   7   8
ENDBRANCH   1   7
BRANCH   2  22
HETATM   22  C6  UNK     1      19.739  -8.434  37.180  1.00  0.00     0.375 C 
BRANCH  22  23
HETATM   23  C8  UNK     1      20.915  -9.395  37.294  1.00  0.00     0.252 C 
HETATM   24  O2  UNK     1      21.147  -9.958  38.367  1.00  0.00    -0.271 OA
HETATM   25  N3  UNK     1      21.698  -9.540  36.125  1.00  0.00    -0.321 N 
HETATM   26  C16 UNK     1      21.371  -8.843  34.872  1.00  0.00     0.159 C 
BRANCH  25  27
HETATM   27  C14 UNK     1      22.929 -10.306  36.136  1.00  0.00     0.037 A 
HETATM   28  C19 UNK     1      24.115  -9.717  36.575  1.00  0.00     0.036 A 
HETATM   29  C21 UNK     1      25.298 -10.456  36.583  1.00  0.00    -0.060 A 
HETATM   30  C23 UNK     1      25.295 -11.783  36.154  1.00  0.00     0.007 A 
HETATM   31  C25 UNK     1      26.566  -9.826  37.053  1.00  0.00     0.048 C 
HETATM   32  C22 UNK     1      24.109 -12.371  35.715  1.00  0.00     0.003 A 
HETATM   33  C20 UNK     1      22.926 -11.632  35.705  1.00  0.00     0.030 A 
ENDBRANCH  25  27
ENDBRANCH  22  23
ENDBRANCH   2  22
TORSDOF 7
ENDMDL
MODEL 3
REMARK VINA RESULT:      -8.7      5.467     12.468
REMARK  7 active torsions:
REMARK  status: ('A' for Active; 'I' for Inactive)
REMARK    1  A    between atoms: C17_24  and  O3_3 
REMARK    2  A    between atoms: C24_31  and  O3_3 
REMARK    3  A    between atoms: C5_12  and  N1_5 
REMARK    4  A    between atoms: C6_13  and  N2_6 
REMARK    5  A    between atoms: C14_21  and  N3_7 
REMARK       I    between atoms: C8_15  and  N3_7 
REMARK    6  A    between atoms: C5_12  and  C7_14 
REMARK    7  A    between atoms: C6_13  and  C8_15 
ROOT
HETATM    1  N1  UNK     1      18.961  -0.973  35.196  1.00  0.00     0.096 N 
HETATM    2  N2  UNK     1      19.707  -3.474  36.440  1.00  0.00     0.100 N 
HETATM    3  C1  UNK     1      18.141  -1.572  36.255  1.00  0.00     0.303 C 
HETATM    4  C2  UNK     1      19.670  -2.016  34.445  1.00  0.00     0.303 C 
HETATM    5  C3  UNK     1      18.998  -2.431  37.191  1.00  0.00     0.303 C 
HETATM    6  C4  UNK     1      20.529  -2.874  35.382  1.00  0.00     0.303 C 
ENDROOT
BRANCH   1   7
HETATM    7  C5  UNK     1      18.141  -0.158  34.302  1.00  0.00     0.312 C 
BRANCH   7   8
HETATM    8  C7  UNK     1      18.669  -0.147  32.909  1.00  0.00    -0.011 A 
HETATM    9  C10 UNK     1      19.172  -1.256  32.350  1.00  0.00     0.092 A 
HETATM   10  C13 UNK     1      19.705  -1.294  30.978  1.00  0.00     0.288 A 
HETATM   11  O1  UNK     1      19.666  -0.108  30.262  1.00  0.00    -0.275 OA
HETATM   12  O4  UNK     1      20.158  -2.329  30.500  1.00  0.00    -0.260 OA
HETATM   13  C11 UNK     1      19.144   1.075  30.823  1.00  0.00     0.090 A 
HETATM   14  C9  UNK     1      18.643   1.096  32.125  1.00  0.00     0.009 A 
HETATM   15  C15 UNK     1      19.157   2.210  30.010  1.00  0.00     0.041 A 
HETATM   16  C12 UNK     1      18.141   2.311  32.609  1.00  0.00     0.051 A 
HETATM   17  C17 UNK     1      18.148   3.458  31.807  1.00  0.00     0.069 A 
HETATM   18  C18 UNK     1      18.654   3.407  30.509  1.00  0.00     0.039 A 
BRANCH  17  19
HETATM   19  O3  UNK     1      17.657   4.629  32.297  1.00  0.00    -0.351 OA
BRANCH  19  20
HETATM   20  C24 UNK     1      18.302   5.173  33.448  1.00  0.00     0.171 C 
HETATM   21  C26 UNK     1      19.354   6.165  32.999  1.00  0.00     0.034 C 
ENDBRANCH  19  20
ENDBRANCH  17  19
ENDBRANCH   7   8
ENDBRANCH   1   7
BRANCH   2  22
HETATM   22  C6  UNK     1      20.526  -4.291  37.333  1.00  0.00     0.375 C 
BRANCH  22  23
HETATM   23  C8  UNK     1      20.275  -5.765  37.045  1.00  0.00     0.252 C 
HETATM   24  O2  UNK     1      19.388  -6.095  36.252  1.00  0.00    -0.271 OA
HETATM   25  N3  UNK     1      21.086  -6.673  37.765  1.00  0.00    -0.321 N 
HETATM   26  C16 UNK     1      22.131  -6.220  38.697  1.00  0.00     0.159 C 
BRANCH  25  27
HETATM   27  C14 UNK     1      20.855  -8.103  37.698  1.00  0.00     0.037 A 
HETATM   28  C19 UNK     1      21.538  -8.877  36.760  1.00  0.00     0.036 A 
HETATM   29  C21 UNK     1      21.314 -10.252  36.697  1.00  0.00    -0.060 A 
HETATM   30  C23 UNK     1      20.409 -10.853  37.572  1.00  0.00     0.007 A 
HETATM   31  C25 UNK     1      22.043 -11.081  35.694  1.00  0.00     0.048 C 
HETATM   32  C22 UNK     1      19.727 -10.078  38.510  1.00  0.00     0.003 A 
HETATM   33  C20 UNK     1      19.950  -8.703  38.573  1.00  0.00     0.030 A 
ENDBRANCH  25  27
ENDBRANCH  22  23
ENDBRANCH   2  22
TORSDOF 7
ENDMDL
MODEL 4
REMARK VINA RESULT:      -8.7     13.339     16.644
REMARK  7 active torsions:
REMARK  status: ('A' for Active; 'I' for Inactive)
REMARK    1  A    between atoms: C17_24  and  O3_3 
REMARK    2  A    between atoms: C24_31  and  O3_3 
REMARK    3  A    between atoms: C5_12  and  N1_5 
REMARK    4  A    between atoms: C6_13  and  N2_6 
REMARK    5  A    between atoms: C14_21  and  N3_7 
REMARK       I    between atoms: C8_15  and  N3_7 
REMARK    6  A    between atoms: C5_12  and  C7_14 
REMARK    7  A    between atoms: C6_13  and  C8_15 
ROOT
HETATM    1  N1  UNK     1      25.380  -8.374  38.466  1.00  0.00     0.096 N 
HETATM    2  N2  UNK     1      28.260  -8.433  38.217  1.00  0.00     0.100 N 
HETATM    3  C1  UNK     1      26.163  -7.136  38.378  1.00  0.00     0.303 C 
HETATM    4  C2  UNK     1      26.177  -9.442  39.082  1.00  0.00     0.303 C 
HETATM    5  C3  UNK     1      27.463  -7.365  37.600  1.00  0.00     0.303 C 
HETATM    6  C4  UNK     1      27.477  -9.671  38.302  1.00  0.00     0.303 C 
ENDROOT
BRANCH   1   7
HETATM    7  C5  UNK     1      24.143  -8.155  39.212  1.00  0.00     0.312 C 
BRANCH   7   8
HETATM    8  C7  UNK     1      23.040  -7.663  38.339  1.00  0.00    -0.011 A 
HETATM    9  C10 UNK     1      22.434  -6.492  38.584  1.00  0.00     0.092 A 
HETATM   10  C13 UNK     1      21.341  -5.964  37.752  1.00  0.00     0.288 A 
HETATM   11  O1  UNK     1      20.947  -6.742  36.674  1.00  0.00    -0.275 OA
HETATM   12  O4  UNK     1      20.810  -4.889  38.006  1.00  0.00    -0.260 OA
HETATM   13  C11 UNK     1      21.564  -7.978  36.392  1.00  0.00     0.090 A 
HETATM   14  C9  UNK     1      22.600  -8.465  37.190  1.00  0.00     0.009 A 
HETATM   15  C15 UNK     1      21.086  -8.676  35.282  1.00  0.00     0.041 A 
HETATM   16  C12 UNK     1      23.161  -9.701  36.844  1.00  0.00     0.051 A 
HETATM   17  C17 UNK     1      22.692 -10.415  35.734  1.00  0.00     0.069 A 
HETATM   18  C18 UNK     1      21.656  -9.902  34.955  1.00  0.00     0.039 A 
BRANCH  17  19
HETATM   19  O3  UNK     1      23.249 -11.614  35.415  1.00  0.00    -0.351 OA
BRANCH  19  20
HETATM   20  C24 UNK     1      24.544 -11.890  35.948  1.00  0.00     0.171 C 
HETATM   21  C26 UNK     1      24.696 -13.386  36.123  1.00  0.00     0.034 C 
ENDBRANCH  19  20
ENDBRANCH  17  19
ENDBRANCH   7   8
ENDBRANCH   1   7
BRANCH   2  22
HETATM   22  C6  UNK     1      29.498  -8.651  37.473  1.00  0.00     0.375 C 
BRANCH  22  23
HETATM   23  C8  UNK     1      30.370  -7.406  37.559  1.00  0.00     0.252 C 
HETATM   24  O2  UNK     1      30.789  -7.024  38.656  1.00  0.00    -0.271 OA
HETATM   25  N3  UNK     1      30.606  -6.741  36.334  1.00  0.00    -0.321 N 
HETATM   26  C16 UNK     1      30.081  -7.246  35.055  1.00  0.00     0.159 C 
BRANCH  25  27
HETATM   27  C14 UNK     1      31.294  -5.465  36.291  1.00  0.00     0.037 A 
HETATM   28  C19 UNK     1      32.479  -5.335  35.567  1.00  0.00     0.036 A 
HETATM   29  C21 UNK     1      33.140  -4.107  35.528  1.00  0.00    -0.060 A 
HETATM   30  C23 UNK     1      32.614  -3.010  36.210  1.00  0.00     0.007 A 
HETATM   31  C25 UNK     1      34.408  -3.968  34.755  1.00  0.00     0.048 C 
HETATM   32  C22 UNK     1      31.429  -3.141  36.933  1.00  0.00     0.003 A 
HETATM   33  C20 UNK     1      30.768  -4.369  36.973  1.00  0.00     0.030 A 
ENDBRANCH  25  27
ENDBRANCH  22  23
ENDBRANCH   2  22
TORSDOF 7
ENDMDL
MODEL 5
REMARK VINA RESULT:      -8.7     13.495     17.601
REMARK  7 active torsions:
REMARK  status: ('A' for Active; 'I' for Inactive)
REMARK    1  A    between atoms: C17_24  and  O3_3 
REMARK    2  A    between atoms: C24_31  and  O3_3 
REMARK    3  A    between atoms: C5_12  and  N1_5 
REMARK    4  A    between atoms: C6_13  and  N2_6 
REMARK    5  A    between atoms: C14_21  and  N3_7 
REMARK       I    between atoms: C8_15  and  N3_7 
REMARK    6  A    between atoms: C5_12  and  C7_14 
REMARK    7  A    between atoms: C6_13  and  C8_15 
ROOT
HETATM    1  N1  UNK     1      29.418  -8.933  37.817  1.00  0.00     0.096 N 
HETATM    2  N2  UNK     1      26.632  -9.344  37.161  1.00  0.00     0.100 N 
HETATM    3  C1  UNK     1      28.408  -9.122  38.865  1.00  0.00     0.303 C 
HETATM    4  C2  UNK     1      28.815  -8.315  36.630  1.00  0.00     0.303 C 
HETATM    5  C3  UNK     1      27.235  -9.962  38.348  1.00  0.00     0.303 C 
HETATM    6  C4  UNK     1      27.642  -9.156  36.113  1.00  0.00     0.303 C 
ENDROOT
BRANCH   1   7
HETATM    7  C5  UNK     1      30.533  -8.128  38.309  1.00  0.00     0.312 C 
BRANCH   7   8
HETATM    8  C7  UNK     1      30.283  -6.667  38.159  1.00  0.00    -0.011 A 
HETATM    9  C10 UNK     1      29.198  -6.092  38.696  1.00  0.00     0.092 A 
HETATM   10  C13 UNK     1      28.908  -4.654  38.575  1.00  0.00     0.288 A 
HETATM   11  O1  UNK     1      29.823  -3.892  37.864  1.00  0.00    -0.275 OA
HETATM   12  O4  UNK     1      27.905  -4.162  39.080  1.00  0.00    -0.260 OA
HETATM   13  C11 UNK     1      30.972  -4.468  37.287  1.00  0.00     0.090 A 
HETATM   14  C9  UNK     1      31.234  -5.833  37.410  1.00  0.00     0.009 A 
HETATM   15  C15 UNK     1      31.823  -3.606  36.593  1.00  0.00     0.041 A 
HETATM   16  C12 UNK     1      32.397  -6.330  36.808  1.00  0.00     0.051 A 
HETATM   17  C17 UNK     1      33.260  -5.478  36.108  1.00  0.00     0.069 A 
HETATM   18  C18 UNK     1      32.973  -4.118  36.001  1.00  0.00     0.039 A 
BRANCH  17  19
HETATM   19  O3  UNK     1      34.384  -5.980  35.528  1.00  0.00    -0.351 OA
BRANCH  19  20
HETATM   20  C24 UNK     1      34.607  -5.658  34.156  1.00  0.00     0.171 C 
HETATM   21  C26 UNK     1      34.249  -6.857  33.305  1.00  0.00     0.034 C 
ENDBRANCH  19  20
ENDBRANCH  17  19
ENDBRANCH   7   8
ENDBRANCH   1   7
BRANCH   2  22
HETATM   22  C6  UNK     1      25.515 -10.146  36.669  1.00  0.00     0.375 C 
BRANCH  22  23
HETATM   23  C8  UNK     1      24.213  -9.381  36.868  1.00  0.00     0.252 C 
HETATM   24  O2  UNK     1      24.220  -8.303  37.469  1.00  0.00    -0.271 OA
HETATM   25  N3  UNK     1      23.053 -10.011  36.362  1.00  0.00    -0.321 N 
HETATM   26  C16 UNK     1      23.107 -11.299  35.652  1.00  0.00     0.159 C 
BRANCH  25  27
HETATM   27  C14 UNK     1      21.732  -9.467  36.612  1.00  0.00     0.037 A 
HETATM   28  C19 UNK     1      21.187  -8.529  35.735  1.00  0.00     0.036 A 
HETATM   29  C21 UNK     1      19.917  -8.006  35.978  1.00  0.00    -0.060 A 
HETATM   30  C23 UNK     1      19.192  -8.421  37.094  1.00  0.00     0.007 A 
HETATM   31  C25 UNK     1      19.333  -7.002  35.041  1.00  0.00     0.048 C 
HETATM   32  C22 UNK     1      19.738  -9.360  37.970  1.00  0.00     0.003 A 
HETATM   33  C20 UNK     1      21.008  -9.882  37.729  1.00  0.00     0.030 A 
ENDBRANCH  25  27
ENDBRANCH  22  23
ENDBRANCH   2  22
TORSDOF 7
ENDMDL
MODEL 6
REMARK VINA RESULT:      -8.6     14.077     17.673
REMARK  7 active torsions:
REMARK  status: ('A' for Active; 'I' for Inactive)
REMARK    1  A    between atoms: C17_24  and  O3_3 
REMARK    2  A    between atoms: C24_31  and  O3_3 
REMARK    3  A    between atoms: C5_12  and  N1_5 
REMARK    4  A    between atoms: C6_13  and  N2_6 
REMARK    5  A    between atoms: C14_21  and  N3_7 
REMARK       I    between atoms: C8_15  and  N3_7 
REMARK    6  A    between atoms: C5_12  and  C7_14 
REMARK    7  A    between atoms: C6_13  and  C8_15 
ROOT
HETATM    1  N1  UNK     1      26.808  -9.259  37.625  1.00  0.00     0.096 N 
HETATM    2  N2  UNK     1      29.626  -8.944  38.194  1.00  0.00     0.100 N 
HETATM    3  C1  UNK     1      27.626  -8.276  36.904  1.00  0.00     0.303 C 
HETATM    4  C2  UNK     1      27.343  -9.481  38.974  1.00  0.00     0.303 C 
HETATM    5  C3  UNK     1      29.091  -8.723  36.845  1.00  0.00     0.303 C 
HETATM    6  C4  UNK     1      28.808  -9.929  38.913  1.00  0.00     0.303 C 
ENDROOT
BRANCH   1   7
HETATM    7  C5  UNK     1      25.413  -8.830  37.685  1.00  0.00     0.312 C 
BRANCH   7   8
HETATM    8  C7  UNK     1      24.517  -9.716  36.890  1.00  0.00    -0.011 A 
HETATM    9  C10 UNK     1      24.968 -10.865  36.366  1.00  0.00     0.092 A 
HETATM   10  C13 UNK     1      24.122 -11.772  35.573  1.00  0.00     0.288 A 
HETATM   11  O1  UNK     1      22.804 -11.387  35.382  1.00  0.00    -0.275 OA
HETATM   12  O4  UNK     1      24.568 -12.816  35.110  1.00  0.00    -0.260 OA
HETATM   13  C11 UNK     1      22.302 -10.184  35.918  1.00  0.00     0.090 A 
HETATM   14  C9  UNK     1      23.116  -9.334  36.668  1.00  0.00     0.009 A 
HETATM   15  C15 UNK     1      20.960  -9.897  35.661  1.00  0.00     0.041 A 
HETATM   16  C12 UNK     1      22.542  -8.158  37.167  1.00  0.00     0.051 A 
HETATM   17  C17 UNK     1      21.198  -7.854  36.917  1.00  0.00     0.069 A 
HETATM   18  C18 UNK     1      20.409  -8.723  36.165  1.00  0.00     0.039 A 
BRANCH  17  19
HETATM   19  O3  UNK     1      20.660  -6.706  37.410  1.00  0.00    -0.351 OA
BRANCH  19  20
HETATM   20  C24 UNK     1      20.725  -6.512  38.822  1.00  0.00     0.171 C 
HETATM   21  C26 UNK     1      19.842  -7.538  39.500  1.00  0.00     0.034 C 
ENDBRANCH  19  20
ENDBRANCH  17  19
ENDBRANCH   7   8
ENDBRANCH   1   7
BRANCH   2  22
HETATM   22  C6  UNK     1      31.021  -9.371  38.135  1.00  0.00     0.375 C 
BRANCH  22  23
HETATM   23  C8  UNK     1      31.910  -8.166  37.858  1.00  0.00     0.252 C 
HETATM   24  O2  UNK     1      31.963  -7.241  38.672  1.00  0.00    -0.271 OA
HETATM   25  N3  UNK     1      32.600  -8.190  36.623  1.00  0.00    -0.321 N 
HETATM   26  C16 UNK     1      32.499  -9.324  35.691  1.00  0.00     0.159 C 
BRANCH  25  27
HETATM   27  C14 UNK     1      33.363  -7.045  36.166  1.00  0.00     0.037 A 
HETATM   28  C19 UNK     1      32.789  -5.773  36.179  1.00  0.00     0.036 A 
HETATM   29  C21 UNK     1      33.524  -4.673  35.738  1.00  0.00    -0.060 A 
HETATM   30  C23 UNK     1      34.833  -4.844  35.287  1.00  0.00     0.007 A 
HETATM   31  C25 UNK     1      32.911  -3.314  35.751  1.00  0.00     0.048 C 
HETATM   32  C22 UNK     1      35.406  -6.115  35.275  1.00  0.00     0.003 A 
HETATM   33  C20 UNK     1      34.671  -7.216  35.715  1.00  0.00     0.030 A 
ENDBRANCH  25  27
ENDBRANCH  22  23
ENDBRANCH   2  22
TORSDOF 7
ENDMDL
MODEL 7
REMARK VINA RESULT:      -8.6     14.186     17.014
REMARK  7 active torsions:
REMARK  status: ('A' for Active; 'I' for Inactive)
REMARK    1  A    between atoms: C17_24  and  O3_3 
REMARK    2  A    between atoms: C24_31  and  O3_3 
REMARK    3  A    between atoms: C5_12  and  N1_5 
REMARK    4  A    between atoms: C6_13  and  N2_6 
REMARK    5  A    between atoms: C14_21  and  N3_7 
REMARK       I    between atoms: C8_15  and  N3_7 
REMARK    6  A    between atoms: C5_12  and  C7_14 
REMARK    7  A    between atoms: C6_13  and  C8_15 
ROOT
HETATM    1  N1  UNK     1      26.839  -8.780  36.616  1.00  0.00     0.096 N 
HETATM    2  N2  UNK     1      29.177  -7.448  35.557  1.00  0.00     0.100 N 
HETATM    3  C1  UNK     1      27.588  -7.803  37.416  1.00  0.00     0.303 C 
HETATM    4  C2  UNK     1      27.728  -9.448  35.658  1.00  0.00     0.303 C 
HETATM    5  C3  UNK     1      28.286  -6.780  36.515  1.00  0.00     0.303 C 
HETATM    6  C4  UNK     1      28.426  -8.423  34.756  1.00  0.00     0.303 C 
ENDROOT
BRANCH   1   7
HETATM    7  C5  UNK     1      26.177  -9.758  37.477  1.00  0.00     0.312 C 
BRANCH   7   8
HETATM    8  C7  UNK     1      25.105 -10.504  36.759  1.00  0.00    -0.011 A 
HETATM    9  C10 UNK     1      25.333 -11.722  36.249  1.00  0.00     0.092 A 
HETATM   10  C13 UNK     1      24.307 -12.498  35.533  1.00  0.00     0.288 A 
HETATM   11  O1  UNK     1      23.059 -11.907  35.400  1.00  0.00    -0.275 OA
HETATM   12  O4  UNK     1      24.552 -13.610  35.079  1.00  0.00    -0.260 OA
HETATM   13  C11 UNK     1      22.790 -10.627  35.925  1.00  0.00     0.090 A 
HETATM   14  C9  UNK     1      23.773  -9.904  36.602  1.00  0.00     0.009 A 
HETATM   15  C15 UNK     1      21.500 -10.132  35.732  1.00  0.00     0.041 A 
HETATM   16  C12 UNK     1      23.426  -8.639  37.094  1.00  0.00     0.051 A 
HETATM   17  C17 UNK     1      22.137  -8.127  36.907  1.00  0.00     0.069 A 
HETATM   18  C18 UNK     1      21.175  -8.873  36.227  1.00  0.00     0.039 A 
BRANCH  17  19
HETATM   19  O3  UNK     1      21.820  -6.895  37.392  1.00  0.00    -0.351 OA
BRANCH  19  20
HETATM   20  C24 UNK     1      21.777  -6.747  38.810  1.00  0.00     0.171 C 
HETATM   21  C26 UNK     1      20.347  -6.906  39.279  1.00  0.00     0.034 C 
ENDBRANCH  19  20
ENDBRANCH  17  19
ENDBRANCH   7   8
ENDBRANCH   1   7
BRANCH   2  22
HETATM   22  C6  UNK     1      29.841  -6.471  34.697  1.00  0.00     0.375 C 
BRANCH  22  23
HETATM   23  C8  UNK     1      30.262  -7.143  33.397  1.00  0.00     0.252 C 
HETATM   24  O2  UNK     1      31.157  -7.992  33.406  1.00  0.00    -0.271 OA
HETATM   25  N3  UNK     1      29.593  -6.694  32.235  1.00  0.00    -0.321 N 
HETATM   26  C16 UNK     1      28.531  -5.677  32.286  1.00  0.00     0.159 C 
BRANCH  25  27
HETATM   27  C14 UNK     1      29.997  -7.140  30.916  1.00  0.00     0.037 A 
HETATM   28  C19 UNK     1      29.356  -8.227  30.320  1.00  0.00     0.036 A 
HETATM   29  C21 UNK     1      29.746  -8.655  29.052  1.00  0.00    -0.060 A 
HETATM   30  C23 UNK     1      30.775  -7.997  28.378  1.00  0.00     0.007 A 
HETATM   31  C25 UNK     1      29.062  -9.817  28.414  1.00  0.00     0.048 C 
HETATM   32  C22 UNK     1      31.415  -6.910  28.974  1.00  0.00     0.003 A 
HETATM   33  C20 UNK     1      31.026  -6.482  30.243  1.00  0.00     0.030 A 
ENDBRANCH  25  27
ENDBRANCH  22  23
ENDBRANCH   2  22
TORSDOF 7
ENDMDL
MODEL 8
REMARK VINA RESULT:      -8.4      1.768      3.874
REMARK  7 active torsions:
REMARK  status: ('A' for Active; 'I' for Inactive)
REMARK    1  A    between atoms: C17_24  and  O3_3 
REMARK    2  A    between atoms: C24_31  and  O3_3 
REMARK    3  A    between atoms: C5_12  and  N1_5 
REMARK    4  A    between atoms: C6_13  and  N2_6 
REMARK    5  A    between atoms: C14_21  and  N3_7 
REMARK       I    between atoms: C8_15  and  N3_7 
REMARK    6  A    between atoms: C5_12  and  C7_14 
REMARK    7  A    between atoms: C6_13  and  C8_15 
ROOT
HETATM    1  N1  UNK     1      18.410   1.824  33.850  1.00  0.00     0.096 N 
HETATM    2  N2  UNK     1      18.486   4.702  33.579  1.00  0.00     0.100 N 
HETATM    3  C1  UNK     1      17.726   2.504  32.743  1.00  0.00     0.303 C 
HETATM    4  C2  UNK     1      18.476   2.699  35.027  1.00  0.00     0.303 C 
HETATM    5  C3  UNK     1      18.420   3.826  32.402  1.00  0.00     0.303 C 
HETATM    6  C4  UNK     1      19.172   4.022  34.684  1.00  0.00     0.303 C 
ENDROOT
BRANCH   1   7
HETATM    7  C5  UNK     1      17.744   0.565  34.177  1.00  0.00     0.312 C 
BRANCH   7   8
HETATM    8  C7  UNK     1      18.685  -0.591  34.156  1.00  0.00    -0.011 A 
HETATM    9  C10 UNK     1      18.960  -1.279  35.272  1.00  0.00     0.092 A 
HETATM   10  C13 UNK     1      19.882  -2.427  35.301  1.00  0.00     0.288 A 
HETATM   11  O1  UNK     1      20.472  -2.782  34.098  1.00  0.00    -0.275 OA
HETATM   12  O4  UNK     1      20.110  -3.034  36.342  1.00  0.00    -0.260 OA
HETATM   13  C11 UNK     1      20.203  -2.077  32.908  1.00  0.00     0.090 A 
HETATM   14  C9  UNK     1      19.327  -0.990  32.896  1.00  0.00     0.009 A 
HETATM   15  C15 UNK     1      20.854  -2.522  31.757  1.00  0.00     0.041 A 
HETATM   16  C12 UNK     1      19.112  -0.342  31.673  1.00  0.00     0.051 A 
HETATM   17  C17 UNK     1      19.758  -0.775  30.510  1.00  0.00     0.069 A 
HETATM   18  C18 UNK     1      20.628  -1.864  30.552  1.00  0.00     0.039 A 
BRANCH  17  19
HETATM   19  O3  UNK     1      19.537  -0.131  29.332  1.00  0.00    -0.351 OA
BRANCH  19  20
HETATM   20  C24 UNK     1      19.183   1.250  29.404  1.00  0.00     0.171 C 
HETATM   21  C26 UNK     1      17.940   1.484  28.573  1.00  0.00     0.034 C 
ENDBRANCH  19  20
ENDBRANCH  17  19
ENDBRANCH   7   8
ENDBRANCH   1   7
BRANCH   2  22
HETATM   22  C6  UNK     1      19.150   5.961  33.253  1.00  0.00     0.375 C 
BRANCH  22  23
HETATM   23  C8  UNK     1      18.416   7.112  33.929  1.00  0.00     0.252 C 
HETATM   24  O2  UNK     1      18.650   7.380  35.110  1.00  0.00    -0.271 OA
HETATM   25  N3  UNK     1      17.462   7.781  33.127  1.00  0.00    -0.321 N 
HETATM   26  C16 UNK     1      17.228   7.417  31.721  1.00  0.00     0.159 C 
BRANCH  25  27
HETATM   27  C14 UNK     1      16.590   8.796  33.686  1.00  0.00     0.037 A 
HETATM   28  C19 UNK     1      17.095  10.060  33.989  1.00  0.00     0.036 A 
HETATM   29  C21 UNK     1      16.255  11.035  34.527  1.00  0.00    -0.060 A 
HETATM   30  C23 UNK     1      14.910  10.746  34.760  1.00  0.00     0.007 A 
HETATM   31  C25 UNK     1      16.794  12.387  34.852  1.00  0.00     0.048 C 
HETATM   32  C22 UNK     1      14.406   9.481  34.456  1.00  0.00     0.003 A 
HETATM   33  C20 UNK     1      15.247   8.507  33.919  1.00  0.00     0.030 A 
ENDBRANCH  25  27
ENDBRANCH  22  23
ENDBRANCH   2  22
TORSDOF 7
ENDMDL
MODEL 9
REMARK VINA RESULT:      -8.4     13.661     16.505
REMARK  7 active torsions:
REMARK  status: ('A' for Active; 'I' for Inactive)
REMARK    1  A    between atoms: C17_24  and  O3_3 
REMARK    2  A    between atoms: C24_31  and  O3_3 
REMARK    3  A    between atoms: C5_12  and  N1_5 
REMARK    4  A    between atoms: C6_13  and  N2_6 
REMARK    5  A    between atoms: C14_21  and  N3_7 
REMARK       I    between atoms: C8_15  and  N3_7 
REMARK    6  A    between atoms: C5_12  and  C7_14 
REMARK    7  A    between atoms: C6_13  and  C8_15 
ROOT
HETATM    1  N1  UNK     1      26.023  -8.135  38.066  1.00  0.00     0.096 N 
HETATM    2  N2  UNK     1      28.852  -8.335  37.502  1.00  0.00     0.100 N 
HETATM    3  C1  UNK     1      27.011  -7.387  38.852  1.00  0.00     0.303 C 
HETATM    4  C2  UNK     1      26.611  -9.377  37.549  1.00  0.00     0.303 C 
HETATM    5  C3  UNK     1      28.263  -7.093  38.018  1.00  0.00     0.303 C 
HETATM    6  C4  UNK     1      27.863  -9.081  36.715  1.00  0.00     0.303 C 
ENDROOT
BRANCH   1   7
HETATM    7  C5  UNK     1      24.832  -8.419  38.863  1.00  0.00     0.312 C 
BRANCH   7   8
HETATM    8  C7  UNK     1      23.583  -7.964  38.190  1.00  0.00    -0.011 A 
HETATM    9  C10 UNK     1      22.987  -6.815  38.538  1.00  0.00     0.092 A 
HETATM   10  C13 UNK     1      21.753  -6.325  37.903  1.00  0.00     0.288 A 
HETATM   11  O1  UNK     1      21.211  -7.116  36.902  1.00  0.00    -0.275 OA
HETATM   12  O4  UNK     1      21.236  -5.268  38.247  1.00  0.00    -0.260 OA
HETATM   13  C11 UNK     1      21.813  -8.330  36.515  1.00  0.00     0.090 A 
HETATM   14  C9  UNK     1      22.983  -8.782  37.126  1.00  0.00     0.009 A 
HETATM   15  C15 UNK     1      21.180  -9.045  35.497  1.00  0.00     0.041 A 
HETATM   16  C12 UNK     1      23.520  -9.999  36.685  1.00  0.00     0.051 A 
HETATM   17  C17 UNK     1      22.896 -10.729  35.666  1.00  0.00     0.069 A 
HETATM   18  C18 UNK     1      21.728 -10.252  35.072  1.00  0.00     0.039 A 
BRANCH  17  19
HETATM   19  O3  UNK     1      23.432 -11.909  35.252  1.00  0.00    -0.351 OA
BRANCH  19  20
HETATM   20  C24 UNK     1      24.667 -12.304  35.848  1.00  0.00     0.171 C 
HETATM   21  C26 UNK     1      24.633 -13.795  36.109  1.00  0.00     0.034 C 
ENDBRANCH  19  20
ENDBRANCH  17  19
ENDBRANCH   7   8
ENDBRANCH   1   7
BRANCH   2  22
HETATM   22  C6  UNK     1      30.044  -8.053  36.706  1.00  0.00     0.375 C 
BRANCH  22  23
HETATM   23  C8  UNK     1      29.671  -7.152  35.536  1.00  0.00     0.252 C 
HETATM   24  O2  UNK     1      29.186  -6.038  35.748  1.00  0.00    -0.271 OA
HETATM   25  N3  UNK     1      29.886  -7.704  34.251  1.00  0.00    -0.321 N 
HETATM   26  C16 UNK     1      30.471  -9.040  34.060  1.00  0.00     0.159 C 
BRANCH  25  27
HETATM   27  C14 UNK     1      29.441  -7.016  33.055  1.00  0.00     0.037 A 
HETATM   28  C19 UNK     1      28.201  -7.323  32.494  1.00  0.00     0.036 A 
HETATM   29  C21 UNK     1      27.775  -6.662  31.342  1.00  0.00    -0.060 A 
HETATM   30  C23 UNK     1      28.587  -5.693  30.753  1.00  0.00     0.007 A 
HETATM   31  C25 UNK     1      26.449  -6.989  30.742  1.00  0.00     0.048 C 
HETATM   32  C22 UNK     1      29.827  -5.387  31.314  1.00  0.00     0.003 A 
HETATM   33  C20 UNK     1      30.253  -6.049  32.465  1.00  0.00     0.030 A 
ENDBRANCH  25  27
ENDBRANCH  22  23
ENDBRANCH   2  22
TORSDOF 7
ENDMDL
MODEL 10
REMARK VINA RESULT:      -8.4     22.992     25.898
REMARK  7 active torsions:
REMARK  status: ('A' for Active; 'I' for Inactive)
REMARK    1  A    between atoms: C17_24  and  O3_3 
REMARK    2  A    between atoms: C24_31  and  O3_3 
REMARK    3  A    between atoms: C5_12  and  N1_5 
REMARK    4  A    between atoms: C6_13  and  N2_6 
REMARK    5  A    between atoms: C14_21  and  N3_7 
REMARK       I    between atoms: C8_15  and  N3_7 
REMARK    6  A    between atoms: C5_12  and  C7_14 
REMARK    7  A    between atoms: C6_13  and  C8_15 
ROOT
HETATM    1  N1  UNK     1      16.548  10.924   9.369  1.00  0.00     0.096 N 
HETATM    2  N2  UNK     1      14.645   8.887  10.134  1.00  0.00     0.100 N 
HETATM    3  C1  UNK     1      16.546  10.352  10.721  1.00  0.00     0.303 C 
HETATM    4  C2  UNK     1      15.198  10.888   8.795  1.00  0.00     0.303 C 
HETATM    5  C3  UNK     1      15.996   8.922  10.708  1.00  0.00     0.303 C 
HETATM    6  C4  UNK     1      14.648   9.457   8.782  1.00  0.00     0.303 C 
ENDROOT
BRANCH   1   7
HETATM    7  C5  UNK     1      17.070  12.289   9.383  1.00  0.00     0.312 C 
BRANCH   7   8
HETATM    8  C7  UNK     1      18.256  12.447   8.496  1.00  0.00    -0.011 A 
HETATM    9  C10 UNK     1      18.113  12.682   7.184  1.00  0.00     0.092 A 
HETATM   10  C13 UNK     1      19.254  12.845   6.268  1.00  0.00     0.288 A 
HETATM   11  O1  UNK     1      20.520  12.745   6.825  1.00  0.00    -0.275 OA
HETATM   12  O4  UNK     1      19.085  13.059   5.072  1.00  0.00    -0.260 OA
HETATM   13  C11 UNK     1      20.702  12.497   8.201  1.00  0.00     0.090 A 
HETATM   14  C9  UNK     1      19.611  12.345   9.057  1.00  0.00     0.009 A 
HETATM   15  C15 UNK     1      22.021  12.415   8.652  1.00  0.00     0.041 A 
HETATM   16  C12 UNK     1      19.875  12.101  10.411  1.00  0.00     0.051 A 
HETATM   17  C17 UNK     1      21.192  12.015  10.879  1.00  0.00     0.069 A 
HETATM   18  C18 UNK     1      22.263  12.172  10.000  1.00  0.00     0.039 A 
BRANCH  17  19
HETATM   19  O3  UNK     1      21.428  11.776  12.197  1.00  0.00    -0.351 OA
BRANCH  19  20
HETATM   20  C24 UNK     1      20.761  12.617  13.138  1.00  0.00     0.171 C 
HETATM   21  C26 UNK     1      21.177  12.215  14.538  1.00  0.00     0.034 C 
ENDBRANCH  19  20
ENDBRANCH  17  19
ENDBRANCH   7   8
ENDBRANCH   1   7
BRANCH   2  22
HETATM   22  C6  UNK     1      14.122   7.523  10.121  1.00  0.00     0.375 C 
BRANCH  22  23
HETATM   23  C8  UNK     1      12.739   7.516   9.484  1.00  0.00     0.252 C 
HETATM   24  O2  UNK     1      11.833   8.198   9.972  1.00  0.00    -0.271 OA
HETATM   25  N3  UNK     1      12.589   6.665   8.364  1.00  0.00    -0.321 N 
HETATM   26  C16 UNK     1      13.707   5.875   7.825  1.00  0.00     0.159 C 
BRANCH  25  27
HETATM   27  C14 UNK     1      11.292   6.450   7.752  1.00  0.00     0.037 A 
HETATM   28  C19 UNK     1      10.208   6.051   8.535  1.00  0.00     0.036 A 
HETATM   29  C21 UNK     1       8.962   5.843   7.944  1.00  0.00    -0.060 A 
HETATM   30  C23 UNK     1       8.798   6.036   6.572  1.00  0.00     0.007 A 
HETATM   31  C25 UNK     1       7.803   5.416   8.780  1.00  0.00     0.048 C 
HETATM   32  C22 UNK     1       9.883   6.436   5.790  1.00  0.00     0.003 A 
HETATM   33  C20 UNK     1      11.129   6.642   6.381  1.00  0.00     0.030 A 
ENDBRANCH  25  27
ENDBRANCH  22  23
ENDBRANCH   2  22
TORSDOF 7
ENDMDL
