MODEL 1
REMARK VINA RESULT:      -9.0      0.000      0.000
REMARK  4 active torsions:
REMARK  status: ('A' for Active; 'I' for Inactive)
REMARK    1  A    between atoms: C14_18  and  O3_3 
REMARK    2  A    between atoms: C20_24  and  O3_3 
REMARK    3  A    between atoms: C2_6  and  C3_7 
REMARK    4  A    between atoms: C10_14  and  C7_11 
ROOT
HETATM    1  O2  UNK     1      16.342   5.773  10.011  1.00  0.00    -0.275 OA
HETATM    2  O4  UNK     1      15.849   3.540  10.010  1.00  0.00    -0.260 OA
HETATM    3  C1  UNK     1      14.669   7.357   9.214  1.00  0.00     0.012 A 
HETATM    4  C2  UNK     1      13.752   6.239   8.946  1.00  0.00     0.017 A 
HETATM    5  C6  UNK     1      15.933   7.091   9.736  1.00  0.00     0.090 A 
HETATM    6  C7  UNK     1      15.238   9.722   9.238  1.00  0.00    -0.058 A 
HETATM    7  C8  UNK     1      14.329   8.694   8.967  1.00  0.00     0.022 A 
HETATM    8  C11 UNK     1      14.173   4.993   9.218  1.00  0.00     0.097 A 
HETATM    9  C12 UNK     1      16.851   8.106  10.012  1.00  0.00     0.039 A 
HETATM   10  C13 UNK     1      16.498   9.427   9.759  1.00  0.00     0.010 A 
HETATM   11  C16 UNK     1      15.505   4.693   9.773  1.00  0.00     0.289 A 
ENDROOT
BRANCH   4  12
HETATM   12  C3  UNK     1      12.448   6.352   8.420  1.00  0.00     0.088 A 
HETATM   13  O1  UNK     1      11.383   6.700   9.191  1.00  0.00    -0.306 OA
HETATM   14  C5  UNK     1      10.290   6.716   8.378  1.00  0.00     0.119 A 
HETATM   15  C14 UNK     1       8.989   7.024   8.772  1.00  0.00     0.103 A 
HETATM   16  C4  UNK     1      10.653   6.376   7.079  1.00  0.00     0.003 A 
HETATM   17  C17 UNK     1       8.011   6.980   7.773  1.00  0.00     0.040 A 
HETATM   18  C18 UNK     1       8.334   6.643   6.456  1.00  0.00     0.004 A 
HETATM   19  C15 UNK     1       9.653   6.336   6.091  1.00  0.00     0.014 A 
HETATM   20  C9  UNK     1      12.052   6.141   7.117  1.00  0.00     0.052 A 
BRANCH  15  21
HETATM   21  O3  UNK     1       8.670   7.353  10.055  1.00  0.00    -0.349 OA
BRANCH  21  22
HETATM   22  C20 UNK     1       8.107   8.645  10.272  1.00  0.00     0.171 C 
HETATM   23  C21 UNK     1       9.213   9.679  10.218  1.00  0.00     0.034 C 
ENDBRANCH  21  22
ENDBRANCH  15  21
ENDBRANCH   4  12
BRANCH   6  24
HETATM   24  C10 UNK     1      14.858  11.139   8.967  1.00  0.00     0.034 C 
HETATM   25  C19 UNK     1      15.573  11.707   7.744  1.00  0.00     0.010 C 
ENDBRANCH   6  24
TORSDOF 4
ENDMDL
MODEL 2
REMARK VINA RESULT:      -8.8     25.017     27.295
REMARK  4 active torsions:
REMARK  status: ('A' for Active; 'I' for Inactive)
REMARK    1  A    between atoms: C14_18  and  O3_3 
REMARK    2  A    between atoms: C20_24  and  O3_3 
REMARK    3  A    between atoms: C2_6  and  C3_7 
REMARK    4  A    between atoms: C10_14  and  C7_11 
ROOT
HETATM    1  O2  UNK     1      19.482  -3.308  37.181  1.00  0.00    -0.275 OA
HETATM    2  O4  UNK     1      20.513  -5.195  36.402  1.00  0.00    -0.260 OA
HETATM    3  C1  UNK     1      19.066  -1.464  35.642  1.00  0.00     0.012 A 
HETATM    4  C2  UNK     1      19.689  -2.240  34.559  1.00  0.00     0.017 A 
HETATM    5  C6  UNK     1      18.982  -2.019  36.917  1.00  0.00     0.090 A 
HETATM    6  C7  UNK     1      17.963   0.521  36.515  1.00  0.00    -0.058 A 
HETATM    7  C8  UNK     1      18.545  -0.177  35.451  1.00  0.00     0.022 A 
HETATM    8  C11 UNK     1      20.157  -3.466  34.844  1.00  0.00     0.097 A 
HETATM    9  C12 UNK     1      18.405  -1.336  37.988  1.00  0.00     0.039 A 
HETATM   10  C13 UNK     1      17.894  -0.059  37.782  1.00  0.00     0.010 A 
HETATM   11  C16 UNK     1      20.075  -4.070  36.185  1.00  0.00     0.289 A 
ENDROOT
BRANCH   4  12
HETATM   12  C3  UNK     1      19.845  -1.810  33.224  1.00  0.00     0.088 A 
HETATM   13  O1  UNK     1      19.316  -0.641  32.772  1.00  0.00    -0.306 OA
HETATM   14  C5  UNK     1      19.650  -0.536  31.456  1.00  0.00     0.119 A 
HETATM   15  C14 UNK     1      19.304   0.519  30.612  1.00  0.00     0.103 A 
HETATM   16  C4  UNK     1      20.395  -1.641  31.058  1.00  0.00     0.003 A 
HETATM   17  C17 UNK     1      19.750   0.428  29.290  1.00  0.00     0.040 A 
HETATM   18  C18 UNK     1      20.501  -0.665  28.851  1.00  0.00     0.004 A 
HETATM   19  C15 UNK     1      20.833  -1.711  29.724  1.00  0.00     0.014 A 
HETATM   20  C9  UNK     1      20.515  -2.461  32.210  1.00  0.00     0.052 A 
BRANCH  15  21
HETATM   21  O3  UNK     1      18.572   1.587  31.036  1.00  0.00    -0.349 OA
BRANCH  21  22
HETATM   22  C20 UNK     1      18.593   2.753  30.217  1.00  0.00     0.171 C 
HETATM   23  C21 UNK     1      18.570   3.980  31.105  1.00  0.00     0.034 C 
ENDBRANCH  21  22
ENDBRANCH  15  21
ENDBRANCH   4  12
BRANCH   6  24
HETATM   24  C10 UNK     1      17.415   1.891  36.294  1.00  0.00     0.034 C 
HETATM   25  C19 UNK     1      18.202   2.666  35.241  1.00  0.00     0.010 C 
ENDBRANCH   6  24
TORSDOF 4
ENDMDL
MODEL 3
REMARK VINA RESULT:      -8.7     23.644     25.659
REMARK  4 active torsions:
REMARK  status: ('A' for Active; 'I' for Inactive)
REMARK    1  A    between atoms: C14_18  and  O3_3 
REMARK    2  A    between atoms: C20_24  and  O3_3 
REMARK    3  A    between atoms: C2_6  and  C3_7 
REMARK    4  A    between atoms: C10_14  and  C7_11 
ROOT
HETATM    1  O2  UNK     1      18.418   1.267  31.276  1.00  0.00    -0.275 OA
HETATM    2  O4  UNK     1      18.533   2.204  29.194  1.00  0.00    -0.260 OA
HETATM    3  C1  UNK     1      18.373   2.722  33.232  1.00  0.00     0.012 A 
HETATM    4  C2  UNK     1      18.445   3.895  32.348  1.00  0.00     0.017 A 
HETATM    5  C6  UNK     1      18.362   1.446  32.671  1.00  0.00     0.090 A 
HETATM    6  C7  UNK     1      18.245   1.678  35.425  1.00  0.00    -0.058 A 
HETATM    7  C8  UNK     1      18.312   2.826  34.628  1.00  0.00     0.022 A 
HETATM    8  C11 UNK     1      18.498   3.689  31.022  1.00  0.00     0.097 A 
HETATM    9  C12 UNK     1      18.296   0.292  33.453  1.00  0.00     0.039 A 
HETATM   10  C13 UNK     1      18.238   0.413  34.838  1.00  0.00     0.010 A 
HETATM   11  C16 UNK     1      18.486   2.348  30.411  1.00  0.00     0.289 A 
ENDROOT
BRANCH   4  12
HETATM   12  C3  UNK     1      18.464   5.242  32.769  1.00  0.00     0.088 A 
HETATM   13  O1  UNK     1      17.461   6.109  32.468  1.00  0.00    -0.306 OA
HETATM   14  C5  UNK     1      17.794   7.310  33.020  1.00  0.00     0.119 A 
HETATM   15  C14 UNK     1      17.034   8.476  32.947  1.00  0.00     0.103 A 
HETATM   16  C4  UNK     1      19.016   7.215  33.676  1.00  0.00     0.003 A 
HETATM   17  C17 UNK     1      17.562   9.603  33.585  1.00  0.00     0.040 A 
HETATM   18  C18 UNK     1      18.786   9.549  34.255  1.00  0.00     0.004 A 
HETATM   19  C15 UNK     1      19.529   8.361  34.311  1.00  0.00     0.014 A 
HETATM   20  C9  UNK     1      19.443   5.872  33.507  1.00  0.00     0.052 A 
BRANCH  15  21
HETATM   21  O3  UNK     1      15.839   8.532  32.294  1.00  0.00    -0.349 OA
BRANCH  21  22
HETATM   22  C20 UNK     1      14.665   8.313  33.072  1.00  0.00     0.171 C 
HETATM   23  C21 UNK     1      13.842   7.218  32.425  1.00  0.00     0.034 C 
ENDBRANCH  21  22
ENDBRANCH  15  21
ENDBRANCH   4  12
BRANCH   6  24
HETATM   24  C10 UNK     1      18.183   1.808  36.910  1.00  0.00     0.034 C 
HETATM   25  C19 UNK     1      17.177   0.844  37.534  1.00  0.00     0.010 C 
ENDBRANCH   6  24
TORSDOF 4
ENDMDL
MODEL 4
REMARK VINA RESULT:      -8.7     24.282     26.788
REMARK  4 active torsions:
REMARK  status: ('A' for Active; 'I' for Inactive)
REMARK    1  A    between atoms: C14_18  and  O3_3 
REMARK    2  A    between atoms: C20_24  and  O3_3 
REMARK    3  A    between atoms: C2_6  and  C3_7 
REMARK    4  A    between atoms: C10_14  and  C7_11 
ROOT
HETATM    1  O2  UNK     1      19.192   1.822  29.212  1.00  0.00    -0.275 OA
HETATM    2  O4  UNK     1      18.240   3.875  29.536  1.00  0.00    -0.260 OA
HETATM    3  C1  UNK     1      19.395   0.296  31.104  1.00  0.00     0.012 A 
HETATM    4  C2  UNK     1      18.763   1.303  31.970  1.00  0.00     0.017 A 
HETATM    5  C6  UNK     1      19.590   0.585  29.755  1.00  0.00     0.090 A 
HETATM    6  C7  UNK     1      20.410  -1.878  30.708  1.00  0.00    -0.058 A 
HETATM    7  C8  UNK     1      19.813  -0.955  31.574  1.00  0.00     0.022 A 
HETATM    8  C11 UNK     1      18.396   2.473  31.422  1.00  0.00     0.097 A 
HETATM    9  C12 UNK     1      20.183  -0.325  28.879  1.00  0.00     0.039 A 
HETATM   10  C13 UNK     1      20.595  -1.563  29.362  1.00  0.00     0.010 A 
HETATM   11  C16 UNK     1      18.593   2.795  29.998  1.00  0.00     0.289 A 
ENDROOT
BRANCH   4  12
HETATM   12  C3  UNK     1      18.503   1.154  33.349  1.00  0.00     0.088 A 
HETATM   13  O1  UNK     1      18.641  -0.038  33.988  1.00  0.00    -0.306 OA
HETATM   14  C5  UNK     1      18.314   0.169  35.294  1.00  0.00     0.119 A 
HETATM   15  C14 UNK     1      18.322  -0.798  36.298  1.00  0.00     0.103 A 
HETATM   16  C4  UNK     1      17.961   1.500  35.496  1.00  0.00     0.003 A 
HETATM   17  C17 UNK     1      17.949  -0.371  37.576  1.00  0.00     0.040 A 
HETATM   18  C18 UNK     1      17.589   0.956  37.820  1.00  0.00     0.004 A 
HETATM   19  C15 UNK     1      17.589   1.907  36.789  1.00  0.00     0.014 A 
HETATM   20  C9  UNK     1      18.086   2.129  34.230  1.00  0.00     0.052 A 
BRANCH  15  21
HETATM   21  O3  UNK     1      18.674  -2.094  36.063  1.00  0.00    -0.349 OA
BRANCH  21  22
HETATM   22  C20 UNK     1      19.880  -2.557  36.665  1.00  0.00     0.171 C 
HETATM   23  C21 UNK     1      19.905  -4.071  36.616  1.00  0.00     0.034 C 
ENDBRANCH  21  22
ENDBRANCH  15  21
ENDBRANCH   4  12
BRANCH   6  24
HETATM   24  C10 UNK     1      20.851  -3.206  31.228  1.00  0.00     0.034 C 
HETATM   25  C19 UNK     1      21.003  -3.212  32.746  1.00  0.00     0.010 C 
ENDBRANCH   6  24
TORSDOF 4
ENDMDL
MODEL 5
REMARK VINA RESULT:      -8.5     24.101     26.283
REMARK  4 active torsions:
REMARK  status: ('A' for Active; 'I' for Inactive)
REMARK    1  A    between atoms: C14_18  and  O3_3 
REMARK    2  A    between atoms: C20_24  and  O3_3 
REMARK    3  A    between atoms: C2_6  and  C3_7 
REMARK    4  A    between atoms: C10_14  and  C7_11 
ROOT
HETATM    1  O2  UNK     1      18.925   3.163  29.414  1.00  0.00    -0.275 OA
HETATM    2  O4  UNK     1      19.011   0.944  28.865  1.00  0.00    -0.260 OA
HETATM    3  C1  UNK     1      18.599   3.795  31.746  1.00  0.00     0.012 A 
HETATM    4  C2  UNK     1      18.554   2.373  32.115  1.00  0.00     0.017 A 
HETATM    5  C6  UNK     1      18.783   4.147  30.411  1.00  0.00     0.090 A 
HETATM    6  C7  UNK     1      18.518   6.167  32.282  1.00  0.00    -0.058 A 
HETATM    7  C8  UNK     1      18.468   4.828  32.685  1.00  0.00     0.022 A 
HETATM    8  C11 UNK     1      18.691   1.458  31.141  1.00  0.00     0.097 A 
HETATM    9  C12 UNK     1      18.835   5.477  29.994  1.00  0.00     0.039 A 
HETATM   10  C13 UNK     1      18.701   6.490  30.937  1.00  0.00     0.010 A 
HETATM   11  C16 UNK     1      18.887   1.811  29.724  1.00  0.00     0.289 A 
ENDROOT
BRANCH   4  12
HETATM   12  C3  UNK     1      18.374   1.867  33.421  1.00  0.00     0.088 A 
HETATM   13  O1  UNK     1      18.707   0.591  33.755  1.00  0.00    -0.306 OA
HETATM   14  C5  UNK     1      18.408   0.434  35.075  1.00  0.00     0.119 A 
HETATM   15  C14 UNK     1      18.596  -0.730  35.818  1.00  0.00     0.103 A 
HETATM   16  C4  UNK     1      17.880   1.613  35.591  1.00  0.00     0.003 A 
HETATM   17  C17 UNK     1      18.220  -0.676  37.163  1.00  0.00     0.040 A 
HETATM   18  C18 UNK     1      17.686   0.488  37.721  1.00  0.00     0.004 A 
HETATM   19  C15 UNK     1      17.508   1.644  36.947  1.00  0.00     0.014 A 
HETATM   20  C9  UNK     1      17.862   2.534  34.512  1.00  0.00     0.052 A 
BRANCH  15  21
HETATM   21  O3  UNK     1      19.116  -1.868  35.277  1.00  0.00    -0.349 OA
BRANCH  21  22
HETATM   22  C20 UNK     1      20.296  -2.392  35.882  1.00  0.00     0.171 C 
HETATM   23  C21 UNK     1      20.006  -3.783  36.405  1.00  0.00     0.034 C 
ENDBRANCH  21  22
ENDBRANCH  15  21
ENDBRANCH   4  12
BRANCH   6  24
HETATM   24  C10 UNK     1      18.375   7.253  33.295  1.00  0.00     0.034 C 
HETATM   25  C19 UNK     1      19.723   7.724  33.832  1.00  0.00     0.010 C 
ENDBRANCH   6  24
TORSDOF 4
ENDMDL
MODEL 6
REMARK VINA RESULT:      -8.5     24.310     26.602
REMARK  4 active torsions:
REMARK  status: ('A' for Active; 'I' for Inactive)
REMARK    1  A    between atoms: C14_18  and  O3_3 
REMARK    2  A    between atoms: C20_24  and  O3_3 
REMARK    3  A    between atoms: C2_6  and  C3_7 
REMARK    4  A    between atoms: C10_14  and  C7_11 
ROOT
HETATM    1  O2  UNK     1      21.041  -3.177  30.742  1.00  0.00    -0.275 OA
HETATM    2  O4  UNK     1      21.595  -4.853  32.196  1.00  0.00    -0.260 OA
HETATM    3  C1  UNK     1      19.876  -1.210  31.587  1.00  0.00     0.012 A 
HETATM    4  C2  UNK     1      19.895  -1.791  32.937  1.00  0.00     0.017 A 
HETATM    5  C6  UNK     1      20.448  -1.918  30.532  1.00  0.00     0.090 A 
HETATM    6  C7  UNK     1      19.312   0.548  30.002  1.00  0.00    -0.058 A 
HETATM    7  C8  UNK     1      19.305   0.039  31.306  1.00  0.00     0.022 A 
HETATM    8  C11 UNK     1      20.468  -2.994  33.104  1.00  0.00     0.097 A 
HETATM    9  C12 UNK     1      20.463  -1.424  29.228  1.00  0.00     0.039 A 
HETATM   10  C13 UNK     1      19.890  -0.184  28.965  1.00  0.00     0.010 A 
HETATM   11  C16 UNK     1      21.079  -3.757  32.001  1.00  0.00     0.289 A 
ENDROOT
BRANCH   4  12
HETATM   12  C3  UNK     1      19.357  -1.194  34.098  1.00  0.00     0.088 A 
HETATM   13  O1  UNK     1      19.158   0.147  34.196  1.00  0.00    -0.306 OA
HETATM   14  C5  UNK     1      18.633   0.382  35.432  1.00  0.00     0.119 A 
HETATM   15  C14 UNK     1      18.280   1.631  35.940  1.00  0.00     0.103 A 
HETATM   16  C4  UNK     1      18.495  -0.812  36.130  1.00  0.00     0.003 A 
HETATM   17  C17 UNK     1      17.757   1.649  37.237  1.00  0.00     0.040 A 
HETATM   18  C18 UNK     1      17.602   0.471  37.972  1.00  0.00     0.004 A 
HETATM   19  C15 UNK     1      17.967  -0.771  37.433  1.00  0.00     0.014 A 
HETATM   20  C9  UNK     1      18.967  -1.827  35.258  1.00  0.00     0.052 A 
BRANCH  15  21
HETATM   21  O3  UNK     1      18.430   2.782  35.226  1.00  0.00    -0.349 OA
BRANCH  21  22
HETATM   22  C20 UNK     1      17.984   2.767  33.872  1.00  0.00     0.171 C 
HETATM   23  C21 UNK     1      18.285   4.109  33.239  1.00  0.00     0.034 C 
ENDBRANCH  21  22
ENDBRANCH  15  21
ENDBRANCH   4  12
BRANCH   6  24
HETATM   24  C10 UNK     1      18.698   1.878  29.722  1.00  0.00     0.034 C 
HETATM   25  C19 UNK     1      17.808   1.855  28.482  1.00  0.00     0.010 C 
ENDBRANCH   6  24
TORSDOF 4
ENDMDL
MODEL 7
REMARK VINA RESULT:      -8.3      1.418      1.733
REMARK  4 active torsions:
REMARK  status: ('A' for Active; 'I' for Inactive)
REMARK    1  A    between atoms: C14_18  and  O3_3 
REMARK    2  A    between atoms: C20_24  and  O3_3 
REMARK    3  A    between atoms: C2_6  and  C3_7 
REMARK    4  A    between atoms: C10_14  and  C7_11 
ROOT
HETATM    1  O2  UNK     1      16.523   6.850  10.106  1.00  0.00    -0.275 OA
HETATM    2  O4  UNK     1      16.698   4.662   9.466  1.00  0.00    -0.260 OA
HETATM    3  C1  UNK     1      14.444   8.050   9.676  1.00  0.00     0.012 A 
HETATM    4  C2  UNK     1      13.884   6.838   9.060  1.00  0.00     0.017 A 
HETATM    5  C6  UNK     1      15.743   8.020  10.179  1.00  0.00     0.090 A 
HETATM    6  C7  UNK     1      14.304  10.374  10.379  1.00  0.00    -0.058 A 
HETATM    7  C8  UNK     1      13.725   9.247   9.784  1.00  0.00     0.022 A 
HETATM    8  C11 UNK     1      14.654   5.738   9.005  1.00  0.00     0.097 A 
HETATM    9  C12 UNK     1      16.334   9.135  10.774  1.00  0.00     0.039 A 
HETATM   10  C13 UNK     1      15.608  10.317  10.873  1.00  0.00     0.010 A 
HETATM   11  C16 UNK     1      16.029   5.688   9.534  1.00  0.00     0.289 A 
ENDROOT
BRANCH   4  12
HETATM   12  C3  UNK     1      12.590   6.717   8.509  1.00  0.00     0.088 A 
HETATM   13  O1  UNK     1      11.494   6.488   9.280  1.00  0.00    -0.306 OA
HETATM   14  C5  UNK     1      10.422   6.427   8.440  1.00  0.00     0.119 A 
HETATM   15  C14 UNK     1       9.100   6.207   8.824  1.00  0.00     0.103 A 
HETATM   16  C4  UNK     1      10.831   6.616   7.125  1.00  0.00     0.003 A 
HETATM   17  C17 UNK     1       8.151   6.181   7.798  1.00  0.00     0.040 A 
HETATM   18  C18 UNK     1       8.521   6.367   6.463  1.00  0.00     0.004 A 
HETATM   19  C15 UNK     1       9.860   6.585   6.108  1.00  0.00     0.014 A 
HETATM   20  C9  UNK     1      12.237   6.802   7.180  1.00  0.00     0.052 A 
BRANCH  15  21
HETATM   21  O3  UNK     1       8.736   6.025  10.125  1.00  0.00    -0.349 OA
BRANCH  21  22
HETATM   22  C20 UNK     1       7.458   5.441  10.363  1.00  0.00     0.171 C 
HETATM   23  C21 UNK     1       6.625   6.399  11.190  1.00  0.00     0.034 C 
ENDBRANCH  21  22
ENDBRANCH  15  21
ENDBRANCH   4  12
BRANCH   6  24
HETATM   24  C10 UNK     1      13.524  11.642  10.484  1.00  0.00     0.034 C 
HETATM   25  C19 UNK     1      12.024  11.390  10.600  1.00  0.00     0.010 C 
ENDBRANCH   6  24
TORSDOF 4
ENDMDL
MODEL 8
REMARK VINA RESULT:      -8.2     23.940     26.258
REMARK  4 active torsions:
REMARK  status: ('A' for Active; 'I' for Inactive)
REMARK    1  A    between atoms: C14_18  and  O3_3 
REMARK    2  A    between atoms: C20_24  and  O3_3 
REMARK    3  A    between atoms: C2_6  and  C3_7 
REMARK    4  A    between atoms: C10_14  and  C7_11 
ROOT
HETATM    1  O2  UNK     1      18.749   6.039  32.189  1.00  0.00    -0.275 OA
HETATM    2  O4  UNK     1      18.753   7.099  34.215  1.00  0.00    -0.260 OA
HETATM    3  C1  UNK     1      18.502   3.614  32.120  1.00  0.00     0.012 A 
HETATM    4  C2  UNK     1      18.425   3.590  33.588  1.00  0.00     0.017 A 
HETATM    5  C6  UNK     1      18.662   4.834  31.466  1.00  0.00     0.090 A 
HETATM    6  C7  UNK     1      18.500   2.532  29.942  1.00  0.00    -0.058 A 
HETATM    7  C8  UNK     1      18.420   2.455  31.337  1.00  0.00     0.022 A 
HETATM    8  C11 UNK     1      18.513   4.756  34.249  1.00  0.00     0.097 A 
HETATM    9  C12 UNK     1      18.743   4.926  30.076  1.00  0.00     0.039 A 
HETATM   10  C13 UNK     1      18.662   3.766  29.313  1.00  0.00     0.010 A 
HETATM   11  C16 UNK     1      18.680   6.056  33.574  1.00  0.00     0.289 A 
ENDROOT
BRANCH   4  12
HETATM   12  C3  UNK     1      18.266   2.437  34.385  1.00  0.00     0.088 A 
HETATM   13  O1  UNK     1      18.834   1.245  34.057  1.00  0.00    -0.306 OA
HETATM   14  C5  UNK     1      18.483   0.356  35.028  1.00  0.00     0.119 A 
HETATM   15  C14 UNK     1      18.858  -0.986  35.074  1.00  0.00     0.103 A 
HETATM   16  C4  UNK     1      17.686   0.977  35.984  1.00  0.00     0.003 A 
HETATM   17  C17 UNK     1      18.387  -1.725  36.163  1.00  0.00     0.040 A 
HETATM   18  C18 UNK     1      17.584  -1.139  37.145  1.00  0.00     0.004 A 
HETATM   19  C15 UNK     1      17.222   0.214  37.070  1.00  0.00     0.014 A 
HETATM   20  C9  UNK     1      17.550   2.324  35.558  1.00  0.00     0.052 A 
BRANCH  15  21
HETATM   21  O3  UNK     1      19.641  -1.561  34.118  1.00  0.00    -0.349 OA
BRANCH  21  22
HETATM   22  C20 UNK     1      19.156  -1.530  32.778  1.00  0.00     0.171 C 
HETATM   23  C21 UNK     1      20.273  -1.936  31.840  1.00  0.00     0.034 C 
ENDBRANCH  21  22
ENDBRANCH  15  21
ENDBRANCH   4  12
BRANCH   6  24
HETATM   24  C10 UNK     1      18.413   1.287  29.124  1.00  0.00     0.034 C 
HETATM   25  C19 UNK     1      19.706   0.478  29.160  1.00  0.00     0.010 C 
ENDBRANCH   6  24
TORSDOF 4
ENDMDL
MODEL 9
REMARK VINA RESULT:      -8.0     23.855     26.045
REMARK  4 active torsions:
REMARK  status: ('A' for Active; 'I' for Inactive)
REMARK    1  A    between atoms: C14_18  and  O3_3 
REMARK    2  A    between atoms: C20_24  and  O3_3 
REMARK    3  A    between atoms: C2_6  and  C3_7 
REMARK    4  A    between atoms: C10_14  and  C7_11 
ROOT
HETATM    1  O2  UNK     1      19.236   1.337  28.760  1.00  0.00    -0.275 OA
HETATM    2  O4  UNK     1      19.751  -0.739  27.950  1.00  0.00    -0.260 OA
HETATM    3  C1  UNK     1      18.876   1.619  31.155  1.00  0.00     0.012 A 
HETATM    4  C2  UNK     1      19.133   0.185  31.353  1.00  0.00     0.017 A 
HETATM    5  C6  UNK     1      18.935   2.151  29.868  1.00  0.00     0.090 A 
HETATM    6  C7  UNK     1      18.335   3.846  31.970  1.00  0.00    -0.058 A 
HETATM    7  C8  UNK     1      18.573   2.489  32.211  1.00  0.00     0.022 A 
HETATM    8  C11 UNK     1      19.417  -0.564  30.275  1.00  0.00     0.097 A 
HETATM    9  C12 UNK     1      18.700   3.502  29.612  1.00  0.00     0.039 A 
HETATM   10  C13 UNK     1      18.398   4.352  30.671  1.00  0.00     0.010 A 
HETATM   11  C16 UNK     1      19.486  -0.020  28.907  1.00  0.00     0.289 A 
ENDROOT
BRANCH   4  12
HETATM   12  C3  UNK     1      19.109  -0.492  32.590  1.00  0.00     0.088 A 
HETATM   13  O1  UNK     1      18.176  -0.225  33.544  1.00  0.00    -0.306 OA
HETATM   14  C5  UNK     1      18.439  -1.047  34.598  1.00  0.00     0.119 A 
HETATM   15  C14 UNK     1      17.716  -1.096  35.790  1.00  0.00     0.103 A 
HETATM   16  C4  UNK     1      19.545  -1.844  34.324  1.00  0.00     0.003 A 
HETATM   17  C17 UNK     1      18.157  -2.015  36.747  1.00  0.00     0.040 A 
HETATM   18  C18 UNK     1      19.264  -2.834  36.509  1.00  0.00     0.004 A 
HETATM   19  C15 UNK     1      19.971  -2.761  35.301  1.00  0.00     0.014 A 
HETATM   20  C9  UNK     1      19.972  -1.476  33.021  1.00  0.00     0.052 A 
BRANCH  15  21
HETATM   21  O3  UNK     1      16.636  -0.298  36.025  1.00  0.00    -0.349 OA
BRANCH  21  22
HETATM   22  C20 UNK     1      16.674   0.515  37.195  1.00  0.00     0.171 C 
HETATM   23  C21 UNK     1      17.663   1.642  36.979  1.00  0.00     0.034 C 
ENDBRANCH  21  22
ENDBRANCH  15  21
ENDBRANCH   4  12
BRANCH   6  24
HETATM   24  C10 UNK     1      18.012   4.757  33.107  1.00  0.00     0.034 C 
HETATM   25  C19 UNK     1      18.965   5.946  33.185  1.00  0.00     0.010 C 
ENDBRANCH   6  24
TORSDOF 4
ENDMDL
MODEL 10
REMARK VINA RESULT:      -8.0     23.807     25.856
REMARK  4 active torsions:
REMARK  status: ('A' for Active; 'I' for Inactive)
REMARK    1  A    between atoms: C14_18  and  O3_3 
REMARK    2  A    between atoms: C20_24  and  O3_3 
REMARK    3  A    between atoms: C2_6  and  C3_7 
REMARK    4  A    between atoms: C10_14  and  C7_11 
ROOT
HETATM    1  O2  UNK     1      19.107  -1.786  32.970  1.00  0.00    -0.275 OA
HETATM    2  O4  UNK     1      19.866  -2.127  30.840  1.00  0.00    -0.260 OA
HETATM    3  C1  UNK     1      18.443   0.459  33.648  1.00  0.00     0.012 A 
HETATM    4  C2  UNK     1      18.783   0.954  32.306  1.00  0.00     0.017 A 
HETATM    5  C6  UNK     1      18.615  -0.892  33.940  1.00  0.00     0.090 A 
HETATM    6  C7  UNK     1      17.639   0.771  35.923  1.00  0.00    -0.058 A 
HETATM    7  C8  UNK     1      17.946   1.291  34.661  1.00  0.00     0.022 A 
HETATM    8  C11 UNK     1      19.251   0.076  31.404  1.00  0.00     0.097 A 
HETATM    9  C12 UNK     1      18.312  -1.426  35.193  1.00  0.00     0.039 A 
HETATM   10  C13 UNK     1      17.822  -0.586  36.188  1.00  0.00     0.010 A 
HETATM   11  C16 UNK     1      19.438  -1.357  31.694  1.00  0.00     0.289 A 
ENDROOT
BRANCH   4  12
HETATM   12  C3  UNK     1      18.663   2.290  31.867  1.00  0.00     0.088 A 
HETATM   13  O1  UNK     1      18.170   3.274  32.666  1.00  0.00    -0.306 OA
HETATM   14  C5  UNK     1      18.192   4.426  31.939  1.00  0.00     0.119 A 
HETATM   15  C14 UNK     1      17.771   5.677  32.386  1.00  0.00     0.103 A 
HETATM   16  C4  UNK     1      18.698   4.182  30.667  1.00  0.00     0.003 A 
HETATM   17  C17 UNK     1      17.878   6.732  31.474  1.00  0.00     0.040 A 
HETATM   18  C18 UNK     1      18.382   6.529  30.187  1.00  0.00     0.004 A 
HETATM   19  C15 UNK     1      18.797   5.257  29.766  1.00  0.00     0.014 A 
HETATM   20  C9  UNK     1      18.999   2.796  30.629  1.00  0.00     0.052 A 
BRANCH  15  21
HETATM   21  O3  UNK     1      17.279   5.879  33.641  1.00  0.00    -0.349 OA
BRANCH  21  22
HETATM   22  C20 UNK     1      17.821   6.970  34.382  1.00  0.00     0.171 C 
HETATM   23  C21 UNK     1      16.687   7.740  35.025  1.00  0.00     0.034 C 
ENDBRANCH  21  22
ENDBRANCH  15  21
ENDBRANCH   4  12
BRANCH   6  24
HETATM   24  C10 UNK     1      17.112   1.672  36.989  1.00  0.00     0.034 C 
HETATM   25  C19 UNK     1      17.619   1.286  38.375  1.00  0.00     0.010 C 
ENDBRANCH   6  24
TORSDOF 4
ENDMDL
