MODEL 1
REMARK VINA RESULT:      -7.3      0.000      0.000
REMARK  3 active torsions:
REMARK  status: ('A' for Active; 'I' for Inactive)
REMARK    1  A    between atoms: C12_16  and  O2_2 
REMARK    2  A    between atoms: C6_10  and  O2_2 
REMARK    3  A    between atoms: C11_15  and  C12_16 
ROOT
HETATM    1  O1  UNK     1      19.266  -0.167  32.832  1.00  0.00    -0.275 OA
HETATM    2  O3  UNK     1      20.084  -2.233  33.373  1.00  0.00    -0.260 OA
HETATM    3  C1  UNK     1      19.385   0.595  30.513  1.00  0.00     0.004 A 
HETATM    4  C2  UNK     1      19.025   0.810  31.844  1.00  0.00     0.092 A 
HETATM    5  C3  UNK     1      20.026  -0.678  30.154  1.00  0.00    -0.043 A 
HETATM    6  C4  UNK     1      19.110   1.615  29.593  1.00  0.00     0.017 A 
HETATM    7  C5  UNK     1      18.412   1.989  32.270  1.00  0.00     0.075 A 
HETATM    8  C6  UNK     1      18.148   2.990  31.341  1.00  0.00     0.082 A 
HETATM    9  C7  UNK     1      18.496   2.803  30.004  1.00  0.00     0.038 A 
HETATM   10  C8  UNK     1      20.244  -1.588  31.114  1.00  0.00     0.090 A 
HETATM   11  C9  UNK     1      20.425  -0.939  28.732  1.00  0.00     0.049 C 
HETATM   12  C10 UNK     1      19.869  -1.376  32.522  1.00  0.00     0.288 A 
ENDROOT
BRANCH   8  13
HETATM   13  O2  UNK     1      17.551   4.148  31.735  1.00  0.00    -0.279 OA
BRANCH  13  14
HETATM   14  C12 UNK     1      18.437   5.103  32.269  1.00  0.00     0.263 C 
HETATM   15  O4  UNK     1      18.829   5.134  33.427  1.00  0.00    -0.265 OA
BRANCH  14  16
HETATM   16  C11 UNK     1      18.831   6.082  31.186  1.00  0.00     0.107 C 
HETATM   17  C13 UNK     1      20.272   5.898  30.746  1.00  0.00     0.015 C 
ENDBRANCH  14  16
ENDBRANCH  13  14
ENDBRANCH   8  13
TORSDOF 3
ENDMDL
MODEL 2
REMARK VINA RESULT:      -7.2     22.918     24.479
REMARK  3 active torsions:
REMARK  status: ('A' for Active; 'I' for Inactive)
REMARK    1  A    between atoms: C12_16  and  O2_2 
REMARK    2  A    between atoms: C6_10  and  O2_2 
REMARK    3  A    between atoms: C11_15  and  C12_16 
ROOT
HETATM    1  O1  UNK     1       9.449   5.522   9.563  1.00  0.00    -0.275 OA
HETATM    2  O3  UNK     1       7.181   5.643   9.296  1.00  0.00    -0.260 OA
HETATM    3  C1  UNK     1      10.902   5.913   7.638  1.00  0.00     0.004 A 
HETATM    4  C2  UNK     1      10.734   5.615   8.990  1.00  0.00     0.092 A 
HETATM    5  C3  UNK     1       9.705   6.130   6.811  1.00  0.00    -0.043 A 
HETATM    6  C4  UNK     1      12.211   5.987   7.146  1.00  0.00     0.017 A 
HETATM    7  C5  UNK     1      11.815   5.395   9.845  1.00  0.00     0.075 A 
HETATM    8  C6  UNK     1      13.108   5.474   9.338  1.00  0.00     0.082 A 
HETATM    9  C7  UNK     1      13.306   5.770   7.990  1.00  0.00     0.038 A 
HETATM   10  C8  UNK     1       8.497   6.034   7.383  1.00  0.00     0.090 A 
HETATM   11  C9  UNK     1       9.852   6.451   5.354  1.00  0.00     0.049 C 
HETATM   12  C10 UNK     1       8.304   5.722   8.809  1.00  0.00     0.288 A 
ENDROOT
BRANCH   8  13
HETATM   13  O2  UNK     1      14.177   5.262  10.154  1.00  0.00    -0.279 OA
BRANCH  13  14
HETATM   14  C12 UNK     1      14.941   6.416  10.416  1.00  0.00     0.263 C 
HETATM   15  O4  UNK     1      14.542   7.406  11.014  1.00  0.00    -0.265 OA
BRANCH  14  16
HETATM   16  C11 UNK     1      16.329   6.238   9.845  1.00  0.00     0.107 C 
HETATM   17  C13 UNK     1      17.252   7.384  10.221  1.00  0.00     0.015 C 
ENDBRANCH  14  16
ENDBRANCH  13  14
ENDBRANCH   8  13
TORSDOF 3
ENDMDL
MODEL 3
REMARK VINA RESULT:      -7.2      3.862      6.140
REMARK  3 active torsions:
REMARK  status: ('A' for Active; 'I' for Inactive)
REMARK    1  A    between atoms: C12_16  and  O2_2 
REMARK    2  A    between atoms: C6_10  and  O2_2 
REMARK    3  A    between atoms: C11_15  and  C12_16 
ROOT
HETATM    1  O1  UNK     1      16.897  -0.220  34.064  1.00  0.00    -0.275 OA
HETATM    2  O3  UNK     1      15.196   0.738  35.254  1.00  0.00    -0.260 OA
HETATM    3  C1  UNK     1      18.666  -1.412  35.256  1.00  0.00     0.004 A 
HETATM    4  C2  UNK     1      18.096  -0.963  34.065  1.00  0.00     0.092 A 
HETATM    5  C3  UNK     1      17.990  -1.097  36.523  1.00  0.00    -0.043 A 
HETATM    6  C4  UNK     1      19.857  -2.144  35.171  1.00  0.00     0.017 A 
HETATM    7  C5  UNK     1      18.671  -1.219  32.820  1.00  0.00     0.075 A 
HETATM    8  C6  UNK     1      19.855  -1.947  32.756  1.00  0.00     0.082 A 
HETATM    9  C7  UNK     1      20.447  -2.409  33.930  1.00  0.00     0.038 A 
HETATM   10  C8  UNK     1      16.852  -0.389  36.492  1.00  0.00     0.090 A 
HETATM   11  C9  UNK     1      18.578  -1.565  37.821  1.00  0.00     0.049 C 
HETATM   12  C10 UNK     1      16.238   0.092  35.243  1.00  0.00     0.288 A 
ENDROOT
BRANCH   8  13
HETATM   13  O2  UNK     1      20.433  -2.208  31.552  1.00  0.00    -0.279 OA
BRANCH  13  14
HETATM   14  C12 UNK     1      20.645  -1.067  30.753  1.00  0.00     0.263 C 
HETATM   15  O4  UNK     1      21.067   0.008  31.155  1.00  0.00    -0.265 OA
BRANCH  14  16
HETATM   16  C11 UNK     1      20.271  -1.382  29.322  1.00  0.00     0.107 C 
HETATM   17  C13 UNK     1      19.664  -0.183  28.615  1.00  0.00     0.015 C 
ENDBRANCH  14  16
ENDBRANCH  13  14
ENDBRANCH   8  13
TORSDOF 3
ENDMDL
MODEL 4
REMARK VINA RESULT:      -7.1      1.646      2.487
REMARK  3 active torsions:
REMARK  status: ('A' for Active; 'I' for Inactive)
REMARK    1  A    between atoms: C12_16  and  O2_2 
REMARK    2  A    between atoms: C6_10  and  O2_2 
REMARK    3  A    between atoms: C11_15  and  C12_16 
ROOT
HETATM    1  O1  UNK     1      19.564   0.914  29.398  1.00  0.00    -0.275 OA
HETATM    2  O3  UNK     1      20.511  -0.732  28.124  1.00  0.00    -0.260 OA
HETATM    3  C1  UNK     1      19.100   0.481  31.758  1.00  0.00     0.004 A 
HETATM    4  C2  UNK     1      19.076   1.333  30.653  1.00  0.00     0.092 A 
HETATM    5  C3  UNK     1      19.647  -0.873  31.591  1.00  0.00    -0.043 A 
HETATM    6  C4  UNK     1      18.597   0.973  32.968  1.00  0.00     0.017 A 
HETATM    7  C5  UNK     1      18.575   2.633  30.725  1.00  0.00     0.075 A 
HETATM    8  C6  UNK     1      18.080   3.103  31.936  1.00  0.00     0.082 A 
HETATM    9  C7  UNK     1      18.092   2.275  33.057  1.00  0.00     0.038 A 
HETATM   10  C8  UNK     1      20.103  -1.245  30.386  1.00  0.00     0.090 A 
HETATM   11  C9  UNK     1      19.687  -1.813  32.759  1.00  0.00     0.049 C 
HETATM   12  C10 UNK     1      20.085  -0.357  29.211  1.00  0.00     0.288 A 
ENDROOT
BRANCH   8  13
HETATM   13  O2  UNK     1      17.586   4.369  32.028  1.00  0.00    -0.279 OA
BRANCH  13  14
HETATM   14  C12 UNK     1      18.570   5.363  32.190  1.00  0.00     0.263 C 
HETATM   15  O4  UNK     1      19.270   5.510  33.183  1.00  0.00    -0.265 OA
BRANCH  14  16
HETATM   16  C11 UNK     1      18.628   6.218  30.944  1.00  0.00     0.107 C 
HETATM   17  C13 UNK     1      19.872   5.939  30.119  1.00  0.00     0.015 C 
ENDBRANCH  14  16
ENDBRANCH  13  14
ENDBRANCH   8  13
TORSDOF 3
ENDMDL
MODEL 5
REMARK VINA RESULT:      -7.1      2.731      7.176
REMARK  3 active torsions:
REMARK  status: ('A' for Active; 'I' for Inactive)
REMARK    1  A    between atoms: C12_16  and  O2_2 
REMARK    2  A    between atoms: C6_10  and  O2_2 
REMARK    3  A    between atoms: C11_15  and  C12_16 
ROOT
HETATM    1  O1  UNK     1      16.385   7.062  33.171  1.00  0.00    -0.275 OA
HETATM    2  O3  UNK     1      15.270   8.525  34.530  1.00  0.00    -0.260 OA
HETATM    3  C1  UNK     1      18.825   7.146  33.070  1.00  0.00     0.004 A 
HETATM    4  C2  UNK     1      17.612   6.585  32.667  1.00  0.00     0.092 A 
HETATM    5  C3  UNK     1      18.801   8.251  34.039  1.00  0.00    -0.043 A 
HETATM    6  C4  UNK     1      19.999   6.615  32.523  1.00  0.00     0.017 A 
HETATM    7  C5  UNK     1      17.544   5.534  31.752  1.00  0.00     0.075 A 
HETATM    8  C6  UNK     1      18.723   5.021  31.220  1.00  0.00     0.082 A 
HETATM    9  C7  UNK     1      19.949   5.560  31.605  1.00  0.00     0.038 A 
HETATM   10  C8  UNK     1      17.620   8.684  34.501  1.00  0.00     0.090 A 
HETATM   11  C9  UNK     1      20.088   8.875  34.492  1.00  0.00     0.049 C 
HETATM   12  C10 UNK     1      16.332   8.102  34.086  1.00  0.00     0.288 A 
ENDROOT
BRANCH   8  13
HETATM   13  O2  UNK     1      18.679   3.995  30.326  1.00  0.00    -0.279 OA
BRANCH  13  14
HETATM   14  C12 UNK     1      18.421   2.736  30.903  1.00  0.00     0.263 C 
HETATM   15  O4  UNK     1      17.942   2.553  32.013  1.00  0.00    -0.265 OA
BRANCH  14  16
HETATM   16  C11 UNK     1      18.828   1.649  29.934  1.00  0.00     0.107 C 
HETATM   17  C13 UNK     1      17.945   1.626  28.699  1.00  0.00     0.015 C 
ENDBRANCH  14  16
ENDBRANCH  13  14
ENDBRANCH   8  13
TORSDOF 3
ENDMDL
MODEL 6
REMARK VINA RESULT:      -7.0      3.907      5.872
REMARK  3 active torsions:
REMARK  status: ('A' for Active; 'I' for Inactive)
REMARK    1  A    between atoms: C12_16  and  O2_2 
REMARK    2  A    between atoms: C6_10  and  O2_2 
REMARK    3  A    between atoms: C11_15  and  C12_16 
ROOT
HETATM    1  O1  UNK     1      20.681  -3.314  35.468  1.00  0.00    -0.275 OA
HETATM    2  O3  UNK     1      21.039  -4.025  37.612  1.00  0.00    -0.260 OA
HETATM    3  C1  UNK     1      19.010  -1.581  35.047  1.00  0.00     0.004 A 
HETATM    4  C2  UNK     1      19.980  -2.470  34.583  1.00  0.00     0.092 A 
HETATM    5  C3  UNK     1      18.728  -1.538  36.490  1.00  0.00    -0.043 A 
HETATM    6  C4  UNK     1      18.359  -0.777  34.103  1.00  0.00     0.017 A 
HETATM    7  C5  UNK     1      20.309  -2.574  33.231  1.00  0.00     0.075 A 
HETATM    8  C6  UNK     1      19.651  -1.767  32.308  1.00  0.00     0.082 A 
HETATM    9  C7  UNK     1      18.678  -0.869  32.744  1.00  0.00     0.038 A 
HETATM   10  C8  UNK     1      19.410  -2.352  37.308  1.00  0.00     0.090 A 
HETATM   11  C9  UNK     1      17.691  -0.594  37.021  1.00  0.00     0.049 C 
HETATM   12  C10 UNK     1      20.436  -3.295  36.833  1.00  0.00     0.288 A 
ENDROOT
BRANCH   8  13
HETATM   13  O2  UNK     1      19.957  -1.853  30.984  1.00  0.00    -0.279 OA
BRANCH  13  14
HETATM   14  C12 UNK     1      20.631  -0.727  30.472  1.00  0.00     0.263 C 
HETATM   15  O4  UNK     1      21.116   0.172  31.145  1.00  0.00    -0.265 OA
BRANCH  14  16
HETATM   16  C11 UNK     1      20.661  -0.805  28.963  1.00  0.00     0.107 C 
HETATM   17  C13 UNK     1      19.355  -0.343  28.341  1.00  0.00     0.015 C 
ENDBRANCH  14  16
ENDBRANCH  13  14
ENDBRANCH   8  13
TORSDOF 3
ENDMDL
MODEL 7
REMARK VINA RESULT:      -6.9      2.759      5.078
REMARK  3 active torsions:
REMARK  status: ('A' for Active; 'I' for Inactive)
REMARK    1  A    between atoms: C12_16  and  O2_2 
REMARK    2  A    between atoms: C6_10  and  O2_2 
REMARK    3  A    between atoms: C11_15  and  C12_16 
ROOT
HETATM    1  O1  UNK     1      18.464   1.924  31.388  1.00  0.00    -0.275 OA
HETATM    2  O3  UNK     1      18.596   3.106  29.435  1.00  0.00    -0.260 OA
HETATM    3  C1  UNK     1      19.384  -0.338  31.481  1.00  0.00     0.004 A 
HETATM    4  C2  UNK     1      18.736   0.734  32.094  1.00  0.00     0.092 A 
HETATM    5  C3  UNK     1      19.783  -0.206  30.072  1.00  0.00    -0.043 A 
HETATM    6  C4  UNK     1      19.617  -1.484  32.251  1.00  0.00     0.017 A 
HETATM    7  C5  UNK     1      18.324   0.692  33.427  1.00  0.00     0.075 A 
HETATM    8  C6  UNK     1      18.565  -0.455  34.176  1.00  0.00     0.082 A 
HETATM    9  C7  UNK     1      19.211  -1.541  33.589  1.00  0.00     0.038 A 
HETATM   10  C8  UNK     1      19.511   0.936  29.425  1.00  0.00     0.090 A 
HETATM   11  C9  UNK     1      20.482  -1.341  29.383  1.00  0.00     0.049 C 
HETATM   12  C10 UNK     1      18.829   2.076  30.060  1.00  0.00     0.288 A 
ENDROOT
BRANCH   8  13
HETATM   13  O2  UNK     1      18.172  -0.517  35.478  1.00  0.00    -0.279 OA
BRANCH  13  14
HETATM   14  C12 UNK     1      16.775  -0.513  35.661  1.00  0.00     0.263 C 
HETATM   15  O4  UNK     1      15.979  -1.202  35.038  1.00  0.00    -0.265 OA
BRANCH  14  16
HETATM   16  C11 UNK     1      16.415   0.475  36.747  1.00  0.00     0.107 C 
HETATM   17  C13 UNK     1      17.608   0.824  37.620  1.00  0.00     0.015 C 
ENDBRANCH  14  16
ENDBRANCH  13  14
ENDBRANCH   8  13
TORSDOF 3
ENDMDL
MODEL 8
REMARK VINA RESULT:      -6.9     22.465     24.173
REMARK  3 active torsions:
REMARK  status: ('A' for Active; 'I' for Inactive)
REMARK    1  A    between atoms: C12_16  and  O2_2 
REMARK    2  A    between atoms: C6_10  and  O2_2 
REMARK    3  A    between atoms: C11_15  and  C12_16 
ROOT
HETATM    1  O1  UNK     1      12.778   8.416  10.940  1.00  0.00    -0.275 OA
HETATM    2  O3  UNK     1      13.466   9.907  12.531  1.00  0.00    -0.260 OA
HETATM    3  C1  UNK     1      14.434   6.999   9.834  1.00  0.00     0.004 A 
HETATM    4  C2  UNK     1      13.112   7.412  10.008  1.00  0.00     0.092 A 
HETATM    5  C3  UNK     1      15.482   7.634  10.646  1.00  0.00    -0.043 A 
HETATM    6  C4  UNK     1      14.682   5.996   8.889  1.00  0.00     0.017 A 
HETATM    7  C5  UNK     1      12.057   6.861   9.279  1.00  0.00     0.075 A 
HETATM    8  C6  UNK     1      12.324   5.866   8.345  1.00  0.00     0.082 A 
HETATM    9  C7  UNK     1      13.635   5.433   8.150  1.00  0.00     0.038 A 
HETATM   10  C8  UNK     1      15.135   8.586  11.523  1.00  0.00     0.090 A 
HETATM   11  C9  UNK     1      16.912   7.213  10.482  1.00  0.00     0.049 C 
HETATM   12  C10 UNK     1      13.745   9.031  11.718  1.00  0.00     0.288 A 
ENDROOT
BRANCH   8  13
HETATM   13  O2  UNK     1      11.310   5.316   7.623  1.00  0.00    -0.279 OA
BRANCH  13  14
HETATM   14  C12 UNK     1      11.039   5.977   6.409  1.00  0.00     0.263 C 
HETATM   15  O4  UNK     1      11.882   6.437   5.652  1.00  0.00    -0.265 OA
BRANCH  14  16
HETATM   16  C11 UNK     1       9.544   6.027   6.188  1.00  0.00     0.107 C 
HETATM   17  C13 UNK     1       8.776   6.097   7.497  1.00  0.00     0.015 C 
ENDBRANCH  14  16
ENDBRANCH  13  14
ENDBRANCH   8  13
TORSDOF 3
ENDMDL
MODEL 9
REMARK VINA RESULT:      -6.8      2.840      5.160
REMARK  3 active torsions:
REMARK  status: ('A' for Active; 'I' for Inactive)
REMARK    1  A    between atoms: C12_16  and  O2_2 
REMARK    2  A    between atoms: C6_10  and  O2_2 
REMARK    3  A    between atoms: C11_15  and  C12_16 
ROOT
HETATM    1  O1  UNK     1      18.342   1.742  30.759  1.00  0.00    -0.275 OA
HETATM    2  O3  UNK     1      18.548   1.379  28.511  1.00  0.00    -0.260 OA
HETATM    3  C1  UNK     1      18.574   4.014  31.629  1.00  0.00     0.004 A 
HETATM    4  C2  UNK     1      18.351   2.653  31.836  1.00  0.00     0.092 A 
HETATM    5  C3  UNK     1      18.802   4.489  30.256  1.00  0.00    -0.043 A 
HETATM    6  C4  UNK     1      18.567   4.852  32.751  1.00  0.00     0.017 A 
HETATM    7  C5  UNK     1      18.126   2.119  33.105  1.00  0.00     0.075 A 
HETATM    8  C6  UNK     1      18.123   2.967  34.207  1.00  0.00     0.082 A 
HETATM    9  C7  UNK     1      18.343   4.332  34.030  1.00  0.00     0.038 A 
HETATM   10  C8  UNK     1      18.788   3.601  29.252  1.00  0.00     0.090 A 
HETATM   11  C9  UNK     1      19.045   5.947  30.000  1.00  0.00     0.049 C 
HETATM   12  C10 UNK     1      18.553   2.162  29.455  1.00  0.00     0.288 A 
ENDROOT
BRANCH   8  13
HETATM   13  O2  UNK     1      17.906   2.467  35.455  1.00  0.00    -0.279 OA
BRANCH  13  14
HETATM   14  C12 UNK     1      18.983   1.722  35.974  1.00  0.00     0.263 C 
HETATM   15  O4  UNK     1      20.120   2.143  36.138  1.00  0.00    -0.265 OA
BRANCH  14  16
HETATM   16  C11 UNK     1      18.512   0.323  36.300  1.00  0.00     0.107 C 
HETATM   17  C13 UNK     1      17.567   0.300  37.488  1.00  0.00     0.015 C 
ENDBRANCH  14  16
ENDBRANCH  13  14
ENDBRANCH   8  13
TORSDOF 3
ENDMDL
MODEL 10
REMARK VINA RESULT:      -6.8      2.282      5.931
REMARK  3 active torsions:
REMARK  status: ('A' for Active; 'I' for Inactive)
REMARK    1  A    between atoms: C12_16  and  O2_2 
REMARK    2  A    between atoms: C6_10  and  O2_2 
REMARK    3  A    between atoms: C11_15  and  C12_16 
ROOT
HETATM    1  O1  UNK     1      18.540   0.700  32.372  1.00  0.00    -0.275 OA
HETATM    2  O3  UNK     1      17.746   2.543  31.276  1.00  0.00    -0.260 OA
HETATM    3  C1  UNK     1      19.984  -0.870  31.180  1.00  0.00     0.004 A 
HETATM    4  C2  UNK     1      19.313  -0.479  32.339  1.00  0.00     0.092 A 
HETATM    5  C3  UNK     1      19.871  -0.025  29.982  1.00  0.00    -0.043 A 
HETATM    6  C4  UNK     1      20.730  -2.054  31.230  1.00  0.00     0.017 A 
HETATM    7  C5  UNK     1      19.367  -1.222  33.519  1.00  0.00     0.075 A 
HETATM    8  C6  UNK     1      20.114  -2.395  33.548  1.00  0.00     0.082 A 
HETATM    9  C7  UNK     1      20.795  -2.810  32.405  1.00  0.00     0.038 A 
HETATM   10  C8  UNK     1      19.129   1.090  30.043  1.00  0.00     0.090 A 
HETATM   11  C9  UNK     1      20.580  -0.418  28.721  1.00  0.00     0.049 C 
HETATM   12  C10 UNK     1      18.416   1.516  31.258  1.00  0.00     0.288 A 
ENDROOT
BRANCH   8  13
HETATM   13  O2  UNK     1      20.180  -3.135  34.688  1.00  0.00    -0.279 OA
BRANCH  13  14
HETATM   14  C12 UNK     1      20.787  -2.473  35.773  1.00  0.00     0.263 C 
HETATM   15  O4  UNK     1      21.781  -1.764  35.700  1.00  0.00    -0.265 OA
BRANCH  14  16
HETATM   16  C11 UNK     1      20.018  -2.775  37.039  1.00  0.00     0.107 C 
HETATM   17  C13 UNK     1      18.731  -1.974  37.130  1.00  0.00     0.015 C 
ENDBRANCH  14  16
ENDBRANCH  13  14
ENDBRANCH   8  13
TORSDOF 3
ENDMDL
