MODEL 1
REMARK VINA RESULT:      -7.7      0.000      0.000
REMARK  1 active torsions:
REMARK  status: ('A' for Active; 'I' for Inactive)
REMARK    1  A    between atoms: C3_6  and  C4_7 
ROOT
HETATM    1 Br1  UNK     1      17.435   8.167  33.146  1.00  0.00    -0.051 Br
HETATM    2  O1  UNK     1      19.053   2.892  30.663  1.00  0.00    -0.309 OA
HETATM    3  O2  UNK     1      17.816   2.861  34.545  1.00  0.00    -0.287 OA
HETATM    4  C1  UNK     1      18.241   4.123  32.593  1.00  0.00     0.049 A 
HETATM    5  C2  UNK     1      18.677   4.064  31.270  1.00  0.00     0.090 A 
HETATM    6  C3  UNK     1      18.991   1.718  31.398  1.00  0.00     0.090 A 
HETATM    7  C5  UNK     1      18.183   2.881  33.378  1.00  0.00     0.187 A 
HETATM    8  C6  UNK     1      18.596   1.648  32.679  1.00  0.00     0.093 A 
HETATM    9  C7  UNK     1      17.869   5.345  33.160  1.00  0.00     0.037 A 
HETATM   10  C8  UNK     1      18.744   5.228  30.505  1.00  0.00     0.039 A 
HETATM   11  C11 UNK     1      17.937   6.508  32.392  1.00  0.00     0.012 A 
HETATM   12  C12 UNK     1      18.372   6.450  31.067  1.00  0.00     0.022 A 
ENDROOT
BRANCH   6  13
HETATM   13  C4  UNK     1      19.424   0.520  30.651  1.00  0.00    -0.002 A 
HETATM   14  C10 UNK     1      19.521   0.560  29.258  1.00  0.00     0.014 A 
HETATM   15  C14 UNK     1      19.928  -0.572  28.551  1.00  0.00     0.001 A 
HETATM   16  C15 UNK     1      20.238  -1.747  29.234  1.00  0.00     0.000 A 
HETATM   17  C13 UNK     1      20.142  -1.791  30.625  1.00  0.00     0.001 A 
HETATM   18  C9  UNK     1      19.736  -0.659  31.332  1.00  0.00     0.014 A 
ENDBRANCH   6  13
TORSDOF 1
ENDMDL
MODEL 2
REMARK VINA RESULT:      -7.6      5.038      6.616
REMARK  1 active torsions:
REMARK  status: ('A' for Active; 'I' for Inactive)
REMARK    1  A    between atoms: C3_6  and  C4_7 
ROOT
HETATM    1 Br1  UNK     1      13.586  12.294  36.167  1.00  0.00    -0.051 Br
HETATM    2  O1  UNK     1      17.642   8.965  33.156  1.00  0.00    -0.309 OA
HETATM    3  O2  UNK     1      14.051   7.248  34.026  1.00  0.00    -0.287 OA
HETATM    4  C1  UNK     1      15.441   9.155  34.165  1.00  0.00     0.049 A 
HETATM    5  C2  UNK     1      16.690   9.680  33.838  1.00  0.00     0.090 A 
HETATM    6  C3  UNK     1      17.343   7.666  32.771  1.00  0.00     0.090 A 
HETATM    7  C5  UNK     1      15.124   7.774  33.767  1.00  0.00     0.187 A 
HETATM    8  C6  UNK     1      16.181   7.049  33.034  1.00  0.00     0.093 A 
HETATM    9  C7  UNK     1      14.509   9.929  34.860  1.00  0.00     0.037 A 
HETATM   10  C8  UNK     1      17.016  10.985  34.205  1.00  0.00     0.039 A 
HETATM   11  C11 UNK     1      14.838  11.235  35.227  1.00  0.00     0.012 A 
HETATM   12  C12 UNK     1      16.088  11.762  34.899  1.00  0.00     0.022 A 
ENDROOT
BRANCH   6  13
HETATM   13  C4  UNK     1      18.439   6.988  32.050  1.00  0.00    -0.002 A 
HETATM   14  C10 UNK     1      18.256   6.568  30.731  1.00  0.00     0.014 A 
HETATM   15  C14 UNK     1      19.290   5.924  30.050  1.00  0.00     0.001 A 
HETATM   16  C15 UNK     1      20.509   5.697  30.687  1.00  0.00     0.000 A 
HETATM   17  C13 UNK     1      20.696   6.115  32.005  1.00  0.00     0.001 A 
HETATM   18  C9  UNK     1      19.662   6.759  32.685  1.00  0.00     0.014 A 
ENDBRANCH   6  13
TORSDOF 1
ENDMDL
MODEL 3
REMARK VINA RESULT:      -7.4      3.202      7.055
REMARK  1 active torsions:
REMARK  status: ('A' for Active; 'I' for Inactive)
REMARK    1  A    between atoms: C3_6  and  C4_7 
ROOT
HETATM    1 Br1  UNK     1      18.326   1.125  28.990  1.00  0.00    -0.051 Br
HETATM    2  O1  UNK     1      18.977   6.502  31.687  1.00  0.00    -0.309 OA
HETATM    3  O2  UNK     1      17.845   3.345  34.001  1.00  0.00    -0.287 OA
HETATM    4  C1  UNK     1      18.433   4.141  31.854  1.00  0.00     0.049 A 
HETATM    5  C2  UNK     1      18.816   5.263  31.121  1.00  0.00     0.090 A 
HETATM    6  C3  UNK     1      18.756   6.640  33.049  1.00  0.00     0.090 A 
HETATM    7  C5  UNK     1      18.189   4.286  33.297  1.00  0.00     0.187 A 
HETATM    8  C6  UNK     1      18.378   5.638  33.858  1.00  0.00     0.093 A 
HETATM    9  C7  UNK     1      18.285   2.902  31.225  1.00  0.00     0.037 A 
HETATM   10  C8  UNK     1      19.052   5.152  29.750  1.00  0.00     0.039 A 
HETATM   11  C11 UNK     1      18.522   2.795  29.854  1.00  0.00     0.012 A 
HETATM   12  C12 UNK     1      18.906   3.917  29.118  1.00  0.00     0.022 A 
ENDROOT
BRANCH   6  13
HETATM   13  C4  UNK     1      18.951   8.015  33.551  1.00  0.00    -0.002 A 
HETATM   14  C10 UNK     1      17.913   8.945  33.470  1.00  0.00     0.014 A 
HETATM   15  C14 UNK     1      18.097  10.245  33.942  1.00  0.00     0.001 A 
HETATM   16  C15 UNK     1      19.321  10.619  34.495  1.00  0.00     0.000 A 
HETATM   17  C13 UNK     1      20.361   9.693  34.578  1.00  0.00     0.001 A 
HETATM   18  C9  UNK     1      20.176   8.393  34.107  1.00  0.00     0.014 A 
ENDBRANCH   6  13
TORSDOF 1
ENDMDL
MODEL 4
REMARK VINA RESULT:      -7.3      8.374     11.155
REMARK  1 active torsions:
REMARK  status: ('A' for Active; 'I' for Inactive)
REMARK    1  A    between atoms: C3_6  and  C4_7 
ROOT
HETATM    1 Br1  UNK     1      20.449 -10.469  37.178  1.00  0.00    -0.051 Br
HETATM    2  O1  UNK     1      18.784  -4.687  36.544  1.00  0.00    -0.309 OA
HETATM    3  O2  UNK     1      22.441  -5.439  38.176  1.00  0.00    -0.287 OA
HETATM    4  C1  UNK     1      20.445  -6.309  37.257  1.00  0.00     0.049 A 
HETATM    5  C2  UNK     1      19.206  -5.982  36.709  1.00  0.00     0.090 A 
HETATM    6  C3  UNK     1      19.632  -3.661  36.935  1.00  0.00     0.090 A 
HETATM    7  C5  UNK     1      21.342  -5.224  37.681  1.00  0.00     0.187 A 
HETATM    8  C6  UNK     1      20.843  -3.850  37.481  1.00  0.00     0.093 A 
HETATM    9  C7  UNK     1      20.823  -7.646  37.400  1.00  0.00     0.037 A 
HETATM   10  C8  UNK     1      18.335  -6.993  36.300  1.00  0.00     0.039 A 
HETATM   11  C11 UNK     1      19.950  -8.655  36.991  1.00  0.00     0.012 A 
HETATM   12  C12 UNK     1      18.709  -8.329  36.441  1.00  0.00     0.022 A 
ENDROOT
BRANCH   6  13
HETATM   13  C4  UNK     1      19.076  -2.310  36.720  1.00  0.00    -0.002 A 
HETATM   14  C10 UNK     1      18.322  -1.695  37.722  1.00  0.00     0.014 A 
HETATM   15  C14 UNK     1      17.794  -0.419  37.518  1.00  0.00     0.001 A 
HETATM   16  C15 UNK     1      18.018   0.244  36.312  1.00  0.00     0.000 A 
HETATM   17  C13 UNK     1      18.770  -0.368  35.310  1.00  0.00     0.001 A 
HETATM   18  C9  UNK     1      19.298  -1.642  35.513  1.00  0.00     0.014 A 
ENDBRANCH   6  13
TORSDOF 1
ENDMDL
MODEL 5
REMARK VINA RESULT:      -7.3      3.386      6.115
REMARK  1 active torsions:
REMARK  status: ('A' for Active; 'I' for Inactive)
REMARK    1  A    between atoms: C3_6  and  C4_7 
ROOT
HETATM    1 Br1  UNK     1      18.145  -1.918  37.338  1.00  0.00    -0.051 Br
HETATM    2  O1  UNK     1      18.170   3.092  33.946  1.00  0.00    -0.309 OA
HETATM    3  O2  UNK     1      18.736  -0.476  32.063  1.00  0.00    -0.287 OA
HETATM    4  C1  UNK     1      18.358   0.675  34.092  1.00  0.00     0.049 A 
HETATM    5  C2  UNK     1      18.173   1.928  34.673  1.00  0.00     0.090 A 
HETATM    6  C3  UNK     1      18.353   3.014  32.574  1.00  0.00     0.090 A 
HETATM    7  C5  UNK     1      18.562   0.589  32.638  1.00  0.00     0.187 A 
HETATM    8  C6  UNK     1      18.547   1.869  31.902  1.00  0.00     0.093 A 
HETATM    9  C7  UNK     1      18.352  -0.478  34.881  1.00  0.00     0.037 A 
HETATM   10  C8  UNK     1      17.980   2.036  36.050  1.00  0.00     0.039 A 
HETATM   11  C11 UNK     1      18.158  -0.367  36.259  1.00  0.00     0.012 A 
HETATM   12  C12 UNK     1      17.972   0.888  36.842  1.00  0.00     0.022 A 
ENDROOT
BRANCH   6  13
HETATM   13  C4  UNK     1      18.338   4.324  31.892  1.00  0.00    -0.002 A 
HETATM   14  C10 UNK     1      19.050   4.503  30.704  1.00  0.00     0.014 A 
HETATM   15  C14 UNK     1      19.039   5.741  30.061  1.00  0.00     0.001 A 
HETATM   16  C15 UNK     1      18.318   6.804  30.604  1.00  0.00     0.000 A 
HETATM   17  C13 UNK     1      17.607   6.628  31.792  1.00  0.00     0.001 A 
HETATM   18  C9  UNK     1      17.617   5.391  32.434  1.00  0.00     0.014 A 
ENDBRANCH   6  13
TORSDOF 1
ENDMDL
MODEL 6
REMARK VINA RESULT:      -7.1      2.736      4.226
REMARK  1 active torsions:
REMARK  status: ('A' for Active; 'I' for Inactive)
REMARK    1  A    between atoms: C3_6  and  C4_7 
ROOT
HETATM    1 Br1  UNK     1      14.560  10.680  35.235  1.00  0.00    -0.051 Br
HETATM    2  O1  UNK     1      16.621   5.733  32.427  1.00  0.00    -0.309 OA
HETATM    3  O2  UNK     1      19.127   7.620  35.027  1.00  0.00    -0.287 OA
HETATM    4  C1  UNK     1      17.003   7.551  33.991  1.00  0.00     0.049 A 
HETATM    5  C2  UNK     1      16.199   6.859  33.087  1.00  0.00     0.090 A 
HETATM    6  C3  UNK     1      17.901   5.261  32.677  1.00  0.00     0.090 A 
HETATM    7  C5  UNK     1      18.365   7.059  34.251  1.00  0.00     0.187 A 
HETATM    8  C6  UNK     1      18.770   5.843  33.518  1.00  0.00     0.093 A 
HETATM    9  C7  UNK     1      16.521   8.692  34.636  1.00  0.00     0.037 A 
HETATM   10  C8  UNK     1      14.905   7.306  32.822  1.00  0.00     0.039 A 
HETATM   11  C11 UNK     1      15.226   9.138  34.369  1.00  0.00     0.012 A 
HETATM   12  C12 UNK     1      14.419   8.445  33.464  1.00  0.00     0.022 A 
ENDROOT
BRANCH   6  13
HETATM   13  C4  UNK     1      18.253   4.050  31.909  1.00  0.00    -0.002 A 
HETATM   14  C10 UNK     1      18.609   4.153  30.562  1.00  0.00     0.014 A 
HETATM   15  C14 UNK     1      18.940   3.008  29.835  1.00  0.00     0.001 A 
HETATM   16  C15 UNK     1      18.914   1.758  30.452  1.00  0.00     0.000 A 
HETATM   17  C13 UNK     1      18.558   1.652  31.797  1.00  0.00     0.001 A 
HETATM   18  C9  UNK     1      18.228   2.796  32.524  1.00  0.00     0.014 A 
ENDBRANCH   6  13
TORSDOF 1
ENDMDL
MODEL 7
REMARK VINA RESULT:      -7.1     22.955     24.369
REMARK  1 active torsions:
REMARK  status: ('A' for Active; 'I' for Inactive)
REMARK    1  A    between atoms: C3_6  and  C4_7 
ROOT
HETATM    1 Br1  UNK     1      18.406  11.050  10.210  1.00  0.00    -0.051 Br
HETATM    2  O1  UNK     1      13.317   8.652   7.983  1.00  0.00    -0.309 OA
HETATM    3  O2  UNK     1      15.110   6.736  11.099  1.00  0.00    -0.287 OA
HETATM    4  C1  UNK     1      15.136   8.554   9.589  1.00  0.00     0.049 A 
HETATM    5  C2  UNK     1      14.474   9.157   8.521  1.00  0.00     0.090 A 
HETATM    6  C3  UNK     1      12.784   7.495   8.530  1.00  0.00     0.090 A 
HETATM    7  C5  UNK     1      14.578   7.321  10.166  1.00  0.00     0.187 A 
HETATM    8  C6  UNK     1      13.332   6.821   9.552  1.00  0.00     0.093 A 
HETATM    9  C7  UNK     1      16.311   9.113  10.099  1.00  0.00     0.037 A 
HETATM   10  C8  UNK     1      14.983  10.326   7.955  1.00  0.00     0.039 A 
HETATM   11  C11 UNK     1      16.818  10.283   9.530  1.00  0.00     0.012 A 
HETATM   12  C12 UNK     1      16.155  10.888   8.461  1.00  0.00     0.022 A 
ENDROOT
BRANCH   6  13
HETATM   13  C4  UNK     1      11.545   7.037   7.871  1.00  0.00    -0.002 A 
HETATM   14  C10 UNK     1      11.585   6.558   6.559  1.00  0.00     0.014 A 
HETATM   15  C14 UNK     1      10.414   6.127   5.935  1.00  0.00     0.001 A 
HETATM   16  C15 UNK     1       9.200   6.175   6.618  1.00  0.00     0.000 A 
HETATM   17  C13 UNK     1       9.156   6.653   7.928  1.00  0.00     0.001 A 
HETATM   18  C9  UNK     1      10.326   7.083   8.553  1.00  0.00     0.014 A 
ENDBRANCH   6  13
TORSDOF 1
ENDMDL
MODEL 8
REMARK VINA RESULT:      -7.0      2.846      6.444
REMARK  1 active torsions:
REMARK  status: ('A' for Active; 'I' for Inactive)
REMARK    1  A    between atoms: C3_6  and  C4_7 
ROOT
HETATM    1 Br1  UNK     1      20.145  -1.711  29.772  1.00  0.00    -0.051 Br
HETATM    2  O1  UNK     1      18.265   3.872  31.153  1.00  0.00    -0.309 OA
HETATM    3  O2  UNK     1      18.671   1.199  34.202  1.00  0.00    -0.287 OA
HETATM    4  C1  UNK     1      18.851   1.631  31.885  1.00  0.00     0.049 A 
HETATM    5  C2  UNK     1      18.688   2.593  30.890  1.00  0.00     0.090 A 
HETATM    6  C3  UNK     1      17.995   4.220  32.468  1.00  0.00     0.090 A 
HETATM    7  C5  UNK     1      18.556   1.995  33.279  1.00  0.00     0.187 A 
HETATM    8  C6  UNK     1      18.107   3.382  33.510  1.00  0.00     0.093 A 
HETATM    9  C7  UNK     1      19.285   0.344  31.559  1.00  0.00     0.037 A 
HETATM   10  C8  UNK     1      18.958   2.273  29.559  1.00  0.00     0.039 A 
HETATM   11  C11 UNK     1      19.556   0.027  30.227  1.00  0.00     0.012 A 
HETATM   12  C12 UNK     1      19.394   0.989  29.230  1.00  0.00     0.022 A 
ENDROOT
BRANCH   6  13
HETATM   13  C4  UNK     1      17.541   5.615  32.637  1.00  0.00    -0.002 A 
HETATM   14  C10 UNK     1      17.390   6.153  33.916  1.00  0.00     0.014 A 
HETATM   15  C14 UNK     1      16.959   7.471  34.077  1.00  0.00     0.001 A 
HETATM   16  C15 UNK     1      16.675   8.253  32.958  1.00  0.00     0.000 A 
HETATM   17  C13 UNK     1      16.824   7.719  31.678  1.00  0.00     0.001 A 
HETATM   18  C9  UNK     1      17.256   6.402  31.518  1.00  0.00     0.014 A 
ENDBRANCH   6  13
TORSDOF 1
ENDMDL
MODEL 9
REMARK VINA RESULT:      -7.0      1.095      2.312
REMARK  1 active torsions:
REMARK  status: ('A' for Active; 'I' for Inactive)
REMARK    1  A    between atoms: C3_6  and  C4_7 
ROOT
HETATM    1 Br1  UNK     1      17.260   8.073  33.264  1.00  0.00    -0.051 Br
HETATM    2  O1  UNK     1      18.812   2.337  32.127  1.00  0.00    -0.309 OA
HETATM    3  O2  UNK     1      18.616   4.909  28.973  1.00  0.00    -0.287 OA
HETATM    4  C1  UNK     1      18.381   4.580  31.302  1.00  0.00     0.049 A 
HETATM    5  C2  UNK     1      18.464   3.648  32.334  1.00  0.00     0.090 A 
HETATM    6  C3  UNK     1      19.099   1.927  30.834  1.00  0.00     0.090 A 
HETATM    7  C5  UNK     1      18.676   4.146  29.928  1.00  0.00     0.187 A 
HETATM    8  C6  UNK     1      19.047   2.727  29.758  1.00  0.00     0.093 A 
HETATM    9  C7  UNK     1      18.022   5.903  31.571  1.00  0.00     0.037 A 
HETATM   10  C8  UNK     1      18.187   4.033  33.646  1.00  0.00     0.039 A 
HETATM   11  C11 UNK     1      17.746   6.286  32.885  1.00  0.00     0.012 A 
HETATM   12  C12 UNK     1      17.830   5.354  33.920  1.00  0.00     0.022 A 
ENDROOT
BRANCH   6  13
HETATM   13  C4  UNK     1      19.455   0.497  30.724  1.00  0.00    -0.002 A 
HETATM   14  C10 UNK     1      20.013   0.003  29.543  1.00  0.00     0.014 A 
HETATM   15  C14 UNK     1      20.347  -1.348  29.437  1.00  0.00     0.001 A 
HETATM   16  C15 UNK     1      20.122  -2.208  30.511  1.00  0.00     0.000 A 
HETATM   17  C13 UNK     1      19.565  -1.718  31.692  1.00  0.00     0.001 A 
HETATM   18  C9  UNK     1      19.232  -0.368  31.798  1.00  0.00     0.014 A 
ENDBRANCH   6  13
TORSDOF 1
ENDMDL
MODEL 10
REMARK VINA RESULT:      -7.0      3.639      5.835
REMARK  1 active torsions:
REMARK  status: ('A' for Active; 'I' for Inactive)
REMARK    1  A    between atoms: C3_6  and  C4_7 
ROOT
HETATM    1 Br1  UNK     1      15.320  12.887  34.968  1.00  0.00    -0.051 Br
HETATM    2  O1  UNK     1      16.846   7.626  32.398  1.00  0.00    -0.309 OA
HETATM    3  O2  UNK     1      19.705   9.594  34.531  1.00  0.00    -0.287 OA
HETATM    4  C1  UNK     1      17.477   9.546  33.744  1.00  0.00     0.049 A 
HETATM    5  C2  UNK     1      16.548   8.823  32.999  1.00  0.00     0.090 A 
HETATM    6  C3  UNK     1      18.125   7.113  32.546  1.00  0.00     0.090 A 
HETATM    7  C5  UNK     1      18.838   9.009  33.896  1.00  0.00     0.187 A 
HETATM    8  C6  UNK     1      19.107   7.718  33.233  1.00  0.00     0.093 A 
HETATM    9  C7  UNK     1      17.118  10.760  34.335  1.00  0.00     0.037 A 
HETATM   10  C8  UNK     1      15.251   9.312  32.838  1.00  0.00     0.039 A 
HETATM   11  C11 UNK     1      15.820  11.246  34.173  1.00  0.00     0.012 A 
HETATM   12  C12 UNK     1      14.888  10.523  33.427  1.00  0.00     0.022 A 
ENDROOT
BRANCH   6  13
HETATM   13  C4  UNK     1      18.339   5.826  31.854  1.00  0.00    -0.002 A 
HETATM   14  C10 UNK     1      17.974   4.629  32.473  1.00  0.00     0.014 A 
HETATM   15  C14 UNK     1      18.177   3.412  31.821  1.00  0.00     0.001 A 
HETATM   16  C15 UNK     1      18.747   3.389  30.549  1.00  0.00     0.000 A 
HETATM   17  C13 UNK     1      19.114   4.583  29.928  1.00  0.00     0.001 A 
HETATM   18  C9  UNK     1      18.910   5.799  30.579  1.00  0.00     0.014 A 
ENDBRANCH   6  13
TORSDOF 1
ENDMDL
