MODEL 1
REMARK VINA RESULT:      -7.5      0.000      0.000
REMARK  6 active torsions:
REMARK  status: ('A' for Active; 'I' for Inactive)
REMARK    1  A    between atoms: C13_17  and  O2_2 
REMARK    2  A    between atoms: C15_19  and  O2_2 
REMARK    3  A    between atoms: C1_5  and  C2_6 
REMARK    4  A    between atoms: C1_5  and  C3_7 
REMARK    5  A    between atoms: C3_7  and  C6_10 
REMARK    6  A    between atoms: C15_19  and  C16_20 
ROOT
HETATM    1  O1  UNK     1      18.121   3.004  33.593  1.00  0.00    -0.274 OA
HETATM    2  O3  UNK     1      18.108   0.806  34.160  1.00  0.00    -0.259 OA
HETATM    3  C2  UNK     1      18.606   1.307  31.885  1.00  0.00     0.024 A 
HETATM    4  C4  UNK     1      18.736   2.256  30.934  1.00  0.00    -0.037 A 
HETATM    5  C5  UNK     1      18.591   3.679  31.304  1.00  0.00     0.005 A 
HETATM    6  C7  UNK     1      18.287   4.004  32.623  1.00  0.00     0.092 A 
HETATM    7  C8  UNK     1      18.265   1.660  33.292  1.00  0.00     0.295 A 
HETATM    8  C9  UNK     1      19.010   1.953  29.481  1.00  0.00     0.050 C 
HETATM    9  C10 UNK     1      18.752   4.744  30.403  1.00  0.00     0.017 A 
HETATM   10  C11 UNK     1      18.134   5.323  33.057  1.00  0.00     0.075 A 
HETATM   11  C13 UNK     1      18.292   6.361  32.147  1.00  0.00     0.071 A 
HETATM   12  C14 UNK     1      18.603   6.072  30.821  1.00  0.00     0.038 A 
ENDROOT
BRANCH  11  13
HETATM   13  O2  UNK     1      18.147   7.652  32.549  1.00  0.00    -0.344 OA
BRANCH  13  14
HETATM   14  C15 UNK     1      16.862   8.043  33.034  1.00  0.00     0.253 C 
BRANCH  14  15
HETATM   15  C16 UNK     1      15.838   8.012  31.919  1.00  0.00     0.146 C 
HETATM   16  O4  UNK     1      16.028   8.562  30.835  1.00  0.00    -0.296 OA
HETATM   17  C17 UNK     1      14.562   7.267  32.206  1.00  0.00     0.093 C 
ENDBRANCH  14  15
ENDBRANCH  13  14
ENDBRANCH  11  13
BRANCH   3  18
HETATM   18  C1  UNK     1      18.790  -0.172  31.657  1.00  0.00     0.045 C 
BRANCH  18  19
HETATM   19  C3  UNK     1      20.249  -0.511  31.376  1.00  0.00     0.004 C 
BRANCH  19  20
HETATM   20  C6  UNK     1      20.356  -1.572  30.279  1.00  0.00    -0.004 C 
HETATM   21  C12 UNK     1      20.799  -0.964  28.957  1.00  0.00     0.005 C 
ENDBRANCH  19  20
ENDBRANCH  18  19
ENDBRANCH   3  18
TORSDOF 6
ENDMDL
MODEL 2
REMARK VINA RESULT:      -7.3      2.594      7.740
REMARK  6 active torsions:
REMARK  status: ('A' for Active; 'I' for Inactive)
REMARK    1  A    between atoms: C13_17  and  O2_2 
REMARK    2  A    between atoms: C15_19  and  O2_2 
REMARK    3  A    between atoms: C1_5  and  C2_6 
REMARK    4  A    between atoms: C1_5  and  C3_7 
REMARK    5  A    between atoms: C3_7  and  C6_10 
REMARK    6  A    between atoms: C15_19  and  C16_20 
ROOT
HETATM    1  O1  UNK     1      16.052   6.378  32.687  1.00  0.00    -0.274 OA
HETATM    2  O3  UNK     1      14.462   7.597  33.753  1.00  0.00    -0.259 OA
HETATM    3  C2  UNK     1      16.707   8.355  33.990  1.00  0.00     0.024 A 
HETATM    4  C4  UNK     1      18.012   8.141  33.715  1.00  0.00    -0.037 A 
HETATM    5  C5  UNK     1      18.395   7.009  32.848  1.00  0.00     0.005 A 
HETATM    6  C7  UNK     1      17.400   6.165  32.364  1.00  0.00     0.092 A 
HETATM    7  C8  UNK     1      15.647   7.438  33.482  1.00  0.00     0.295 A 
HETATM    8  C9  UNK     1      19.132   8.994  34.259  1.00  0.00     0.050 C 
HETATM    9  C10 UNK     1      19.716   6.727  32.464  1.00  0.00     0.017 A 
HETATM   10  C11 UNK     1      17.676   5.072  31.538  1.00  0.00     0.075 A 
HETATM   11  C13 UNK     1      18.991   4.808  31.175  1.00  0.00     0.071 A 
HETATM   12  C14 UNK     1      20.010   5.636  31.636  1.00  0.00     0.038 A 
ENDROOT
BRANCH  11  13
HETATM   13  O2  UNK     1      19.281   3.750  30.372  1.00  0.00    -0.344 OA
BRANCH  13  14
HETATM   14  C15 UNK     1      18.348   2.668  30.359  1.00  0.00     0.253 C 
BRANCH  14  15
HETATM   15  C16 UNK     1      18.387   1.945  29.030  1.00  0.00     0.146 C 
HETATM   16  O4  UNK     1      17.804   2.368  28.032  1.00  0.00    -0.296 OA
HETATM   17  C17 UNK     1      19.183   0.668  28.988  1.00  0.00     0.093 C 
ENDBRANCH  14  15
ENDBRANCH  13  14
ENDBRANCH  11  13
BRANCH   3  18
HETATM   18  C1  UNK     1      16.176   9.505  34.806  1.00  0.00     0.045 C 
BRANCH  18  19
HETATM   19  C3  UNK     1      15.909  10.726  33.935  1.00  0.00     0.004 C 
BRANCH  19  20
HETATM   20  C6  UNK     1      16.391  12.001  34.628  1.00  0.00    -0.004 C 
HETATM   21  C12 UNK     1      17.790  12.387  34.175  1.00  0.00     0.005 C 
ENDBRANCH  19  20
ENDBRANCH  18  19
ENDBRANCH   3  18
TORSDOF 6
ENDMDL
MODEL 3
REMARK VINA RESULT:      -7.2      1.564      2.130
REMARK  6 active torsions:
REMARK  status: ('A' for Active; 'I' for Inactive)
REMARK    1  A    between atoms: C13_17  and  O2_2 
REMARK    2  A    between atoms: C15_19  and  O2_2 
REMARK    3  A    between atoms: C1_5  and  C2_6 
REMARK    4  A    between atoms: C1_5  and  C3_7 
REMARK    5  A    between atoms: C3_7  and  C6_10 
REMARK    6  A    between atoms: C15_19  and  C16_20 
ROOT
HETATM    1  O1  UNK     1      18.254   2.953  33.629  1.00  0.00    -0.274 OA
HETATM    2  O3  UNK     1      18.425   0.697  33.448  1.00  0.00    -0.259 OA
HETATM    3  C2  UNK     1      18.635   1.937  31.425  1.00  0.00     0.024 A 
HETATM    4  C4  UNK     1      18.605   3.147  30.828  1.00  0.00    -0.037 A 
HETATM    5  C5  UNK     1      18.426   4.360  31.653  1.00  0.00     0.005 A 
HETATM    6  C7  UNK     1      18.256   4.220  33.026  1.00  0.00     0.092 A 
HETATM    7  C8  UNK     1      18.437   1.793  32.896  1.00  0.00     0.295 A 
HETATM    8  C9  UNK     1      18.731   3.348  29.337  1.00  0.00     0.050 C 
HETATM    9  C10 UNK     1      18.426   5.666  31.137  1.00  0.00     0.017 A 
HETATM   10  C11 UNK     1      18.080   5.313  33.878  1.00  0.00     0.075 A 
HETATM   11  C13 UNK     1      18.078   6.597  33.346  1.00  0.00     0.071 A 
HETATM   12  C14 UNK     1      18.252   6.773  31.976  1.00  0.00     0.038 A 
ENDROOT
BRANCH  11  13
HETATM   13  O2  UNK     1      17.909   7.675  34.158  1.00  0.00    -0.344 OA
BRANCH  13  14
HETATM   14  C15 UNK     1      17.586   8.917  33.531  1.00  0.00     0.253 C 
BRANCH  14  15
HETATM   15  C16 UNK     1      18.621   9.969  33.866  1.00  0.00     0.146 C 
HETATM   16  O4  UNK     1      18.426  11.169  33.678  1.00  0.00    -0.296 OA
HETATM   17  C17 UNK     1      19.917   9.469  34.447  1.00  0.00     0.093 C 
ENDBRANCH  14  15
ENDBRANCH  13  14
ENDBRANCH  11  13
BRANCH   3  18
HETATM   18  C1  UNK     1      18.874   0.630  30.712  1.00  0.00     0.045 C 
BRANCH  18  19
HETATM   19  C3  UNK     1      20.361   0.317  30.613  1.00  0.00     0.004 C 
BRANCH  19  20
HETATM   20  C6  UNK     1      20.616  -0.767  29.564  1.00  0.00    -0.004 C 
HETATM   21  C12 UNK     1      19.691  -0.613  28.367  1.00  0.00     0.005 C 
ENDBRANCH  19  20
ENDBRANCH  18  19
ENDBRANCH   3  18
TORSDOF 6
ENDMDL
MODEL 4
REMARK VINA RESULT:      -7.1     22.229     24.009
REMARK  6 active torsions:
REMARK  status: ('A' for Active; 'I' for Inactive)
REMARK    1  A    between atoms: C13_17  and  O2_2 
REMARK    2  A    between atoms: C15_19  and  O2_2 
REMARK    3  A    between atoms: C1_5  and  C2_6 
REMARK    4  A    between atoms: C1_5  and  C3_7 
REMARK    5  A    between atoms: C3_7  and  C6_10 
REMARK    6  A    between atoms: C15_19  and  C16_20 
ROOT
HETATM    1  O1  UNK     1      13.888   5.169   8.828  1.00  0.00    -0.274 OA
HETATM    2  O3  UNK     1      16.038   4.910   9.510  1.00  0.00    -0.259 OA
HETATM    3  C2  UNK     1      14.986   6.967  10.091  1.00  0.00     0.024 A 
HETATM    4  C4  UNK     1      13.885   7.743  10.004  1.00  0.00    -0.037 A 
HETATM    5  C5  UNK     1      12.681   7.221   9.325  1.00  0.00     0.005 A 
HETATM    6  C7  UNK     1      12.725   5.950   8.760  1.00  0.00     0.092 A 
HETATM    7  C8  UNK     1      15.032   5.613   9.470  1.00  0.00     0.295 A 
HETATM    8  C9  UNK     1      13.805   9.147  10.552  1.00  0.00     0.050 C 
HETATM    9  C10 UNK     1      11.472   7.927   9.220  1.00  0.00     0.017 A 
HETATM   10  C11 UNK     1      11.632   5.381   8.102  1.00  0.00     0.075 A 
HETATM   11  C13 UNK     1      10.447   6.100   8.004  1.00  0.00     0.071 A 
HETATM   12  C14 UNK     1      10.366   7.372   8.564  1.00  0.00     0.038 A 
ENDROOT
BRANCH  11  13
HETATM   13  O2  UNK     1       9.371   5.564   7.367  1.00  0.00    -0.344 OA
BRANCH  13  14
HETATM   14  C15 UNK     1       8.079   5.944   7.842  1.00  0.00     0.253 C 
BRANCH  14  15
HETATM   15  C16 UNK     1       7.624   5.019   8.950  1.00  0.00     0.146 C 
HETATM   16  O4  UNK     1       7.342   3.838   8.750  1.00  0.00    -0.296 OA
HETATM   17  C17 UNK     1       7.532   5.623  10.327  1.00  0.00     0.093 C 
ENDBRANCH  14  15
ENDBRANCH  13  14
ENDBRANCH  11  13
BRANCH   3  18
HETATM   18  C1  UNK     1      16.256   7.351  10.808  1.00  0.00     0.045 C 
BRANCH  18  19
HETATM   19  C3  UNK     1      17.239   8.034   9.866  1.00  0.00     0.004 C 
BRANCH  19  20
HETATM   20  C6  UNK     1      17.305   9.535  10.148  1.00  0.00    -0.004 C 
HETATM   21  C12 UNK     1      16.952  10.351   8.913  1.00  0.00     0.005 C 
ENDBRANCH  19  20
ENDBRANCH  18  19
ENDBRANCH   3  18
TORSDOF 6
ENDMDL
MODEL 5
REMARK VINA RESULT:      -7.0      2.160      3.172
REMARK  6 active torsions:
REMARK  status: ('A' for Active; 'I' for Inactive)
REMARK    1  A    between atoms: C13_17  and  O2_2 
REMARK    2  A    between atoms: C15_19  and  O2_2 
REMARK    3  A    between atoms: C1_5  and  C2_6 
REMARK    4  A    between atoms: C1_5  and  C3_7 
REMARK    5  A    between atoms: C3_7  and  C6_10 
REMARK    6  A    between atoms: C15_19  and  C16_20 
ROOT
HETATM    1  O1  UNK     1      18.490   4.587  29.928  1.00  0.00    -0.274 OA
HETATM    2  O3  UNK     1      18.791   2.760  28.616  1.00  0.00    -0.259 OA
HETATM    3  C2  UNK     1      18.515   2.351  30.946  1.00  0.00     0.024 A 
HETATM    4  C4  UNK     1      18.354   2.877  32.179  1.00  0.00    -0.037 A 
HETATM    5  C5  UNK     1      18.214   4.339  32.332  1.00  0.00     0.005 A 
HETATM    6  C7  UNK     1      18.287   5.144  31.200  1.00  0.00     0.092 A 
HETATM    7  C8  UNK     1      18.609   3.220  29.738  1.00  0.00     0.295 A 
HETATM    8  C9  UNK     1      18.323   2.051  33.443  1.00  0.00     0.050 C 
HETATM    9  C10 UNK     1      17.997   4.982  33.562  1.00  0.00     0.017 A 
HETATM   10  C11 UNK     1      18.163   6.535  31.256  1.00  0.00     0.075 A 
HETATM   11  C13 UNK     1      17.955   7.151  32.484  1.00  0.00     0.071 A 
HETATM   12  C14 UNK     1      17.870   6.374  33.636  1.00  0.00     0.038 A 
ENDROOT
BRANCH  11  13
HETATM   13  O2  UNK     1      17.832   8.503  32.560  1.00  0.00    -0.344 OA
BRANCH  13  14
HETATM   14  C15 UNK     1      17.843   9.084  33.864  1.00  0.00     0.253 C 
BRANCH  14  15
HETATM   15  C16 UNK     1      18.911  10.152  33.965  1.00  0.00     0.146 C 
HETATM   16  O4  UNK     1      18.706  11.323  33.647  1.00  0.00    -0.296 OA
HETATM   17  C17 UNK     1      20.254   9.705  34.478  1.00  0.00     0.093 C 
ENDBRANCH  14  15
ENDBRANCH  13  14
ENDBRANCH  11  13
BRANCH   3  18
HETATM   18  C1  UNK     1      18.608   0.877  30.643  1.00  0.00     0.045 C 
BRANCH  18  19
HETATM   19  C3  UNK     1      20.047   0.385  30.721  1.00  0.00     0.004 C 
BRANCH  19  20
HETATM   20  C6  UNK     1      20.417  -0.407  29.466  1.00  0.00    -0.004 C 
HETATM   21  C12 UNK     1      20.436  -1.903  29.736  1.00  0.00     0.005 C 
ENDBRANCH  19  20
ENDBRANCH  18  19
ENDBRANCH   3  18
TORSDOF 6
ENDMDL
MODEL 6
REMARK VINA RESULT:      -7.0     14.759     17.801
REMARK  6 active torsions:
REMARK  status: ('A' for Active; 'I' for Inactive)
REMARK    1  A    between atoms: C13_17  and  O2_2 
REMARK    2  A    between atoms: C15_19  and  O2_2 
REMARK    3  A    between atoms: C1_5  and  C2_6 
REMARK    4  A    between atoms: C1_5  and  C3_7 
REMARK    5  A    between atoms: C3_7  and  C6_10 
REMARK    6  A    between atoms: C15_19  and  C16_20 
ROOT
HETATM    1  O1  UNK     1      19.345   1.386  15.209  1.00  0.00    -0.274 OA
HETATM    2  O3  UNK     1      19.385   3.487  16.066  1.00  0.00    -0.259 OA
HETATM    3  C2  UNK     1      19.061   1.717  17.627  1.00  0.00     0.024 A 
HETATM    4  C4  UNK     1      18.904   0.391  17.821  1.00  0.00    -0.037 A 
HETATM    5  C5  UNK     1      19.002  -0.529  16.670  1.00  0.00     0.005 A 
HETATM    6  C7  UNK     1      19.219   0.002  15.402  1.00  0.00     0.092 A 
HETATM    7  C8  UNK     1      19.277   2.281  16.264  1.00  0.00     0.295 A 
HETATM    8  C9  UNK     1      18.613  -0.228  19.167  1.00  0.00     0.050 C 
HETATM    9  C10 UNK     1      18.900  -1.926  16.770  1.00  0.00     0.017 A 
HETATM   10  C11 UNK     1      19.325  -0.797  14.260  1.00  0.00     0.075 A 
HETATM   11  C13 UNK     1      19.216  -2.176  14.382  1.00  0.00     0.071 A 
HETATM   12  C14 UNK     1      19.005  -2.741  15.637  1.00  0.00     0.038 A 
ENDROOT
BRANCH  11  13
HETATM   13  O2  UNK     1      19.316  -2.971  13.283  1.00  0.00    -0.344 OA
BRANCH  13  14
HETATM   14  C15 UNK     1      20.271  -2.592  12.291  1.00  0.00     0.253 C 
BRANCH  14  15
HETATM   15  C16 UNK     1      19.765  -2.930  10.905  1.00  0.00     0.146 C 
HETATM   16  O4  UNK     1      18.598  -3.255  10.690  1.00  0.00    -0.296 OA
HETATM   17  C17 UNK     1      20.772  -2.848   9.789  1.00  0.00     0.093 C 
ENDBRANCH  14  15
ENDBRANCH  13  14
ENDBRANCH  11  13
BRANCH   3  18
HETATM   18  C1  UNK     1      19.047   2.756  18.719  1.00  0.00     0.045 C 
BRANCH  18  19
HETATM   19  C3  UNK     1      20.455   3.050  19.222  1.00  0.00     0.004 C 
BRANCH  19  20
HETATM   20  C6  UNK     1      20.735   2.290  20.519  1.00  0.00    -0.004 C 
HETATM   21  C12 UNK     1      19.514   2.267  21.426  1.00  0.00     0.005 C 
ENDBRANCH  19  20
ENDBRANCH  18  19
ENDBRANCH   3  18
TORSDOF 6
ENDMDL
MODEL 7
REMARK VINA RESULT:      -7.0     22.505     24.468
REMARK  6 active torsions:
REMARK  status: ('A' for Active; 'I' for Inactive)
REMARK    1  A    between atoms: C13_17  and  O2_2 
REMARK    2  A    between atoms: C15_19  and  O2_2 
REMARK    3  A    between atoms: C1_5  and  C2_6 
REMARK    4  A    between atoms: C1_5  and  C3_7 
REMARK    5  A    between atoms: C3_7  and  C6_10 
REMARK    6  A    between atoms: C15_19  and  C16_20 
ROOT
HETATM    1  O1  UNK     1      12.731   8.892   8.969  1.00  0.00    -0.274 OA
HETATM    2  O3  UNK     1      13.951  10.486  10.029  1.00  0.00    -0.259 OA
HETATM    3  C2  UNK     1      14.862   8.285  10.031  1.00  0.00     0.024 A 
HETATM    4  C4  UNK     1      14.701   6.990   9.683  1.00  0.00    -0.037 A 
HETATM    5  C5  UNK     1      13.514   6.590   8.900  1.00  0.00     0.005 A 
HETATM    6  C7  UNK     1      12.569   7.557   8.571  1.00  0.00     0.092 A 
HETATM    7  C8  UNK     1      13.837   9.312   9.689  1.00  0.00     0.295 A 
HETATM    8  C9  UNK     1      15.670   5.896  10.063  1.00  0.00     0.050 C 
HETATM    9  C10 UNK     1      13.277   5.282   8.449  1.00  0.00     0.017 A 
HETATM   10  C11 UNK     1      11.419   7.264   7.833  1.00  0.00     0.075 A 
HETATM   11  C13 UNK     1      11.200   5.961   7.402  1.00  0.00     0.071 A 
HETATM   12  C14 UNK     1      12.130   4.971   7.708  1.00  0.00     0.038 A 
ENDROOT
BRANCH  11  13
HETATM   13  O2  UNK     1      10.088   5.655   6.682  1.00  0.00    -0.344 OA
BRANCH  13  14
HETATM   14  C15 UNK     1       8.908   6.412   6.956  1.00  0.00     0.253 C 
BRANCH  14  15
HETATM   15  C16 UNK     1       8.122   5.785   8.087  1.00  0.00     0.146 C 
HETATM   16  O4  UNK     1       7.564   4.694   7.978  1.00  0.00    -0.296 OA
HETATM   17  C17 UNK     1       8.055   6.573   9.369  1.00  0.00     0.093 C 
ENDBRANCH  14  15
ENDBRANCH  13  14
ENDBRANCH  11  13
BRANCH   3  18
HETATM   18  C1  UNK     1      16.053   8.837  10.772  1.00  0.00     0.045 C 
BRANCH  18  19
HETATM   19  C3  UNK     1      17.205   9.139   9.823  1.00  0.00     0.004 C 
BRANCH  19  20
HETATM   20  C6  UNK     1      17.501  10.639   9.791  1.00  0.00    -0.004 C 
HETATM   21  C12 UNK     1      17.072  11.264   8.473  1.00  0.00     0.005 C 
ENDBRANCH  19  20
ENDBRANCH  18  19
ENDBRANCH   3  18
TORSDOF 6
ENDMDL
MODEL 8
REMARK VINA RESULT:      -6.9      2.556      3.838
REMARK  6 active torsions:
REMARK  status: ('A' for Active; 'I' for Inactive)
REMARK    1  A    between atoms: C13_17  and  O2_2 
REMARK    2  A    between atoms: C15_19  and  O2_2 
REMARK    3  A    between atoms: C1_5  and  C2_6 
REMARK    4  A    between atoms: C1_5  and  C3_7 
REMARK    5  A    between atoms: C3_7  and  C6_10 
REMARK    6  A    between atoms: C15_19  and  C16_20 
ROOT
HETATM    1  O1  UNK     1      18.347   1.102  32.118  1.00  0.00    -0.274 OA
HETATM    2  O3  UNK     1      18.372  -1.151  32.394  1.00  0.00    -0.259 OA
HETATM    3  C2  UNK     1      18.317   0.156  34.385  1.00  0.00     0.024 A 
HETATM    4  C4  UNK     1      18.327   1.389  34.933  1.00  0.00    -0.037 A 
HETATM    5  C5  UNK     1      18.311   2.575  34.052  1.00  0.00     0.005 A 
HETATM    6  C7  UNK     1      18.321   2.390  32.674  1.00  0.00     0.092 A 
HETATM    7  C8  UNK     1      18.345  -0.037  32.906  1.00  0.00     0.295 A 
HETATM    8  C9  UNK     1      18.371   1.643  36.420  1.00  0.00     0.050 C 
HETATM    9  C10 UNK     1      18.273   3.899  34.520  1.00  0.00     0.017 A 
HETATM   10  C11 UNK     1      18.307   3.456  31.770  1.00  0.00     0.075 A 
HETATM   11  C13 UNK     1      18.276   4.758  32.255  1.00  0.00     0.071 A 
HETATM   12  C14 UNK     1      18.257   4.979  33.629  1.00  0.00     0.038 A 
ENDROOT
BRANCH  11  13
HETATM   13  O2  UNK     1      18.260   5.809  31.393  1.00  0.00    -0.344 OA
BRANCH  13  14
HETATM   14  C15 UNK     1      17.988   7.098  31.944  1.00  0.00     0.253 C 
BRANCH  14  15
HETATM   15  C16 UNK     1      16.601   7.564  31.556  1.00  0.00     0.146 C 
HETATM   16  O4  UNK     1      16.401   8.323  30.608  1.00  0.00    -0.296 OA
HETATM   17  C17 UNK     1      15.464   7.045  32.396  1.00  0.00     0.093 C 
ENDBRANCH  14  15
ENDBRANCH  13  14
ENDBRANCH  11  13
BRANCH   3  18
HETATM   18  C1  UNK     1      18.269  -1.134  35.165  1.00  0.00     0.045 C 
BRANCH  18  19
HETATM   19  C3  UNK     1      19.658  -1.552  35.629  1.00  0.00     0.004 C 
BRANCH  19  20
HETATM   20  C6  UNK     1      19.574  -2.368  36.920  1.00  0.00    -0.004 C 
HETATM   21  C12 UNK     1      18.548  -1.788  37.880  1.00  0.00     0.005 C 
ENDBRANCH  19  20
ENDBRANCH  18  19
ENDBRANCH   3  18
TORSDOF 6
ENDMDL
MODEL 9
REMARK VINA RESULT:      -6.9      3.052      7.397
REMARK  6 active torsions:
REMARK  status: ('A' for Active; 'I' for Inactive)
REMARK    1  A    between atoms: C13_17  and  O2_2 
REMARK    2  A    between atoms: C15_19  and  O2_2 
REMARK    3  A    between atoms: C1_5  and  C2_6 
REMARK    4  A    between atoms: C1_5  and  C3_7 
REMARK    5  A    between atoms: C3_7  and  C6_10 
REMARK    6  A    between atoms: C15_19  and  C16_20 
ROOT
HETATM    1  O1  UNK     1      18.454   1.458  31.599  1.00  0.00    -0.274 OA
HETATM    2  O3  UNK     1      18.512   2.780  29.755  1.00  0.00    -0.259 OA
HETATM    3  C2  UNK     1      18.361   3.901  31.851  1.00  0.00     0.024 A 
HETATM    4  C4  UNK     1      18.254   3.788  33.192  1.00  0.00    -0.037 A 
HETATM    5  C5  UNK     1      18.280   2.449  33.813  1.00  0.00     0.005 A 
HETATM    6  C7  UNK     1      18.378   1.329  32.994  1.00  0.00     0.092 A 
HETATM    7  C8  UNK     1      18.451   2.696  30.977  1.00  0.00     0.295 A 
HETATM    8  C9  UNK     1      18.089   4.968  34.119  1.00  0.00     0.050 C 
HETATM    9  C10 UNK     1      18.221   2.225  35.198  1.00  0.00     0.017 A 
HETATM   10  C11 UNK     1      18.410   0.027  33.499  1.00  0.00     0.075 A 
HETATM   11  C13 UNK     1      18.345  -0.172  34.873  1.00  0.00     0.071 A 
HETATM   12  C14 UNK     1      18.252   0.927  35.722  1.00  0.00     0.038 A 
ENDROOT
BRANCH  11  13
HETATM   13  O2  UNK     1      18.375  -1.431  35.385  1.00  0.00    -0.344 OA
BRANCH  13  14
HETATM   14  C15 UNK     1      19.144  -1.633  36.572  1.00  0.00     0.253 C 
BRANCH  14  15
HETATM   15  C16 UNK     1      20.366  -2.476  36.279  1.00  0.00     0.146 C 
HETATM   16  O4  UNK     1      21.212  -2.146  35.448  1.00  0.00    -0.296 OA
HETATM   17  C17 UNK     1      20.499  -3.754  37.065  1.00  0.00     0.093 C 
ENDBRANCH  14  15
ENDBRANCH  13  14
ENDBRANCH  11  13
BRANCH   3  18
HETATM   18  C1  UNK     1      18.411   5.205  31.096  1.00  0.00     0.045 C 
BRANCH  18  19
HETATM   19  C3  UNK     1      19.848   5.656  30.867  1.00  0.00     0.004 C 
BRANCH  19  20
HETATM   20  C6  UNK     1      20.359   6.461  32.062  1.00  0.00    -0.004 C 
HETATM   21  C12 UNK     1      21.790   6.086  32.416  1.00  0.00     0.005 C 
ENDBRANCH  19  20
ENDBRANCH  18  19
ENDBRANCH   3  18
TORSDOF 6
ENDMDL
MODEL 10
REMARK VINA RESULT:      -6.8     22.376     23.750
REMARK  6 active torsions:
REMARK  status: ('A' for Active; 'I' for Inactive)
REMARK    1  A    between atoms: C13_17  and  O2_2 
REMARK    2  A    between atoms: C15_19  and  O2_2 
REMARK    3  A    between atoms: C1_5  and  C2_6 
REMARK    4  A    between atoms: C1_5  and  C3_7 
REMARK    5  A    between atoms: C3_7  and  C6_10 
REMARK    6  A    between atoms: C15_19  and  C16_20 
ROOT
HETATM    1  O1  UNK     1      16.159   6.444  10.004  1.00  0.00    -0.274 OA
HETATM    2  O3  UNK     1      15.119   4.427  10.068  1.00  0.00    -0.259 OA
HETATM    3  C2  UNK     1      13.735   6.313   9.621  1.00  0.00     0.024 A 
HETATM    4  C4  UNK     1      13.653   7.654   9.489  1.00  0.00    -0.037 A 
HETATM    5  C5  UNK     1      14.882   8.470   9.579  1.00  0.00     0.005 A 
HETATM    6  C7  UNK     1      16.093   7.835   9.834  1.00  0.00     0.092 A 
HETATM    7  C8  UNK     1      15.034   5.641   9.910  1.00  0.00     0.295 A 
HETATM    8  C9  UNK     1      12.357   8.395   9.266  1.00  0.00     0.050 C 
HETATM    9  C10 UNK     1      14.912   9.863   9.411  1.00  0.00     0.017 A 
HETATM   10  C11 UNK     1      17.301   8.530   9.935  1.00  0.00     0.075 A 
HETATM   11  C13 UNK     1      17.307   9.910   9.771  1.00  0.00     0.071 A 
HETATM   12  C14 UNK     1      16.114  10.576   9.507  1.00  0.00     0.038 A 
ENDROOT
BRANCH  11  13
HETATM   13  O2  UNK     1      18.472  10.606   9.864  1.00  0.00    -0.344 OA
BRANCH  13  14
HETATM   14  C15 UNK     1      18.551  11.840   9.150  1.00  0.00     0.253 C 
BRANCH  14  15
HETATM   15  C16 UNK     1      19.460  11.705   7.948  1.00  0.00     0.146 C 
HETATM   16  O4  UNK     1      20.628  11.328   8.043  1.00  0.00    -0.296 OA
HETATM   17  C17 UNK     1      18.859  12.059   6.614  1.00  0.00     0.093 C 
ENDBRANCH  14  15
ENDBRANCH  13  14
ENDBRANCH  11  13
BRANCH   3  18
HETATM   18  C1  UNK     1      12.574   5.361   9.488  1.00  0.00     0.045 C 
BRANCH  18  19
HETATM   19  C3  UNK     1      12.377   4.926   8.042  1.00  0.00     0.004 C 
BRANCH  19  20
HETATM   20  C6  UNK     1      11.157   5.616   7.430  1.00  0.00    -0.004 C 
HETATM   21  C12 UNK     1      11.488   6.244   6.086  1.00  0.00     0.005 C 
ENDBRANCH  19  20
ENDBRANCH  18  19
ENDBRANCH   3  18
TORSDOF 6
ENDMDL
