MODEL 1
REMARK VINA RESULT:      -9.5      0.000      0.000
REMARK  7 active torsions:
REMARK  status: ('A' for Active; 'I' for Inactive)
REMARK    1  A    between atoms: C13_21  and  O4_4 
REMARK    2  A    between atoms: C24_32  and  O4_4 
REMARK    3  A    between atoms: C32_40  and  O7_7 
REMARK    4  A    between atoms: C1_9  and  C10_18 
REMARK    5  A    between atoms: C11_19  and  C4_12 
REMARK    6  A    between atoms: C13_21  and  C8_16 
REMARK    7  A    between atoms: C24_32  and  C26_34 
ROOT
HETATM    1  O2  UNK     1      30.800  -9.606  35.776  1.00  0.00    -0.293 OA
HETATM    2  N1  UNK     1      34.923  -7.291  36.019  1.00  0.00    -0.362 N 
HETATM    3  C1  UNK     1      32.168  -7.699  38.595  1.00  0.00     0.056 C 
HETATM    4  C2  UNK     1      33.600  -7.547  38.066  1.00  0.00     0.069 C 
HETATM    5  C3  UNK     1      32.835  -8.392  35.819  1.00  0.00     0.024 C 
HETATM    6  C4  UNK     1      33.035  -8.542  34.313  1.00  0.00     0.104 C 
HETATM    7  C5  UNK     1      33.753  -7.766  36.584  1.00  0.00     0.021 C 
HETATM    8  C6  UNK     1      31.440  -8.878  37.952  1.00  0.00     0.095 C 
HETATM    9  C7  UNK     1      31.618  -8.984  36.453  1.00  0.00     0.159 C 
HETATM   10  C8  UNK     1      34.428  -8.109  33.855  1.00  0.00     0.052 C 
HETATM   11  C9  UNK     1      35.287  -7.491  34.698  1.00  0.00     0.018 C 
HETATM   12  C12 UNK     1      36.654  -6.981  34.330  1.00  0.00     0.069 C 
HETATM   13  H7  UNK     1      35.589  -6.830  36.628  1.00  0.00     0.165 HD
ENDROOT
BRANCH   6  14
HETATM   14  C11 UNK     1      31.981  -7.769  33.567  1.00  0.00     0.029 A 
HETATM   15  C14 UNK     1      30.924  -8.523  32.846  1.00  0.00     0.194 A 
HETATM   16  O6  UNK     1      30.888  -9.746  32.839  1.00  0.00    -0.287 OA
HETATM   17  C17 UNK     1      29.918  -7.716  32.132  1.00  0.00     0.049 A 
HETATM   18  C19 UNK     1      30.010  -6.324  32.173  1.00  0.00     0.089 A 
HETATM   19  C21 UNK     1      28.884  -8.332  31.423  1.00  0.00     0.025 A 
HETATM   20  O3  UNK     1      31.004  -5.667  32.853  1.00  0.00    -0.321 OA
HETATM   21  C22 UNK     1      29.068  -5.541  31.504  1.00  0.00     0.039 A 
HETATM   22  C16 UNK     1      31.934  -6.431  33.514  1.00  0.00     0.154 A 
HETATM   23  C25 UNK     1      28.034  -6.154  30.796  1.00  0.00     0.009 A 
HETATM   24  C23 UNK     1      27.942  -7.546  30.755  1.00  0.00    -0.061 A 
HETATM   25  C27 UNK     1      26.835  -8.196  29.996  1.00  0.00     0.048 C 
ENDBRANCH   6  14
BRANCH  10  26
HETATM   26  C13 UNK     1      34.799  -8.444  32.470  1.00  0.00     0.292 C 
HETATM   27  O5  UNK     1      35.321  -9.497  32.154  1.00  0.00    -0.259 OA
BRANCH  26  28
HETATM   28  O4  UNK     1      34.461  -7.402  31.674  1.00  0.00    -0.313 OA
BRANCH  28  29
HETATM   29  C24 UNK     1      34.610  -7.638  30.270  1.00  0.00     0.217 C 
BRANCH  29  30
HETATM   30  C26 UNK     1      33.281  -8.035  29.696  1.00  0.00    -0.034 A 
HETATM   31  C28 UNK     1      32.919  -9.377  29.660  1.00  0.00     0.012 A 
HETATM   32  C30 UNK     1      31.685  -9.745  29.126  1.00  0.00     0.037 A 
HETATM   33  C32 UNK     1      30.820  -8.769  28.631  1.00  0.00     0.068 A 
HETATM   34  C31 UNK     1      31.188  -7.425  28.671  1.00  0.00     0.037 A 
HETATM   35  C29 UNK     1      32.424  -7.056  29.205  1.00  0.00     0.012 A 
BRANCH  33  36
HETATM   36  O7  UNK     1      29.614  -9.130  28.112  1.00  0.00    -0.356 OA
HETATM   37  C33 UNK     1      29.176 -10.466  28.357  1.00  0.00     0.210 C 
ENDBRANCH  33  36
ENDBRANCH  29  30
ENDBRANCH  28  29
ENDBRANCH  26  28
ENDBRANCH  10  26
BRANCH   3  38
HETATM   38  C10 UNK     1      31.379  -6.389  38.553  1.00  0.00     0.057 A 
HETATM   39  O1  UNK     1      30.048  -6.499  38.766  1.00  0.00    -0.327 OA
HETATM   40  C20 UNK     1      29.549  -5.237  38.686  1.00  0.00     0.142 A 
HETATM   41  C18 UNK     1      30.554  -4.335  38.425  1.00  0.00     0.027 A 
HETATM   42  C15 UNK     1      31.748  -5.091  38.339  1.00  0.00     0.035 A 
ENDBRANCH   3  38
TORSDOF 7
ENDMDL
MODEL 2
REMARK VINA RESULT:      -9.2      2.547      7.514
REMARK  7 active torsions:
REMARK  status: ('A' for Active; 'I' for Inactive)
REMARK    1  A    between atoms: C13_21  and  O4_4 
REMARK    2  A    between atoms: C24_32  and  O4_4 
REMARK    3  A    between atoms: C32_40  and  O7_7 
REMARK    4  A    between atoms: C1_9  and  C10_18 
REMARK    5  A    between atoms: C11_19  and  C4_12 
REMARK    6  A    between atoms: C13_21  and  C8_16 
REMARK    7  A    between atoms: C24_32  and  C26_34 
ROOT
HETATM    1  O2  UNK     1      29.054  -5.566  32.457  1.00  0.00    -0.293 OA
HETATM    2  N1  UNK     1      33.145  -7.846  31.758  1.00  0.00    -0.362 N 
HETATM    3  C1  UNK     1      30.441  -6.823  29.302  1.00  0.00     0.056 C 
HETATM    4  C2  UNK     1      31.860  -7.116  29.803  1.00  0.00     0.069 C 
HETATM    5  C3  UNK     1      31.071  -6.777  32.171  1.00  0.00     0.024 C 
HETATM    6  C4  UNK     1      31.248  -6.970  33.676  1.00  0.00     0.104 C 
HETATM    7  C5  UNK     1      31.992  -7.236  31.298  1.00  0.00     0.021 C 
HETATM    8  C6  UNK     1      29.720  -5.803  30.182  1.00  0.00     0.095 C 
HETATM    9  C7  UNK     1      29.874  -6.036  31.669  1.00  0.00     0.159 C 
HETATM   10  C8  UNK     1      32.626  -7.521  34.043  1.00  0.00     0.052 C 
HETATM   11  C9  UNK     1      33.489  -7.952  33.096  1.00  0.00     0.018 C 
HETATM   12  C12 UNK     1      34.842  -8.557  33.358  1.00  0.00     0.069 C 
HETATM   13  H7  UNK     1      33.814  -8.172  31.071  1.00  0.00     0.165 HD
ENDROOT
BRANCH   6  14
HETATM   14  C11 UNK     1      30.169  -7.870  34.217  1.00  0.00     0.029 A 
HETATM   15  C14 UNK     1      29.259  -7.339  35.263  1.00  0.00     0.194 A 
HETATM   16  O6  UNK     1      29.363  -6.199  35.695  1.00  0.00    -0.287 OA
HETATM   17  C17 UNK     1      28.222  -8.262  35.757  1.00  0.00     0.049 A 
HETATM   18  C19 UNK     1      28.152  -9.551  35.228  1.00  0.00     0.089 A 
HETATM   19  C21 UNK     1      27.318  -7.856  36.741  1.00  0.00     0.025 A 
HETATM   20  O3  UNK     1      29.014 -10.002  34.260  1.00  0.00    -0.321 OA
HETATM   21  C22 UNK     1      27.178 -10.441  35.681  1.00  0.00     0.039 A 
HETATM   22  C16 UNK     1      29.975  -9.131  33.809  1.00  0.00     0.154 A 
HETATM   23  C25 UNK     1      26.274 -10.038  36.664  1.00  0.00     0.009 A 
HETATM   24  C23 UNK     1      26.344  -8.748  37.193  1.00  0.00    -0.061 A 
HETATM   25  C27 UNK     1      25.374  -8.323  38.244  1.00  0.00     0.048 C 
ENDBRANCH   6  14
BRANCH  10  26
HETATM   26  C13 UNK     1      32.978  -7.510  35.473  1.00  0.00     0.292 C 
HETATM   27  O5  UNK     1      33.004  -8.514  36.162  1.00  0.00    -0.259 OA
BRANCH  26  28
HETATM   28  O4  UNK     1      33.250  -6.234  35.836  1.00  0.00    -0.313 OA
BRANCH  28  29
HETATM   29  C24 UNK     1      33.322  -6.008  37.248  1.00  0.00     0.217 C 
BRANCH  29  30
HETATM   30  C26 UNK     1      31.988  -5.523  37.736  1.00  0.00    -0.034 A 
HETATM   31  C28 UNK     1      31.574  -4.231  37.435  1.00  0.00     0.012 A 
HETATM   32  C30 UNK     1      30.335  -3.779  37.888  1.00  0.00     0.037 A 
HETATM   33  C32 UNK     1      29.519  -4.624  38.641  1.00  0.00     0.068 A 
HETATM   34  C31 UNK     1      29.940  -5.919  38.939  1.00  0.00     0.037 A 
HETATM   35  C29 UNK     1      31.180  -6.370  38.485  1.00  0.00     0.012 A 
BRANCH  33  36
HETATM   36  O7  UNK     1      28.308  -4.182  39.082  1.00  0.00    -0.356 OA
HETATM   37  C33 UNK     1      27.156  -4.894  38.635  1.00  0.00     0.210 C 
ENDBRANCH  33  36
ENDBRANCH  29  30
ENDBRANCH  28  29
ENDBRANCH  26  28
ENDBRANCH  10  26
BRANCH   3  38
HETATM   38  C10 UNK     1      29.630  -8.094  29.041  1.00  0.00     0.057 A 
HETATM   39  O1  UNK     1      30.180  -8.974  28.174  1.00  0.00    -0.327 OA
HETATM   40  C20 UNK     1      29.309 -10.013  28.089  1.00  0.00     0.142 A 
HETATM   41  C18 UNK     1      28.216  -9.794  28.895  1.00  0.00     0.027 A 
HETATM   42  C15 UNK     1      28.429  -8.540  29.515  1.00  0.00     0.035 A 
ENDBRANCH   3  38
TORSDOF 7
ENDMDL
MODEL 3
REMARK VINA RESULT:      -9.1      3.026      4.703
REMARK  7 active torsions:
REMARK  status: ('A' for Active; 'I' for Inactive)
REMARK    1  A    between atoms: C13_21  and  O4_4 
REMARK    2  A    between atoms: C24_32  and  O4_4 
REMARK    3  A    between atoms: C32_40  and  O7_7 
REMARK    4  A    between atoms: C1_9  and  C10_18 
REMARK    5  A    between atoms: C11_19  and  C4_12 
REMARK    6  A    between atoms: C13_21  and  C8_16 
REMARK    7  A    between atoms: C24_32  and  C26_34 
ROOT
HETATM    1  O2  UNK     1      30.100 -10.332  38.193  1.00  0.00    -0.293 OA
HETATM    2  N1  UNK     1      29.364  -5.656  38.282  1.00  0.00    -0.362 N 
HETATM    3  C1  UNK     1      27.286  -8.506  39.679  1.00  0.00     0.056 C 
HETATM    4  C2  UNK     1      27.893  -7.099  39.608  1.00  0.00     0.069 C 
HETATM    5  C3  UNK     1      29.734  -7.991  38.138  1.00  0.00     0.024 C 
HETATM    6  C4  UNK     1      30.856  -7.772  37.126  1.00  0.00     0.104 C 
HETATM    7  C5  UNK     1      29.037  -6.951  38.640  1.00  0.00     0.021 C 
HETATM    8  C6  UNK     1      28.355  -9.596  39.640  1.00  0.00     0.095 C 
HETATM    9  C7  UNK     1      29.435  -9.380  38.602  1.00  0.00     0.159 C 
HETATM   10  C8  UNK     1      31.204  -6.295  36.939  1.00  0.00     0.052 C 
HETATM   11  C9  UNK     1      30.448  -5.317  37.489  1.00  0.00     0.018 C 
HETATM   12  C12 UNK     1      30.676  -3.839  37.320  1.00  0.00     0.069 C 
HETATM   13  H7  UNK     1      28.820  -4.902  38.685  1.00  0.00     0.165 HD
ENDROOT
BRANCH   6  14
HETATM   14  C11 UNK     1      30.492  -8.390  35.801  1.00  0.00     0.029 A 
HETATM   15  C14 UNK     1      31.461  -9.314  35.160  1.00  0.00     0.194 A 
HETATM   16  O6  UNK     1      32.538  -9.585  35.672  1.00  0.00    -0.287 OA
HETATM   17  C17 UNK     1      31.055  -9.890  33.865  1.00  0.00     0.049 A 
HETATM   18  C19 UNK     1      29.814  -9.544  33.328  1.00  0.00     0.089 A 
HETATM   19  C21 UNK     1      31.896 -10.770  33.181  1.00  0.00     0.025 A 
HETATM   20  O3  UNK     1      28.948  -8.685  33.956  1.00  0.00    -0.321 OA
HETATM   21  C22 UNK     1      29.409 -10.077  32.103  1.00  0.00     0.039 A 
HETATM   22  C16 UNK     1      29.340  -8.156  35.161  1.00  0.00     0.154 A 
HETATM   23  C25 UNK     1      30.248 -10.957  31.419  1.00  0.00     0.009 A 
HETATM   24  C23 UNK     1      31.489 -11.303  31.957  1.00  0.00    -0.061 A 
HETATM   25  C27 UNK     1      32.382 -12.244  31.220  1.00  0.00     0.048 C 
ENDBRANCH   6  14
BRANCH  10  26
HETATM   26  C13 UNK     1      32.428  -5.999  36.175  1.00  0.00     0.292 C 
HETATM   27  O5  UNK     1      33.543  -6.030  36.662  1.00  0.00    -0.259 OA
BRANCH  26  28
HETATM   28  O4  UNK     1      32.075  -5.702  34.902  1.00  0.00    -0.313 OA
BRANCH  28  29
HETATM   29  C24 UNK     1      32.900  -6.291  33.891  1.00  0.00     0.217 C 
BRANCH  29  30
HETATM   30  C26 UNK     1      32.064  -6.568  32.676  1.00  0.00    -0.034 A 
HETATM   31  C28 UNK     1      30.796  -6.007  32.571  1.00  0.00     0.012 A 
HETATM   32  C30 UNK     1      30.019  -6.264  31.442  1.00  0.00     0.037 A 
HETATM   33  C32 UNK     1      30.515  -7.082  30.426  1.00  0.00     0.068 A 
HETATM   34  C31 UNK     1      31.787  -7.640  30.538  1.00  0.00     0.037 A 
HETATM   35  C29 UNK     1      32.565  -7.383  31.668  1.00  0.00     0.012 A 
BRANCH  33  36
HETATM   36  O7  UNK     1      29.755  -7.332  29.324  1.00  0.00    -0.356 OA
HETATM   37  C33 UNK     1      30.000  -8.555  28.631  1.00  0.00     0.210 C 
ENDBRANCH  33  36
ENDBRANCH  29  30
ENDBRANCH  28  29
ENDBRANCH  26  28
ENDBRANCH  10  26
BRANCH   3  38
HETATM   38  C10 UNK     1      26.156  -8.714  38.668  1.00  0.00     0.057 A 
HETATM   39  O1  UNK     1      24.969  -8.153  38.990  1.00  0.00    -0.327 OA
HETATM   40  C20 UNK     1      24.121  -8.456  37.973  1.00  0.00     0.142 A 
HETATM   41  C18 UNK     1      24.764  -9.203  37.013  1.00  0.00     0.027 A 
HETATM   42  C15 UNK     1      26.093  -9.369  37.471  1.00  0.00     0.035 A 
ENDBRANCH   3  38
TORSDOF 7
ENDMDL
MODEL 4
REMARK VINA RESULT:      -9.1      2.980      4.836
REMARK  7 active torsions:
REMARK  status: ('A' for Active; 'I' for Inactive)
REMARK    1  A    between atoms: C13_21  and  O4_4 
REMARK    2  A    between atoms: C24_32  and  O4_4 
REMARK    3  A    between atoms: C32_40  and  O7_7 
REMARK    4  A    between atoms: C1_9  and  C10_18 
REMARK    5  A    between atoms: C11_19  and  C4_12 
REMARK    6  A    between atoms: C13_21  and  C8_16 
REMARK    7  A    between atoms: C24_32  and  C26_34 
ROOT
HETATM    1  O2  UNK     1      30.312 -10.496  38.674  1.00  0.00    -0.293 OA
HETATM    2  N1  UNK     1      29.159  -5.910  38.430  1.00  0.00    -0.362 N 
HETATM    3  C1  UNK     1      27.115  -8.912  39.529  1.00  0.00     0.056 C 
HETATM    4  C2  UNK     1      27.597  -7.456  39.516  1.00  0.00     0.069 C 
HETATM    5  C3  UNK     1      29.756  -8.203  38.454  1.00  0.00     0.024 C 
HETATM    6  C4  UNK     1      31.026  -7.901  37.662  1.00  0.00     0.104 C 
HETATM    7  C5  UNK     1      28.886  -7.222  38.774  1.00  0.00     0.021 C 
HETATM    8  C6  UNK     1      28.265  -9.895  39.736  1.00  0.00     0.095 C 
HETATM    9  C7  UNK     1      29.500  -9.602  38.911  1.00  0.00     0.159 C 
HETATM   10  C8  UNK     1      31.270  -6.402  37.484  1.00  0.00     0.052 C 
HETATM   11  C9  UNK     1      30.339  -5.488  37.840  1.00  0.00     0.018 C 
HETATM   12  C12 UNK     1      30.462  -4.000  37.657  1.00  0.00     0.069 C 
HETATM   13  H7  UNK     1      28.482  -5.202  38.692  1.00  0.00     0.165 HD
ENDROOT
BRANCH   6  14
HETATM   14  C11 UNK     1      30.978  -8.582  36.320  1.00  0.00     0.029 A 
HETATM   15  C14 UNK     1      29.905  -8.199  35.369  1.00  0.00     0.194 A 
HETATM   16  O6  UNK     1      29.064  -7.353  35.643  1.00  0.00    -0.287 OA
HETATM   17  C17 UNK     1      29.904  -8.896  34.070  1.00  0.00     0.049 A 
HETATM   18  C19 UNK     1      30.887  -9.852  33.812  1.00  0.00     0.089 A 
HETATM   19  C21 UNK     1      28.935  -8.607  33.107  1.00  0.00     0.025 A 
HETATM   20  O3  UNK     1      31.862 -10.176  34.721  1.00  0.00    -0.321 OA
HETATM   21  C22 UNK     1      30.905 -10.524  32.589  1.00  0.00     0.039 A 
HETATM   22  C16 UNK     1      31.851  -9.518  35.927  1.00  0.00     0.154 A 
HETATM   23  C25 UNK     1      29.938 -10.237  31.626  1.00  0.00     0.009 A 
HETATM   24  C23 UNK     1      28.955  -9.280  31.884  1.00  0.00    -0.061 A 
HETATM   25  C27 UNK     1      27.924  -8.977  30.850  1.00  0.00     0.048 C 
ENDBRANCH   6  14
BRANCH  10  26
HETATM   26  C13 UNK     1      32.585  -6.008  36.951  1.00  0.00     0.292 C 
HETATM   27  O5  UNK     1      33.616  -6.081  37.595  1.00  0.00    -0.259 OA
BRANCH  26  28
HETATM   28  O4  UNK     1      32.419  -5.576  35.678  1.00  0.00    -0.313 OA
BRANCH  28  29
HETATM   29  C24 UNK     1      33.192  -6.273  34.696  1.00  0.00     0.217 C 
BRANCH  29  30
HETATM   30  C26 UNK     1      32.412  -6.339  33.415  1.00  0.00    -0.034 A 
HETATM   31  C28 UNK     1      31.266  -5.566  33.267  1.00  0.00     0.012 A 
HETATM   32  C30 UNK     1      30.540  -5.628  32.077  1.00  0.00     0.037 A 
HETATM   33  C32 UNK     1      30.966  -6.463  31.044  1.00  0.00     0.068 A 
HETATM   34  C31 UNK     1      32.117  -7.235  31.199  1.00  0.00     0.037 A 
HETATM   35  C29 UNK     1      32.842  -7.174  32.390  1.00  0.00     0.012 A 
BRANCH  33  36
HETATM   36  O7  UNK     1      30.258  -6.522  29.883  1.00  0.00    -0.356 OA
HETATM   37  C33 UNK     1      30.740  -7.407  28.872  1.00  0.00     0.210 C 
ENDBRANCH  33  36
ENDBRANCH  29  30
ENDBRANCH  28  29
ENDBRANCH  26  28
ENDBRANCH  10  26
BRANCH   3  38
HETATM   38  C10 UNK     1      26.222  -9.251  38.334  1.00  0.00     0.057 A 
HETATM   39  O1  UNK     1      26.600 -10.324  37.604  1.00  0.00    -0.327 OA
HETATM   40  C20 UNK     1      25.683 -10.445  36.609  1.00  0.00     0.142 A 
HETATM   41  C18 UNK     1      24.730  -9.458  36.707  1.00  0.00     0.027 A 
HETATM   42  C15 UNK     1      25.085  -8.680  37.835  1.00  0.00     0.035 A 
ENDBRANCH   3  38
TORSDOF 7
ENDMDL
MODEL 5
REMARK VINA RESULT:      -8.9      0.903      1.889
REMARK  7 active torsions:
REMARK  status: ('A' for Active; 'I' for Inactive)
REMARK    1  A    between atoms: C13_21  and  O4_4 
REMARK    2  A    between atoms: C24_32  and  O4_4 
REMARK    3  A    between atoms: C32_40  and  O7_7 
REMARK    4  A    between atoms: C1_9  and  C10_18 
REMARK    5  A    between atoms: C11_19  and  C4_12 
REMARK    6  A    between atoms: C13_21  and  C8_16 
REMARK    7  A    between atoms: C24_32  and  C26_34 
ROOT
HETATM    1  O2  UNK     1      30.798  -9.792  36.017  1.00  0.00    -0.293 OA
HETATM    2  N1  UNK     1      34.874  -7.383  36.017  1.00  0.00    -0.362 N 
HETATM    3  C1  UNK     1      32.023  -7.404  38.519  1.00  0.00     0.056 C 
HETATM    4  C2  UNK     1      33.472  -7.314  38.025  1.00  0.00     0.069 C 
HETATM    5  C3  UNK     1      32.812  -8.546  35.929  1.00  0.00     0.024 C 
HETATM    6  C4  UNK     1      33.075  -8.946  34.479  1.00  0.00     0.104 C 
HETATM    7  C5  UNK     1      33.689  -7.779  36.609  1.00  0.00     0.021 C 
HETATM    8  C6  UNK     1      31.338  -8.690  38.060  1.00  0.00     0.095 C 
HETATM    9  C7  UNK     1      31.579  -9.047  36.609  1.00  0.00     0.159 C 
HETATM   10  C8  UNK     1      34.479  -8.568  34.007  1.00  0.00     0.052 C 
HETATM   11  C9  UNK     1      35.295  -7.797  34.763  1.00  0.00     0.018 C 
HETATM   12  C12 UNK     1      36.668  -7.329  34.365  1.00  0.00     0.069 C 
HETATM   13  H7  UNK     1      35.508  -6.812  36.562  1.00  0.00     0.165 HD
ENDROOT
BRANCH   6  14
HETATM   14  C11 UNK     1      32.041  -8.333  33.573  1.00  0.00     0.029 A 
HETATM   15  C14 UNK     1      32.025  -6.857  33.411  1.00  0.00     0.194 A 
HETATM   16  O6  UNK     1      32.821  -6.131  33.991  1.00  0.00    -0.287 OA
HETATM   17  C17 UNK     1      30.992  -6.310  32.513  1.00  0.00     0.049 A 
HETATM   18  C19 UNK     1      30.110  -7.186  31.879  1.00  0.00     0.089 A 
HETATM   19  C21 UNK     1      30.894  -4.934  32.295  1.00  0.00     0.025 A 
HETATM   20  O3  UNK     1      30.161  -8.546  32.057  1.00  0.00    -0.321 OA
HETATM   21  C22 UNK     1      29.125  -6.690  31.025  1.00  0.00     0.039 A 
HETATM   22  C16 UNK     1      31.128  -9.041  32.896  1.00  0.00     0.154 A 
HETATM   23  C25 UNK     1      29.025  -5.316  30.805  1.00  0.00     0.009 A 
HETATM   24  C23 UNK     1      29.907  -4.440  31.439  1.00  0.00    -0.061 A 
HETATM   25  C27 UNK     1      29.796  -2.971  31.201  1.00  0.00     0.048 C 
ENDBRANCH   6  14
BRANCH  10  26
HETATM   26  C13 UNK     1      34.911  -9.125  32.714  1.00  0.00     0.292 C 
HETATM   27  O5  UNK     1      35.314 -10.266  32.580  1.00  0.00    -0.259 OA
BRANCH  26  28
HETATM   28  O4  UNK     1      34.776  -8.165  31.769  1.00  0.00    -0.313 OA
BRANCH  28  29
HETATM   29  C24 UNK     1      34.892  -8.625  30.418  1.00  0.00     0.217 C 
BRANCH  29  30
HETATM   30  C26 UNK     1      33.521  -8.733  29.818  1.00  0.00    -0.034 A 
HETATM   31  C28 UNK     1      32.933  -7.615  29.238  1.00  0.00     0.012 A 
HETATM   32  C30 UNK     1      31.658  -7.715  28.681  1.00  0.00     0.037 A 
HETATM   33  C32 UNK     1      30.980  -8.934  28.709  1.00  0.00     0.068 A 
HETATM   34  C31 UNK     1      31.576 -10.052  29.291  1.00  0.00     0.037 A 
HETATM   35  C29 UNK     1      32.851  -9.951  29.849  1.00  0.00     0.012 A 
BRANCH  33  36
HETATM   36  O7  UNK     1      29.736  -9.031  28.164  1.00  0.00    -0.356 OA
HETATM   37  C33 UNK     1      28.935 -10.141  28.568  1.00  0.00     0.210 C 
ENDBRANCH  33  36
ENDBRANCH  29  30
ENDBRANCH  28  29
ENDBRANCH  26  28
ENDBRANCH  10  26
BRANCH   3  38
HETATM   38  C10 UNK     1      31.217  -6.138  38.224  1.00  0.00     0.057 A 
HETATM   39  O1  UNK     1      29.933  -6.147  38.647  1.00  0.00    -0.327 OA
HETATM   40  C20 UNK     1      29.410  -4.945  38.288  1.00  0.00     0.142 A 
HETATM   41  C18 UNK     1      30.354  -4.180  37.643  1.00  0.00     0.027 A 
HETATM   42  C15 UNK     1      31.533  -4.962  37.603  1.00  0.00     0.035 A 
ENDBRANCH   3  38
TORSDOF 7
ENDMDL
MODEL 6
REMARK VINA RESULT:      -8.8      2.286      5.160
REMARK  7 active torsions:
REMARK  status: ('A' for Active; 'I' for Inactive)
REMARK    1  A    between atoms: C13_21  and  O4_4 
REMARK    2  A    between atoms: C24_32  and  O4_4 
REMARK    3  A    between atoms: C32_40  and  O7_7 
REMARK    4  A    between atoms: C1_9  and  C10_18 
REMARK    5  A    between atoms: C11_19  and  C4_12 
REMARK    6  A    between atoms: C13_21  and  C8_16 
REMARK    7  A    between atoms: C24_32  and  C26_34 
ROOT
HETATM    1  O2  UNK     1      32.001  -4.228  34.927  1.00  0.00    -0.293 OA
HETATM    2  N1  UNK     1      32.778  -8.124  37.504  1.00  0.00    -0.362 N 
HETATM    3  C1  UNK     1      35.211  -5.602  36.052  1.00  0.00     0.056 C 
HETATM    4  C2  UNK     1      34.659  -6.618  37.059  1.00  0.00     0.069 C 
HETATM    5  C3  UNK     1      32.343  -6.232  36.147  1.00  0.00     0.024 C 
HETATM    6  C4  UNK     1      30.893  -6.672  35.961  1.00  0.00     0.104 C 
HETATM    7  C5  UNK     1      33.208  -6.972  36.871  1.00  0.00     0.021 C 
HETATM    8  C6  UNK     1      34.217  -4.478  35.766  1.00  0.00     0.095 C 
HETATM    9  C7  UNK     1      32.793  -4.940  35.544  1.00  0.00     0.159 C 
HETATM   10  C8  UNK     1      30.523  -7.872  36.833  1.00  0.00     0.052 C 
HETATM   11  C9  UNK     1      31.461  -8.552  37.533  1.00  0.00     0.018 C 
HETATM   12  C12 UNK     1      31.206  -9.773  38.374  1.00  0.00     0.069 C 
HETATM   13  H7  UNK     1      33.457  -8.650  38.042  1.00  0.00     0.165 HD
ENDROOT
BRANCH   6  14
HETATM   14  C11 UNK     1      30.622  -6.981  34.513  1.00  0.00     0.029 A 
HETATM   15  C14 UNK     1      29.306  -6.604  33.941  1.00  0.00     0.194 A 
HETATM   16  O6  UNK     1      28.440  -6.054  34.609  1.00  0.00    -0.287 OA
HETATM   17  C17 UNK     1      29.093  -6.929  32.518  1.00  0.00     0.049 A 
HETATM   18  C19 UNK     1      30.116  -7.558  31.807  1.00  0.00     0.089 A 
HETATM   19  C21 UNK     1      27.888  -6.616  31.888  1.00  0.00     0.025 A 
HETATM   20  O3  UNK     1      31.320  -7.888  32.376  1.00  0.00    -0.321 OA
HETATM   21  C22 UNK     1      29.937  -7.875  30.460  1.00  0.00     0.039 A 
HETATM   22  C16 UNK     1      31.503  -7.579  33.701  1.00  0.00     0.154 A 
HETATM   23  C25 UNK     1      28.734  -7.563  29.827  1.00  0.00     0.009 A 
HETATM   24  C23 UNK     1      27.711  -6.934  30.540  1.00  0.00    -0.061 A 
HETATM   25  C27 UNK     1      26.426  -6.602  29.859  1.00  0.00     0.048 C 
ENDBRANCH   6  14
BRANCH  10  26
HETATM   26  C13 UNK     1      29.093  -8.215  36.909  1.00  0.00     0.292 C 
HETATM   27  O5  UNK     1      28.236  -7.431  37.273  1.00  0.00    -0.259 OA
BRANCH  26  28
HETATM   28  O4  UNK     1      28.941  -9.501  36.514  1.00  0.00    -0.313 OA
BRANCH  28  29
HETATM   29  C24 UNK     1      28.356  -9.673  35.218  1.00  0.00     0.217 C 
BRANCH  29  30
HETATM   30  C26 UNK     1      29.347 -10.355  34.321  1.00  0.00    -0.034 A 
HETATM   31  C28 UNK     1      29.035 -10.562  32.982  1.00  0.00     0.012 A 
HETATM   32  C30 UNK     1      29.955 -11.196  32.148  1.00  0.00     0.037 A 
HETATM   33  C32 UNK     1      31.183 -11.619  32.659  1.00  0.00     0.068 A 
HETATM   34  C31 UNK     1      31.491 -11.407  34.003  1.00  0.00     0.037 A 
HETATM   35  C29 UNK     1      30.569 -10.773  34.837  1.00  0.00     0.012 A 
BRANCH  33  36
HETATM   36  O7  UNK     1      32.081 -12.237  31.844  1.00  0.00    -0.356 OA
HETATM   37  C33 UNK     1      32.332 -11.629  30.577  1.00  0.00     0.210 C 
ENDBRANCH  33  36
ENDBRANCH  29  30
ENDBRANCH  28  29
ENDBRANCH  26  28
ENDBRANCH  10  26
BRANCH   3  38
HETATM   38  C10 UNK     1      35.774  -6.263  34.792  1.00  0.00     0.057 A 
HETATM   39  O1  UNK     1      36.830  -7.085  34.981  1.00  0.00    -0.327 OA
HETATM   40  C20 UNK     1      37.165  -7.557  33.751  1.00  0.00     0.142 A 
HETATM   41  C18 UNK     1      36.328  -7.040  32.790  1.00  0.00     0.027 A 
HETATM   42  C15 UNK     1      35.421  -6.195  33.473  1.00  0.00     0.035 A 
ENDBRANCH   3  38
TORSDOF 7
ENDMDL
MODEL 7
REMARK VINA RESULT:      -8.8      2.000      7.325
REMARK  7 active torsions:
REMARK  status: ('A' for Active; 'I' for Inactive)
REMARK    1  A    between atoms: C13_21  and  O4_4 
REMARK    2  A    between atoms: C24_32  and  O4_4 
REMARK    3  A    between atoms: C32_40  and  O7_7 
REMARK    4  A    between atoms: C1_9  and  C10_18 
REMARK    5  A    between atoms: C11_19  and  C4_12 
REMARK    6  A    between atoms: C13_21  and  C8_16 
REMARK    7  A    between atoms: C24_32  and  C26_34 
ROOT
HETATM    1  O2  UNK     1      30.285  -6.010  30.954  1.00  0.00    -0.293 OA
HETATM    2  N1  UNK     1      34.348  -8.421  30.636  1.00  0.00    -0.362 N 
HETATM    3  C1  UNK     1      31.357  -8.311  28.305  1.00  0.00     0.056 C 
HETATM    4  C2  UNK     1      32.832  -8.419  28.711  1.00  0.00     0.069 C 
HETATM    5  C3  UNK     1      32.297  -7.260  30.883  1.00  0.00     0.024 C 
HETATM    6  C4  UNK     1      32.645  -6.910  32.328  1.00  0.00     0.104 C 
HETATM    7  C5  UNK     1      33.131  -8.004  30.127  1.00  0.00     0.021 C 
HETATM    8  C6  UNK     1      30.704  -7.041  28.847  1.00  0.00     0.095 C 
HETATM    9  C7  UNK     1      31.028  -6.735  30.293  1.00  0.00     0.159 C 
HETATM   10  C8  UNK     1      34.073  -7.306  32.705  1.00  0.00     0.052 C 
HETATM   11  C9  UNK     1      34.841  -8.051  31.877  1.00  0.00     0.018 C 
HETATM   12  C12 UNK     1      36.234  -8.534  32.178  1.00  0.00     0.069 C 
HETATM   13  H7  UNK     1      34.948  -8.974  30.035  1.00  0.00     0.165 HD
ENDROOT
BRANCH   6  14
HETATM   14  C11 UNK     1      31.663  -7.554  33.271  1.00  0.00     0.029 A 
HETATM   15  C14 UNK     1      30.858  -6.680  34.161  1.00  0.00     0.194 A 
HETATM   16  O6  UNK     1      30.970  -5.462  34.151  1.00  0.00    -0.287 OA
HETATM   17  C17 UNK     1      29.912  -7.361  35.064  1.00  0.00     0.049 A 
HETATM   18  C19 UNK     1      29.828  -8.754  35.033  1.00  0.00     0.089 A 
HETATM   19  C21 UNK     1      29.110  -6.628  35.941  1.00  0.00     0.025 A 
HETATM   20  O3  UNK     1      30.592  -9.524  34.192  1.00  0.00    -0.321 OA
HETATM   21  C22 UNK     1      28.940  -9.420  35.879  1.00  0.00     0.039 A 
HETATM   22  C16 UNK     1      31.468  -8.876  33.357  1.00  0.00     0.154 A 
HETATM   23  C25 UNK     1      28.138  -8.689  36.755  1.00  0.00     0.009 A 
HETATM   24  C23 UNK     1      28.222  -7.296  36.786  1.00  0.00    -0.061 A 
HETATM   25  C27 UNK     1      27.361  -6.520  37.725  1.00  0.00     0.048 C 
ENDBRANCH   6  14
BRANCH  10  26
HETATM   26  C13 UNK     1      34.580  -6.794  33.989  1.00  0.00     0.292 C 
HETATM   27  O5  UNK     1      35.173  -5.737  34.099  1.00  0.00    -0.259 OA
BRANCH  26  28
HETATM   28  O4  UNK     1      34.270  -7.688  34.958  1.00  0.00    -0.313 OA
BRANCH  28  29
HETATM   29  C24 UNK     1      34.680  -7.317  36.278  1.00  0.00     0.217 C 
BRANCH  29  30
HETATM   30  C26 UNK     1      33.493  -6.783  37.027  1.00  0.00    -0.034 A 
HETATM   31  C28 UNK     1      32.677  -7.656  37.736  1.00  0.00     0.012 A 
HETATM   32  C30 UNK     1      31.574  -7.161  38.431  1.00  0.00     0.037 A 
HETATM   33  C32 UNK     1      31.295  -5.793  38.411  1.00  0.00     0.068 A 
HETATM   34  C31 UNK     1      32.119  -4.923  37.699  1.00  0.00     0.037 A 
HETATM   35  C29 UNK     1      33.222  -5.420  37.003  1.00  0.00     0.012 A 
BRANCH  33  36
HETATM   36  O7  UNK     1      30.219  -5.310  39.091  1.00  0.00    -0.356 OA
HETATM   37  C33 UNK     1      29.770  -4.000  38.748  1.00  0.00     0.210 C 
ENDBRANCH  33  36
ENDBRANCH  29  30
ENDBRANCH  28  29
ENDBRANCH  26  28
ENDBRANCH  10  26
BRANCH   3  38
HETATM   38  C10 UNK     1      30.566  -9.586  28.602  1.00  0.00     0.057 A 
HETATM   39  O1  UNK     1      31.188 -10.494  29.387  1.00  0.00    -0.327 OA
HETATM   40  C20 UNK     1      30.322 -11.532  29.522  1.00  0.00     0.142 A 
HETATM   41  C18 UNK     1      29.159 -11.285  28.829  1.00  0.00     0.027 A 
HETATM   42  C15 UNK     1      29.322 -10.013  28.230  1.00  0.00     0.035 A 
ENDBRANCH   3  38
TORSDOF 7
ENDMDL
MODEL 8
REMARK VINA RESULT:      -8.7      2.281      5.249
REMARK  7 active torsions:
REMARK  status: ('A' for Active; 'I' for Inactive)
REMARK    1  A    between atoms: C13_21  and  O4_4 
REMARK    2  A    between atoms: C24_32  and  O4_4 
REMARK    3  A    between atoms: C32_40  and  O7_7 
REMARK    4  A    between atoms: C1_9  and  C10_18 
REMARK    5  A    between atoms: C11_19  and  C4_12 
REMARK    6  A    between atoms: C13_21  and  C8_16 
REMARK    7  A    between atoms: C24_32  and  C26_34 
ROOT
HETATM    1  O2  UNK     1      32.191  -3.982  35.207  1.00  0.00    -0.293 OA
HETATM    2  N1  UNK     1      32.693  -8.074  37.536  1.00  0.00    -0.362 N 
HETATM    3  C1  UNK     1      35.297  -5.632  36.251  1.00  0.00     0.056 C 
HETATM    4  C2  UNK     1      34.672  -6.670  37.191  1.00  0.00     0.069 C 
HETATM    5  C3  UNK     1      32.393  -6.076  36.299  1.00  0.00     0.024 C 
HETATM    6  C4  UNK     1      30.918  -6.407  36.082  1.00  0.00     0.104 C 
HETATM    7  C5  UNK     1      33.202  -6.915  36.977  1.00  0.00     0.021 C 
HETATM    8  C6  UNK     1      34.380  -4.429  36.034  1.00  0.00     0.095 C 
HETATM    9  C7  UNK     1      32.931  -4.782  35.780  1.00  0.00     0.159 C 
HETATM   10  C8  UNK     1      30.465  -7.633  36.876  1.00  0.00     0.052 C 
HETATM   11  C9  UNK     1      31.351  -8.416  37.534  1.00  0.00     0.018 C 
HETATM   12  C12 UNK     1      31.011  -9.667  38.296  1.00  0.00     0.069 C 
HETATM   13  H7  UNK     1      33.333  -8.676  38.041  1.00  0.00     0.165 HD
ENDROOT
BRANCH   6  14
HETATM   14  C11 UNK     1      30.638  -6.607  34.616  1.00  0.00     0.029 A 
HETATM   15  C14 UNK     1      31.589  -7.419  33.816  1.00  0.00     0.194 A 
HETATM   16  O6  UNK     1      32.588  -7.925  34.311  1.00  0.00    -0.287 OA
HETATM   17  C17 UNK     1      31.268  -7.582  32.387  1.00  0.00     0.049 A 
HETATM   18  C19 UNK     1      30.116  -6.980  31.878  1.00  0.00     0.089 A 
HETATM   19  C21 UNK     1      32.101  -8.327  31.550  1.00  0.00     0.025 A 
HETATM   20  O3  UNK     1      29.263  -6.238  32.654  1.00  0.00    -0.321 OA
HETATM   21  C22 UNK     1      29.792  -7.122  30.528  1.00  0.00     0.039 A 
HETATM   22  C16 UNK     1      29.575  -6.095  33.984  1.00  0.00     0.154 A 
HETATM   23  C25 UNK     1      30.622  -7.866  29.690  1.00  0.00     0.009 A 
HETATM   24  C23 UNK     1      31.774  -8.467  30.200  1.00  0.00    -0.061 A 
HETATM   25  C27 UNK     1      32.659  -9.262  29.299  1.00  0.00     0.048 C 
ENDBRANCH   6  14
BRANCH  10  26
HETATM   26  C13 UNK     1      29.015  -7.885  36.926  1.00  0.00     0.292 C 
HETATM   27  O5  UNK     1      28.205  -7.056  37.300  1.00  0.00    -0.259 OA
BRANCH  26  28
HETATM   28  O4  UNK     1      28.786  -9.149  36.497  1.00  0.00    -0.313 OA
BRANCH  28  29
HETATM   29  C24 UNK     1      28.242  -9.253  35.177  1.00  0.00     0.217 C 
BRANCH  29  30
HETATM   30  C26 UNK     1      29.178 -10.057  34.324  1.00  0.00    -0.034 A 
HETATM   31  C28 UNK     1      30.319 -10.615  34.890  1.00  0.00     0.012 A 
HETATM   32  C30 UNK     1      31.190 -11.362  34.097  1.00  0.00     0.037 A 
HETATM   33  C32 UNK     1      30.913 -11.547  32.742  1.00  0.00     0.068 A 
HETATM   34  C31 UNK     1      29.767 -10.986  32.180  1.00  0.00     0.037 A 
HETATM   35  C29 UNK     1      28.896 -10.237  32.974  1.00  0.00     0.012 A 
BRANCH  33  36
HETATM   36  O7  UNK     1      31.763 -12.278  31.969  1.00  0.00    -0.356 OA
HETATM   37  C33 UNK     1      31.385 -12.486  30.609  1.00  0.00     0.210 C 
ENDBRANCH  33  36
ENDBRANCH  29  30
ENDBRANCH  28  29
ENDBRANCH  26  28
ENDBRANCH  10  26
BRANCH   3  38
HETATM   38  C10 UNK     1      35.823  -6.248  34.954  1.00  0.00     0.057 A 
HETATM   39  O1  UNK     1      36.829  -7.141  35.093  1.00  0.00    -0.327 OA
HETATM   40  C20 UNK     1      37.139  -7.558  33.837  1.00  0.00     0.142 A 
HETATM   41  C18 UNK     1      36.337  -6.935  32.909  1.00  0.00     0.027 A 
HETATM   42  C15 UNK     1      35.479  -6.081  33.642  1.00  0.00     0.035 A 
ENDBRANCH   3  38
TORSDOF 7
ENDMDL
MODEL 9
REMARK VINA RESULT:      -8.6      2.580      7.140
REMARK  7 active torsions:
REMARK  status: ('A' for Active; 'I' for Inactive)
REMARK    1  A    between atoms: C13_21  and  O4_4 
REMARK    2  A    between atoms: C24_32  and  O4_4 
REMARK    3  A    between atoms: C32_40  and  O7_7 
REMARK    4  A    between atoms: C1_9  and  C10_18 
REMARK    5  A    between atoms: C11_19  and  C4_12 
REMARK    6  A    between atoms: C13_21  and  C8_16 
REMARK    7  A    between atoms: C24_32  and  C26_34 
ROOT
HETATM    1  O2  UNK     1      30.591  -8.632  31.661  1.00  0.00    -0.293 OA
HETATM    2  N1  UNK     1      35.161  -9.786  32.113  1.00  0.00    -0.362 N 
HETATM    3  C1  UNK     1      32.322 -11.596  30.365  1.00  0.00     0.056 C 
HETATM    4  C2  UNK     1      33.759 -11.118  30.608  1.00  0.00     0.069 C 
HETATM    5  C3  UNK     1      32.867  -9.207  31.987  1.00  0.00     0.024 C 
HETATM    6  C4  UNK     1      33.065  -8.112  33.032  1.00  0.00     0.104 C 
HETATM    7  C5  UNK     1      33.893  -9.994  31.601  1.00  0.00     0.021 C 
HETATM    8  C6  UNK     1      31.335 -10.432  30.289  1.00  0.00     0.095 C 
HETATM    9  C7  UNK     1      31.522  -9.378  31.359  1.00  0.00     0.159 C 
HETATM   10  C8  UNK     1      34.535  -7.899  33.395  1.00  0.00     0.052 C 
HETATM   11  C9  UNK     1      35.499  -8.739  32.955  1.00  0.00     0.018 C 
HETATM   12  C12 UNK     1      36.961  -8.646  33.299  1.00  0.00     0.069 C 
HETATM   13  H7  UNK     1      35.905 -10.396  31.795  1.00  0.00     0.165 HD
ENDROOT
BRANCH   6  14
HETATM   14  C11 UNK     1      32.265  -8.421  34.269  1.00  0.00     0.029 A 
HETATM   15  C14 UNK     1      31.170  -7.496  34.656  1.00  0.00     0.194 A 
HETATM   16  O6  UNK     1      30.903  -6.496  34.003  1.00  0.00    -0.287 OA
HETATM   17  C17 UNK     1      30.419  -7.845  35.876  1.00  0.00     0.049 A 
HETATM   18  C19 UNK     1      30.770  -8.998  36.581  1.00  0.00     0.089 A 
HETATM   19  C21 UNK     1      29.371  -7.039  36.323  1.00  0.00     0.025 A 
HETATM   20  O3  UNK     1      31.790  -9.826  36.187  1.00  0.00    -0.321 OA
HETATM   21  C22 UNK     1      30.073  -9.348  37.738  1.00  0.00     0.039 A 
HETATM   22  C16 UNK     1      32.480  -9.488  35.049  1.00  0.00     0.154 A 
HETATM   23  C25 UNK     1      29.025  -8.544  38.187  1.00  0.00     0.009 A 
HETATM   24  C23 UNK     1      28.675  -7.391  37.481  1.00  0.00    -0.061 A 
HETATM   25  C27 UNK     1      27.554  -6.534  37.966  1.00  0.00     0.048 C 
ENDBRANCH   6  14
BRANCH  10  26
HETATM   26  C13 UNK     1      34.847  -6.709  34.204  1.00  0.00     0.292 C 
HETATM   27  O5  UNK     1      35.158  -5.635  33.721  1.00  0.00    -0.259 OA
BRANCH  26  28
HETATM   28  O4  UNK     1      34.725  -7.037  35.512  1.00  0.00    -0.313 OA
BRANCH  28  29
HETATM   29  C24 UNK     1      34.937  -5.960  36.430  1.00  0.00     0.217 C 
BRANCH  29  30
HETATM   30  C26 UNK     1      33.607  -5.401  36.845  1.00  0.00    -0.034 A 
HETATM   31  C28 UNK     1      32.976  -5.896  37.980  1.00  0.00     0.012 A 
HETATM   32  C30 UNK     1      31.740  -5.378  38.365  1.00  0.00     0.037 A 
HETATM   33  C32 UNK     1      31.143  -4.367  37.611  1.00  0.00     0.068 A 
HETATM   34  C31 UNK     1      31.781  -3.875  36.473  1.00  0.00     0.037 A 
HETATM   35  C29 UNK     1      33.018  -4.394  36.088  1.00  0.00     0.012 A 
BRANCH  33  36
HETATM   36  O7  UNK     1      29.936  -3.861  37.988  1.00  0.00    -0.356 OA
HETATM   37  C33 UNK     1      29.588  -3.975  39.368  1.00  0.00     0.210 C 
ENDBRANCH  33  36
ENDBRANCH  29  30
ENDBRANCH  28  29
ENDBRANCH  26  28
ENDBRANCH  10  26
BRANCH   3  38
HETATM   38  C10 UNK     1      31.895 -12.704  31.329  1.00  0.00     0.057 A 
HETATM   39  O1  UNK     1      32.900 -13.400  31.907  1.00  0.00    -0.327 OA
HETATM   40  C20 UNK     1      32.307 -14.320  32.712  1.00  0.00     0.142 A 
HETATM   41  C18 UNK     1      30.937 -14.209  32.646  1.00  0.00     0.027 A 
HETATM   42  C15 UNK     1      30.672 -13.153  31.742  1.00  0.00     0.035 A 
ENDBRANCH   3  38
TORSDOF 7
ENDMDL
MODEL 10
REMARK VINA RESULT:      -8.6      2.871      5.173
REMARK  7 active torsions:
REMARK  status: ('A' for Active; 'I' for Inactive)
REMARK    1  A    between atoms: C13_21  and  O4_4 
REMARK    2  A    between atoms: C24_32  and  O4_4 
REMARK    3  A    between atoms: C32_40  and  O7_7 
REMARK    4  A    between atoms: C1_9  and  C10_18 
REMARK    5  A    between atoms: C11_19  and  C4_12 
REMARK    6  A    between atoms: C13_21  and  C8_16 
REMARK    7  A    between atoms: C24_32  and  C26_34 
ROOT
HETATM    1  O2  UNK     1      30.310 -10.028  37.037  1.00  0.00    -0.293 OA
HETATM    2  N1  UNK     1      29.528  -5.495  38.158  1.00  0.00    -0.362 N 
HETATM    3  C1  UNK     1      27.804  -8.660  39.342  1.00  0.00     0.056 C 
HETATM    4  C2  UNK     1      28.363  -7.235  39.431  1.00  0.00     0.069 C 
HETATM    5  C3  UNK     1      29.902  -7.740  37.501  1.00  0.00     0.024 C 
HETATM    6  C4  UNK     1      30.804  -7.278  36.360  1.00  0.00     0.104 C 
HETATM    7  C5  UNK     1      29.297  -6.849  38.314  1.00  0.00     0.021 C 
HETATM    8  C6  UNK     1      28.864  -9.666  38.897  1.00  0.00     0.095 C 
HETATM    9  C7  UNK     1      29.721  -9.205  37.738  1.00  0.00     0.159 C 
HETATM   10  C8  UNK     1      31.085  -5.776  36.399  1.00  0.00     0.052 C 
HETATM   11  C9  UNK     1      30.433  -4.958  37.257  1.00  0.00     0.018 C 
HETATM   12  C12 UNK     1      30.600  -3.465  37.336  1.00  0.00     0.069 C 
HETATM   13  H7  UNK     1      29.058  -4.858  38.791  1.00  0.00     0.165 HD
ENDROOT
BRANCH   6  14
HETATM   14  C11 UNK     1      30.203  -7.658  35.033  1.00  0.00     0.029 A 
HETATM   15  C14 UNK     1      31.048  -8.388  34.054  1.00  0.00     0.194 A 
HETATM   16  O6  UNK     1      32.210  -8.685  34.293  1.00  0.00    -0.287 OA
HETATM   17  C17 UNK     1      30.410  -8.735  32.771  1.00  0.00     0.049 A 
HETATM   18  C19 UNK     1      29.081  -8.369  32.553  1.00  0.00     0.089 A 
HETATM   19  C21 UNK     1      31.121  -9.421  31.784  1.00  0.00     0.025 A 
HETATM   20  O3  UNK     1      28.335  -7.694  33.487  1.00  0.00    -0.321 OA
HETATM   21  C22 UNK     1      28.457  -8.687  31.346  1.00  0.00     0.039 A 
HETATM   22  C16 UNK     1      28.943  -7.378  34.677  1.00  0.00     0.154 A 
HETATM   23  C25 UNK     1      29.165  -9.372  30.359  1.00  0.00     0.009 A 
HETATM   24  C23 UNK     1      30.495  -9.738  30.578  1.00  0.00    -0.061 A 
HETATM   25  C27 UNK     1      31.247 -10.471  29.518  1.00  0.00     0.048 C 
ENDBRANCH   6  14
BRANCH  10  26
HETATM   26  C13 UNK     1      32.134  -5.279  35.493  1.00  0.00     0.292 C 
HETATM   27  O5  UNK     1      31.899  -4.614  34.500  1.00  0.00    -0.259 OA
BRANCH  26  28
HETATM   28  O4  UNK     1      33.335  -5.689  35.964  1.00  0.00    -0.313 OA
BRANCH  28  29
HETATM   29  C24 UNK     1      34.471  -5.076  35.345  1.00  0.00     0.217 C 
BRANCH  29  30
HETATM   30  C26 UNK     1      35.176  -6.093  34.496  1.00  0.00    -0.034 A 
HETATM   31  C28 UNK     1      36.289  -6.757  34.998  1.00  0.00     0.012 A 
HETATM   32  C30 UNK     1      36.944  -7.702  34.209  1.00  0.00     0.037 A 
HETATM   33  C32 UNK     1      36.481  -7.975  32.922  1.00  0.00     0.068 A 
HETATM   34  C31 UNK     1      35.364  -7.306  32.424  1.00  0.00     0.037 A 
HETATM   35  C29 UNK     1      34.709  -6.360  33.214  1.00  0.00     0.012 A 
BRANCH  33  36
HETATM   36  O7  UNK     1      37.121  -8.899  32.152  1.00  0.00    -0.356 OA
HETATM   37  C33 UNK     1      37.797  -9.955  32.834  1.00  0.00     0.210 C 
ENDBRANCH  33  36
ENDBRANCH  29  30
ENDBRANCH  28  29
ENDBRANCH  26  28
ENDBRANCH  10  26
BRANCH   3  38
HETATM   38  C10 UNK     1      26.505  -8.737  38.538  1.00  0.00     0.057 A 
HETATM   39  O1  UNK     1      25.455  -8.056  39.051  1.00  0.00    -0.327 OA
HETATM   40  C20 UNK     1      24.421  -8.258  38.193  1.00  0.00     0.142 A 
HETATM   41  C18 UNK     1      24.811  -9.059  37.145  1.00  0.00     0.027 A 
HETATM   42  C15 UNK     1      26.172  -9.370  37.373  1.00  0.00     0.035 A 
ENDBRANCH   3  38
TORSDOF 7
ENDMDL
