MODEL 1
REMARK VINA RESULT:     -10.7      0.000      0.000
REMARK  4 active torsions:
REMARK  status: ('A' for Active; 'I' for Inactive)
REMARK       I    between atoms: C12_18  and  N2_6 
REMARK    1  A    between atoms: C6_12  and  N2_6 
REMARK    2  A    between atoms: C1_7  and  C2_8 
REMARK    3  A    between atoms: C2_8  and  C6_12 
REMARK    4  A    between atoms: C12_18  and  C13_19 
ROOT
HETATM    1  O2  UNK     1      17.963   2.599  28.490  1.00  0.00    -0.267 OA
HETATM    2  N2  UNK     1      18.979   3.860  30.168  1.00  0.00    -0.356 N 
HETATM    3  C12 UNK     1      18.567   2.689  29.557  1.00  0.00     0.257 C 
HETATM    4  H11 UNK     1      19.500   3.826  31.039  1.00  0.00     0.162 HD
ENDROOT
BRANCH   2   5
HETATM    5  C6  UNK     1      18.739   5.168  29.604  1.00  0.00     0.127 C 
BRANCH   5   6
HETATM    6  C2  UNK     1      19.677   6.208  30.217  1.00  0.00     0.061 C 
BRANCH   6   7
HETATM    7  C1  UNK     1      19.456   6.405  31.697  1.00  0.00    -0.022 A 
HETATM    8  C3  UNK     1      18.216   6.667  32.302  1.00  0.00     0.000 A 
HETATM    9  C5  UNK     1      18.470   6.777  33.672  1.00  0.00     0.043 A 
HETATM   10  C7  UNK     1      16.893   6.827  31.844  1.00  0.00     0.033 A 
HETATM   11  N1  UNK     1      19.822   6.582  33.849  1.00  0.00    -0.359 N 
HETATM   12  C9  UNK     1      17.463   7.039  34.609  1.00  0.00     0.031 A 
HETATM   13  C4  UNK     1      20.428   6.354  32.643  1.00  0.00     0.013 A 
HETATM   14  H3  UNK     1      20.292   6.604  34.743  1.00  0.00     0.166 HD
HETATM   15  C8  UNK     1      21.881   6.114  32.557  1.00  0.00     0.068 C 
HETATM   16  C11 UNK     1      16.160   7.194  34.130  1.00  0.00     0.021 A 
HETATM   17  C10 UNK     1      15.876   7.090  32.769  1.00  0.00     0.011 A 
HETATM   18 Br1  UNK     1      14.097   7.307  32.163  1.00  0.00    -0.051 Br
ENDBRANCH   6   7
ENDBRANCH   5   6
ENDBRANCH   2   5
BRANCH   3  19
HETATM   19  C13 UNK     1      18.928   1.489  30.322  1.00  0.00     0.108 A 
HETATM   20  C15 UNK     1      19.561   0.524  29.644  1.00  0.00     0.037 A 
HETATM   21  C14 UNK     1      19.959  -0.704  30.315  1.00  0.00    -0.001 A 
HETATM   22  C16 UNK     1      19.674  -0.854  31.668  1.00  0.00     0.089 A 
HETATM   23  C18 UNK     1      20.620  -1.737  29.647  1.00  0.00     0.014 A 
HETATM   24  O1  UNK     1      19.008   0.166  32.377  1.00  0.00    -0.274 OA
HETATM   25  C19 UNK     1      20.027  -2.005  32.370  1.00  0.00     0.038 A 
HETATM   26  C17 UNK     1      18.613   1.351  31.762  1.00  0.00     0.304 A 
HETATM   27  O3  UNK     1      18.035   2.233  32.387  1.00  0.00    -0.259 OA
HETATM   28  C21 UNK     1      20.687  -3.031  31.696  1.00  0.00     0.003 A 
HETATM   29  C20 UNK     1      20.982  -2.897  30.338  1.00  0.00     0.001 A 
ENDBRANCH   3  19
TORSDOF 4
ENDMDL
MODEL 2
REMARK VINA RESULT:      -9.9      2.026      3.080
REMARK  4 active torsions:
REMARK  status: ('A' for Active; 'I' for Inactive)
REMARK       I    between atoms: C12_18  and  N2_6 
REMARK    1  A    between atoms: C6_12  and  N2_6 
REMARK    2  A    between atoms: C1_7  and  C2_8 
REMARK    3  A    between atoms: C2_8  and  C6_12 
REMARK    4  A    between atoms: C12_18  and  C13_19 
ROOT
HETATM    1  O2  UNK     1      17.549   2.230  29.883  1.00  0.00    -0.267 OA
HETATM    2  N2  UNK     1      19.019   3.756  30.856  1.00  0.00    -0.356 N 
HETATM    3  C12 UNK     1      18.273   2.592  30.808  1.00  0.00     0.257 C 
HETATM    4  H11 UNK     1      19.612   3.951  31.657  1.00  0.00     0.162 HD
ENDROOT
BRANCH   2   5
HETATM    5  C6  UNK     1      19.035   4.725  29.784  1.00  0.00     0.127 C 
BRANCH   5   6
HETATM    6  C2  UNK     1      19.686   6.032  30.238  1.00  0.00     0.061 C 
BRANCH   6   7
HETATM    7  C1  UNK     1      19.477   6.319  31.705  1.00  0.00    -0.022 A 
HETATM    8  C3  UNK     1      18.241   6.616  32.303  1.00  0.00     0.000 A 
HETATM    9  C5  UNK     1      18.507   6.810  33.661  1.00  0.00     0.043 A 
HETATM   10  C7  UNK     1      16.914   6.744  31.848  1.00  0.00     0.033 A 
HETATM   11  N1  UNK     1      19.861   6.630  33.838  1.00  0.00    -0.359 N 
HETATM   12  C9  UNK     1      17.508   7.128  34.588  1.00  0.00     0.031 A 
HETATM   13  C4  UNK     1      20.458   6.330  32.644  1.00  0.00     0.013 A 
HETATM   14  H3  UNK     1      20.339   6.709  34.725  1.00  0.00     0.166 HD
HETATM   15  C8  UNK     1      21.910   6.088  32.559  1.00  0.00     0.068 C 
HETATM   16  C11 UNK     1      16.200   7.249  34.112  1.00  0.00     0.021 A 
HETATM   17  C10 UNK     1      15.905   7.060  32.763  1.00  0.00     0.011 A 
HETATM   18 Br1  UNK     1      14.120   7.234  32.160  1.00  0.00    -0.051 Br
ENDBRANCH   6   7
ENDBRANCH   5   6
ENDBRANCH   2   5
BRANCH   3  19
HETATM   19  C13 UNK     1      18.423   1.768  32.014  1.00  0.00     0.108 A 
HETATM   20  C15 UNK     1      18.051   2.336  33.168  1.00  0.00     0.037 A 
HETATM   21  C14 UNK     1      18.163   1.599  34.417  1.00  0.00    -0.001 A 
HETATM   22  C16 UNK     1      18.659   0.300  34.390  1.00  0.00     0.089 A 
HETATM   23  C18 UNK     1      17.787   2.152  35.644  1.00  0.00     0.014 A 
HETATM   24  O1  UNK     1      19.048  -0.293  33.173  1.00  0.00    -0.274 OA
HETATM   25  C19 UNK     1      18.792  -0.459  35.551  1.00  0.00     0.038 A 
HETATM   26  C17 UNK     1      18.954   0.388  31.962  1.00  0.00     0.304 A 
HETATM   27  O3  UNK     1      19.296  -0.137  30.907  1.00  0.00    -0.259 OA
HETATM   28  C21 UNK     1      18.415   0.100  36.771  1.00  0.00     0.003 A 
HETATM   29  C20 UNK     1      17.914   1.403  36.817  1.00  0.00     0.001 A 
ENDBRANCH   3  19
TORSDOF 4
ENDMDL
MODEL 3
REMARK VINA RESULT:      -9.7      2.225      2.670
REMARK  4 active torsions:
REMARK  status: ('A' for Active; 'I' for Inactive)
REMARK       I    between atoms: C12_18  and  N2_6 
REMARK    1  A    between atoms: C6_12  and  N2_6 
REMARK    2  A    between atoms: C1_7  and  C2_8 
REMARK    3  A    between atoms: C2_8  and  C6_12 
REMARK    4  A    between atoms: C12_18  and  C13_19 
ROOT
HETATM    1  O2  UNK     1      18.702   4.563  30.067  1.00  0.00    -0.267 OA
HETATM    2  N2  UNK     1      17.557   4.475  32.096  1.00  0.00    -0.356 N 
HETATM    3  C12 UNK     1      18.317   3.955  31.063  1.00  0.00     0.257 C 
HETATM    4  H11 UNK     1      17.314   3.896  32.894  1.00  0.00     0.162 HD
ENDROOT
BRANCH   2   5
HETATM    5  C6  UNK     1      17.107   5.848  32.128  1.00  0.00     0.127 C 
BRANCH   5   6
HETATM    6  C2  UNK     1      17.129   6.398  33.554  1.00  0.00     0.061 C 
BRANCH   6   7
HETATM    7  C1  UNK     1      18.065   7.570  33.723  1.00  0.00    -0.022 A 
HETATM    8  C3  UNK     1      17.666   8.909  33.869  1.00  0.00     0.000 A 
HETATM    9  C5  UNK     1      18.843   9.651  33.994  1.00  0.00     0.043 A 
HETATM   10  C7  UNK     1      16.430   9.586  33.911  1.00  0.00     0.033 A 
HETATM   11  N1  UNK     1      19.892   8.762  33.922  1.00  0.00    -0.359 N 
HETATM   12  C9  UNK     1      18.846  11.041  34.159  1.00  0.00     0.031 A 
HETATM   13  C4  UNK     1      19.419   7.488  33.756  1.00  0.00     0.013 A 
HETATM   14  H3  UNK     1      20.867   9.018  33.984  1.00  0.00     0.166 HD
HETATM   15  C8  UNK     1      20.343   6.343  33.649  1.00  0.00     0.068 C 
HETATM   16  C11 UNK     1      17.609  11.690  34.197  1.00  0.00     0.021 A 
HETATM   17  C10 UNK     1      16.418  10.975  34.075  1.00  0.00     0.011 A 
HETATM   18 Br1  UNK     1      14.764  11.893  34.131  1.00  0.00    -0.051 Br
ENDBRANCH   6   7
ENDBRANCH   5   6
ENDBRANCH   2   5
BRANCH   3  19
HETATM   19  C13 UNK     1      18.652   2.539  31.259  1.00  0.00     0.108 A 
HETATM   20  C15 UNK     1      19.208   1.913  30.214  1.00  0.00     0.037 A 
HETATM   21  C14 UNK     1      19.574   0.509  30.311  1.00  0.00    -0.001 A 
HETATM   22  C16 UNK     1      19.339  -0.167  31.504  1.00  0.00     0.089 A 
HETATM   23  C18 UNK     1      20.156  -0.184  29.247  1.00  0.00     0.014 A 
HETATM   24  O1  UNK     1      18.755   0.497  32.600  1.00  0.00    -0.274 OA
HETATM   25  C19 UNK     1      19.666  -1.513  31.662  1.00  0.00     0.038 A 
HETATM   26  C17 UNK     1      18.392   1.840  32.537  1.00  0.00     0.304 A 
HETATM   27  O3  UNK     1      17.884   2.410  33.497  1.00  0.00    -0.259 OA
HETATM   28  C21 UNK     1      20.246  -2.196  30.595  1.00  0.00     0.003 A 
HETATM   29  C20 UNK     1      20.490  -1.533  29.390  1.00  0.00     0.001 A 
ENDBRANCH   3  19
TORSDOF 4
ENDMDL
MODEL 4
REMARK VINA RESULT:      -9.6      6.382      9.019
REMARK  4 active torsions:
REMARK  status: ('A' for Active; 'I' for Inactive)
REMARK       I    between atoms: C12_18  and  N2_6 
REMARK    1  A    between atoms: C6_12  and  N2_6 
REMARK    2  A    between atoms: C1_7  and  C2_8 
REMARK    3  A    between atoms: C2_8  and  C6_12 
REMARK    4  A    between atoms: C12_18  and  C13_19 
ROOT
HETATM    1  O2  UNK     1      20.271  -4.198  34.906  1.00  0.00    -0.267 OA
HETATM    2  N2  UNK     1      19.058  -3.789  36.855  1.00  0.00    -0.356 N 
HETATM    3  C12 UNK     1      19.689  -4.586  35.918  1.00  0.00     0.257 C 
HETATM    4  H11 UNK     1      18.630  -4.206  37.676  1.00  0.00     0.162 HD
ENDROOT
BRANCH   2   5
HETATM    5  C6  UNK     1      19.002  -2.348  36.753  1.00  0.00     0.127 C 
BRANCH   5   6
HETATM    6  C2  UNK     1      17.664  -1.893  36.171  1.00  0.00     0.061 C 
BRANCH   6   7
HETATM    7  C1  UNK     1      17.767  -0.610  35.382  1.00  0.00    -0.022 A 
HETATM    8  C3  UNK     1      18.313  -0.494  34.093  1.00  0.00     0.000 A 
HETATM    9  C5  UNK     1      18.208   0.856  33.750  1.00  0.00     0.043 A 
HETATM   10  C7  UNK     1      18.891  -1.386  33.168  1.00  0.00     0.033 A 
HETATM   11  N1  UNK     1      17.616   1.500  34.813  1.00  0.00    -0.359 N 
HETATM   12  C9  UNK     1      18.654   1.360  32.522  1.00  0.00     0.031 A 
HETATM   13  C4  UNK     1      17.345   0.606  35.814  1.00  0.00     0.013 A 
HETATM   14  H3  UNK     1      17.413   2.489  34.845  1.00  0.00     0.166 HD
HETATM   15  C8  UNK     1      16.708   1.043  37.071  1.00  0.00     0.068 C 
HETATM   16  C11 UNK     1      19.223   0.456  31.621  1.00  0.00     0.021 A 
HETATM   17  C10 UNK     1      19.341  -0.897  31.937  1.00  0.00     0.011 A 
HETATM   18 Br1  UNK     1      20.120  -2.087  30.688  1.00  0.00    -0.051 Br
ENDBRANCH   6   7
ENDBRANCH   5   6
ENDBRANCH   2   5
BRANCH   3  19
HETATM   19  C13 UNK     1      19.613  -6.017  36.241  1.00  0.00     0.108 A 
HETATM   20  C15 UNK     1      20.752  -6.710  36.127  1.00  0.00     0.037 A 
HETATM   21  C14 UNK     1      20.776  -8.133  36.425  1.00  0.00    -0.001 A 
HETATM   22  C16 UNK     1      19.601  -8.756  36.831  1.00  0.00     0.089 A 
HETATM   23  C18 UNK     1      21.942  -8.897  36.319  1.00  0.00     0.014 A 
HETATM   24  O1  UNK     1      18.405  -8.021  36.951  1.00  0.00    -0.274 OA
HETATM   25  C19 UNK     1      19.556 -10.117  37.131  1.00  0.00     0.038 A 
HETATM   26  C17 UNK     1      18.350  -6.658  36.671  1.00  0.00     0.304 A 
HETATM   27  O3  UNK     1      17.305  -6.026  36.778  1.00  0.00    -0.259 OA
HETATM   28  C21 UNK     1      20.723 -10.871  37.023  1.00  0.00     0.003 A 
HETATM   29  C20 UNK     1      21.913 -10.262  36.617  1.00  0.00     0.001 A 
ENDBRANCH   3  19
TORSDOF 4
ENDMDL
MODEL 5
REMARK VINA RESULT:      -9.6      1.927      2.498
REMARK  4 active torsions:
REMARK  status: ('A' for Active; 'I' for Inactive)
REMARK       I    between atoms: C12_18  and  N2_6 
REMARK    1  A    between atoms: C6_12  and  N2_6 
REMARK    2  A    between atoms: C1_7  and  C2_8 
REMARK    3  A    between atoms: C2_8  and  C6_12 
REMARK    4  A    between atoms: C12_18  and  C13_19 
ROOT
HETATM    1  O2  UNK     1      17.066   4.512  31.582  1.00  0.00    -0.267 OA
HETATM    2  N2  UNK     1      19.337   4.952  31.870  1.00  0.00    -0.356 N 
HETATM    3  C12 UNK     1      18.231   4.138  31.703  1.00  0.00     0.257 C 
HETATM    4  H11 UNK     1      20.266   4.546  31.932  1.00  0.00     0.162 HD
ENDROOT
BRANCH   2   5
HETATM    5  C6  UNK     1      19.253   6.394  31.925  1.00  0.00     0.127 C 
BRANCH   5   6
HETATM    6  C2  UNK     1      19.484   6.901  33.349  1.00  0.00     0.061 C 
BRANCH   6   7
HETATM    7  C1  UNK     1      18.787   8.209  33.632  1.00  0.00    -0.022 A 
HETATM    8  C3  UNK     1      17.418   8.455  33.435  1.00  0.00     0.000 A 
HETATM    9  C5  UNK     1      17.205   9.781  33.821  1.00  0.00     0.043 A 
HETATM   10  C7  UNK     1      16.323   7.701  32.968  1.00  0.00     0.033 A 
HETATM   11  N1  UNK     1      18.420  10.284  34.230  1.00  0.00    -0.359 N 
HETATM   12  C9  UNK     1      15.946  10.392  33.764  1.00  0.00     0.031 A 
HETATM   13  C4  UNK     1      19.390   9.325  34.116  1.00  0.00     0.013 A 
HETATM   14  H3  UNK     1      18.567  11.225  34.567  1.00  0.00     0.166 HD
HETATM   15  C8  UNK     1      20.788   9.609  34.492  1.00  0.00     0.068 C 
HETATM   16  C11 UNK     1      14.876   9.623  33.298  1.00  0.00     0.021 A 
HETATM   17  C10 UNK     1      15.059   8.298  32.905  1.00  0.00     0.011 A 
HETATM   18 Br1  UNK     1      13.582   7.294  32.279  1.00  0.00    -0.051 Br
ENDBRANCH   6   7
ENDBRANCH   5   6
ENDBRANCH   2   5
BRANCH   3  19
HETATM   19  C13 UNK     1      18.571   2.711  31.677  1.00  0.00     0.108 A 
HETATM   20  C15 UNK     1      19.078   2.245  30.529  1.00  0.00     0.037 A 
HETATM   21  C14 UNK     1      19.446   0.843  30.405  1.00  0.00    -0.001 A 
HETATM   22  C16 UNK     1      19.264   0.001  31.497  1.00  0.00     0.089 A 
HETATM   23  C18 UNK     1      19.978   0.314  29.227  1.00  0.00     0.014 A 
HETATM   24  O1  UNK     1      18.731   0.497  32.703  1.00  0.00    -0.274 OA
HETATM   25  C19 UNK     1      19.596  -1.352  31.444  1.00  0.00     0.038 A 
HETATM   26  C17 UNK     1      18.368   1.833  32.851  1.00  0.00     0.304 A 
HETATM   27  O3  UNK     1      17.905   2.256  33.905  1.00  0.00    -0.259 OA
HETATM   28  C21 UNK     1      20.126  -1.872  30.264  1.00  0.00     0.003 A 
HETATM   29  C20 UNK     1      20.316  -1.041  29.159  1.00  0.00     0.001 A 
ENDBRANCH   3  19
TORSDOF 4
ENDMDL
MODEL 6
REMARK VINA RESULT:      -9.5      6.938     11.185
REMARK  4 active torsions:
REMARK  status: ('A' for Active; 'I' for Inactive)
REMARK       I    between atoms: C12_18  and  N2_6 
REMARK    1  A    between atoms: C6_12  and  N2_6 
REMARK    2  A    between atoms: C1_7  and  C2_8 
REMARK    3  A    between atoms: C2_8  and  C6_12 
REMARK    4  A    between atoms: C12_18  and  C13_19 
ROOT
HETATM    1  O2  UNK     1      18.254  -1.658  35.966  1.00  0.00    -0.267 OA
HETATM    2  N2  UNK     1      19.837  -3.075  35.005  1.00  0.00    -0.356 N 
HETATM    3  C12 UNK     1      18.991  -1.980  35.037  1.00  0.00     0.257 C 
HETATM    4  H11 UNK     1      20.430  -3.240  34.198  1.00  0.00     0.162 HD
ENDROOT
BRANCH   2   5
HETATM    5  C6  UNK     1      19.958  -4.007  36.103  1.00  0.00     0.127 C 
BRANCH   5   6
HETATM    6  C2  UNK     1      19.945  -5.450  35.599  1.00  0.00     0.061 C 
BRANCH   6   7
HETATM    7  C1  UNK     1      19.545  -6.445  36.663  1.00  0.00    -0.022 A 
HETATM    8  C3  UNK     1      20.434  -7.103  37.529  1.00  0.00     0.000 A 
HETATM    9  C5  UNK     1      19.645  -7.923  38.340  1.00  0.00     0.043 A 
HETATM   10  C7  UNK     1      21.830  -7.099  37.723  1.00  0.00     0.033 A 
HETATM   11  N1  UNK     1      18.337  -7.741  37.950  1.00  0.00    -0.359 N 
HETATM   12  C9  UNK     1      20.186  -8.743  39.338  1.00  0.00     0.031 A 
HETATM   13  C4  UNK     1      18.272  -6.838  36.923  1.00  0.00     0.013 A 
HETATM   14  H3  UNK     1      17.544  -8.210  38.365  1.00  0.00     0.166 HD
HETATM   15  C8  UNK     1      16.979  -6.464  36.320  1.00  0.00     0.068 C 
HETATM   16  C11 UNK     1      21.572  -8.722  39.511  1.00  0.00     0.021 A 
HETATM   17  C10 UNK     1      22.384  -7.913  38.717  1.00  0.00     0.011 A 
HETATM   18 Br1  UNK     1      24.257  -7.915  38.984  1.00  0.00    -0.051 Br
ENDBRANCH   6   7
ENDBRANCH   5   6
ENDBRANCH   2   5
BRANCH   3  19
HETATM   19  C13 UNK     1      19.045  -1.183  33.805  1.00  0.00     0.108 A 
HETATM   20  C15 UNK     1      19.621  -1.766  32.748  1.00  0.00     0.037 A 
HETATM   21  C14 UNK     1      19.722  -1.056  31.483  1.00  0.00    -0.001 A 
HETATM   22  C16 UNK     1      19.211   0.235  31.393  1.00  0.00     0.089 A 
HETATM   23  C18 UNK     1      20.315  -1.625  30.353  1.00  0.00     0.014 A 
HETATM   24  O1  UNK     1      18.605   0.844  32.510  1.00  0.00    -0.274 OA
HETATM   25  C19 UNK     1      19.277   0.971  30.211  1.00  0.00     0.038 A 
HETATM   26  C17 UNK     1      18.495   0.189  33.734  1.00  0.00     0.304 A 
HETATM   27  O3  UNK     1      17.965   0.727  34.700  1.00  0.00    -0.259 OA
HETATM   28  C21 UNK     1      19.870   0.395  29.089  1.00  0.00     0.003 A 
HETATM   29  C20 UNK     1      20.388  -0.900  29.161  1.00  0.00     0.001 A 
ENDBRANCH   3  19
TORSDOF 4
ENDMDL
MODEL 7
REMARK VINA RESULT:      -9.4      5.874      9.301
REMARK  4 active torsions:
REMARK  status: ('A' for Active; 'I' for Inactive)
REMARK       I    between atoms: C12_18  and  N2_6 
REMARK    1  A    between atoms: C6_12  and  N2_6 
REMARK    2  A    between atoms: C1_7  and  C2_8 
REMARK    3  A    between atoms: C2_8  and  C6_12 
REMARK    4  A    between atoms: C12_18  and  C13_19 
ROOT
HETATM    1  O2  UNK     1      19.630  -2.423  37.125  1.00  0.00    -0.267 OA
HETATM    2  N2  UNK     1      19.812  -3.512  35.071  1.00  0.00    -0.356 N 
HETATM    3  C12 UNK     1      19.788  -3.440  36.453  1.00  0.00     0.257 C 
HETATM    4  H11 UNK     1      19.919  -4.409  34.608  1.00  0.00     0.162 HD
ENDROOT
BRANCH   2   5
HETATM    5  C6  UNK     1      19.647  -2.355  34.220  1.00  0.00     0.127 C 
BRANCH   5   6
HETATM    6  C2  UNK     1      20.936  -2.052  33.456  1.00  0.00     0.061 C 
BRANCH   6   7
HETATM    7  C1  UNK     1      20.777  -2.163  31.959  1.00  0.00    -0.022 A 
HETATM    8  C3  UNK     1      20.257  -1.160  31.124  1.00  0.00     0.000 A 
HETATM    9  C5  UNK     1      20.291  -1.681  29.828  1.00  0.00     0.043 A 
HETATM   10  C7  UNK     1      19.757   0.143  31.318  1.00  0.00     0.033 A 
HETATM   11  N1  UNK     1      20.817  -2.951  29.916  1.00  0.00    -0.359 N 
HETATM   12  C9  UNK     1      19.847  -0.961  28.713  1.00  0.00     0.031 A 
HETATM   13  C4  UNK     1      21.115  -3.249  31.218  1.00  0.00     0.013 A 
HETATM   14  H3  UNK     1      20.960  -3.568  29.129  1.00  0.00     0.166 HD
HETATM   15  C8  UNK     1      21.694  -4.555  31.585  1.00  0.00     0.068 C 
HETATM   16  C11 UNK     1      19.356   0.328  28.930  1.00  0.00     0.021 A 
HETATM   17  C10 UNK     1      19.310   0.875  30.212  1.00  0.00     0.011 A 
HETATM   18 Br1  UNK     1      18.635   2.625  30.462  1.00  0.00    -0.051 Br
ENDBRANCH   6   7
ENDBRANCH   5   6
ENDBRANCH   2   5
BRANCH   3  19
HETATM   19  C13 UNK     1      19.974  -4.747  37.095  1.00  0.00     0.108 A 
HETATM   20  C15 UNK     1      21.132  -4.929  37.742  1.00  0.00     0.037 A 
HETATM   21  C14 UNK     1      21.408  -6.191  38.409  1.00  0.00    -0.001 A 
HETATM   22  C16 UNK     1      20.452  -7.200  38.364  1.00  0.00     0.089 A 
HETATM   23  C18 UNK     1      22.603  -6.425  39.095  1.00  0.00     0.014 A 
HETATM   24  O1  UNK     1      19.235  -7.003  37.683  1.00  0.00    -0.274 OA
HETATM   25  C19 UNK     1      20.655  -8.433  38.982  1.00  0.00     0.038 A 
HETATM   26  C17 UNK     1      18.942  -5.806  37.034  1.00  0.00     0.304 A 
HETATM   27  O3  UNK     1      17.880  -5.644  36.443  1.00  0.00    -0.259 OA
HETATM   28  C21 UNK     1      21.849  -8.658  39.664  1.00  0.00     0.003 A 
HETATM   29  C20 UNK     1      22.821  -7.656  39.720  1.00  0.00     0.001 A 
ENDBRANCH   3  19
TORSDOF 4
ENDMDL
MODEL 8
REMARK VINA RESULT:      -9.3      1.585      2.237
REMARK  4 active torsions:
REMARK  status: ('A' for Active; 'I' for Inactive)
REMARK       I    between atoms: C12_18  and  N2_6 
REMARK    1  A    between atoms: C6_12  and  N2_6 
REMARK    2  A    between atoms: C1_7  and  C2_8 
REMARK    3  A    between atoms: C2_8  and  C6_12 
REMARK    4  A    between atoms: C12_18  and  C13_19 
ROOT
HETATM    1  O2  UNK     1      17.080   2.996  31.123  1.00  0.00    -0.267 OA
HETATM    2  N2  UNK     1      19.089   3.957  30.431  1.00  0.00    -0.356 N 
HETATM    3  C12 UNK     1      18.216   2.908  30.661  1.00  0.00     0.257 C 
HETATM    4  H11 UNK     1      19.999   3.783  30.017  1.00  0.00     0.162 HD
ENDROOT
BRANCH   2   5
HETATM    5  C6  UNK     1      18.757   5.334  30.719  1.00  0.00     0.127 C 
BRANCH   5   6
HETATM    6  C2  UNK     1      18.280   5.491  32.162  1.00  0.00     0.061 C 
BRANCH   6   7
HETATM    7  C1  UNK     1      18.750   6.774  32.805  1.00  0.00    -0.022 A 
HETATM    8  C3  UNK     1      17.923   7.855  33.150  1.00  0.00     0.000 A 
HETATM    9  C5  UNK     1      18.763   8.820  33.712  1.00  0.00     0.043 A 
HETATM   10  C7  UNK     1      16.545   8.133  33.050  1.00  0.00     0.033 A 
HETATM   11  N1  UNK     1      20.040   8.305  33.691  1.00  0.00    -0.359 N 
HETATM   12  C9  UNK     1      18.292  10.052  34.180  1.00  0.00     0.031 A 
HETATM   13  C4  UNK     1      20.036   7.053  33.137  1.00  0.00     0.013 A 
HETATM   14  H3  UNK     1      20.859   8.787  34.037  1.00  0.00     0.166 HD
HETATM   15  C8  UNK     1      21.284   6.280  32.996  1.00  0.00     0.068 C 
HETATM   16  C11 UNK     1      16.922  10.304  34.071  1.00  0.00     0.021 A 
HETATM   17  C10 UNK     1      16.059   9.360  33.515  1.00  0.00     0.011 A 
HETATM   18 Br1  UNK     1      14.211   9.742  33.384  1.00  0.00    -0.051 Br
ENDBRANCH   6   7
ENDBRANCH   5   6
ENDBRANCH   2   5
BRANCH   3  19
HETATM   19  C13 UNK     1      18.780   1.605  30.287  1.00  0.00     0.108 A 
HETATM   20  C15 UNK     1      19.243   0.851  31.291  1.00  0.00     0.037 A 
HETATM   21  C14 UNK     1      19.820  -0.456  31.020  1.00  0.00    -0.001 A 
HETATM   22  C16 UNK     1      19.880  -0.906  29.705  1.00  0.00     0.089 A 
HETATM   23  C18 UNK     1      20.317  -1.277  32.036  1.00  0.00     0.014 A 
HETATM   24  O1  UNK     1      19.389  -0.108  28.652  1.00  0.00    -0.274 OA
HETATM   25  C19 UNK     1      20.421  -2.148  29.378  1.00  0.00     0.038 A 
HETATM   26  C17 UNK     1      18.833   1.147  28.881  1.00  0.00     0.304 A 
HETATM   27  O3  UNK     1      18.408   1.834  27.958  1.00  0.00    -0.259 OA
HETATM   28  C21 UNK     1      20.914  -2.960  30.398  1.00  0.00     0.003 A 
HETATM   29  C20 UNK     1      20.862  -2.525  31.723  1.00  0.00     0.001 A 
ENDBRANCH   3  19
TORSDOF 4
ENDMDL
MODEL 9
REMARK VINA RESULT:      -9.3     15.871     17.493
REMARK  4 active torsions:
REMARK  status: ('A' for Active; 'I' for Inactive)
REMARK       I    between atoms: C12_18  and  N2_6 
REMARK    1  A    between atoms: C6_12  and  N2_6 
REMARK    2  A    between atoms: C1_7  and  C2_8 
REMARK    3  A    between atoms: C2_8  and  C6_12 
REMARK    4  A    between atoms: C12_18  and  C13_19 
ROOT
HETATM    1  O2  UNK     1      32.520  -5.055  38.631  1.00  0.00    -0.267 OA
HETATM    2  N2  UNK     1      31.308  -4.425  36.741  1.00  0.00    -0.356 N 
HETATM    3  C12 UNK     1      31.492  -5.060  37.957  1.00  0.00     0.257 C 
HETATM    4  H11 UNK     1      30.407  -4.465  36.275  1.00  0.00     0.162 HD
ENDROOT
BRANCH   2   5
HETATM    5  C6  UNK     1      32.342  -3.652  36.093  1.00  0.00     0.127 C 
BRANCH   5   6
HETATM    6  C2  UNK     1      32.950  -4.425  34.923  1.00  0.00     0.061 C 
BRANCH   6   7
HETATM    7  C1  UNK     1      33.227  -5.873  35.249  1.00  0.00    -0.022 A 
HETATM    8  C3  UNK     1      32.343  -6.938  35.011  1.00  0.00     0.000 A 
HETATM    9  C5  UNK     1      32.997  -8.089  35.461  1.00  0.00     0.043 A 
HETATM   10  C7  UNK     1      31.052  -7.064  34.460  1.00  0.00     0.033 A 
HETATM   11  N1  UNK     1      34.223  -7.694  35.946  1.00  0.00    -0.359 N 
HETATM   12  C9  UNK     1      32.420  -9.362  35.388  1.00  0.00     0.031 A 
HETATM   13  C4  UNK     1      34.368  -6.339  35.818  1.00  0.00     0.013 A 
HETATM   14  H3  UNK     1      34.914  -8.320  36.338  1.00  0.00     0.166 HD
HETATM   15  C8  UNK     1      35.599  -5.660  36.264  1.00  0.00     0.068 C 
HETATM   16  C11 UNK     1      31.139  -9.461  34.838  1.00  0.00     0.021 A 
HETATM   17  C10 UNK     1      30.464  -8.331  34.380  1.00  0.00     0.011 A 
HETATM   18 Br1  UNK     1      28.730  -8.509  33.643  1.00  0.00    -0.051 Br
ENDBRANCH   6   7
ENDBRANCH   5   6
ENDBRANCH   2   5
BRANCH   3  19
HETATM   19  C13 UNK     1      30.296  -5.780  38.411  1.00  0.00     0.108 A 
HETATM   20  C15 UNK     1      30.236  -7.081  38.102  1.00  0.00     0.037 A 
HETATM   21  C14 UNK     1      29.090  -7.879  38.509  1.00  0.00    -0.001 A 
HETATM   22  C16 UNK     1      28.063  -7.269  39.222  1.00  0.00     0.089 A 
HETATM   23  C18 UNK     1      28.985  -9.239  38.208  1.00  0.00     0.014 A 
HETATM   24  O1  UNK     1      28.132  -5.899  39.544  1.00  0.00    -0.274 OA
HETATM   25  C19 UNK     1      26.938  -7.976  39.640  1.00  0.00     0.038 A 
HETATM   26  C17 UNK     1      29.215  -5.109  39.168  1.00  0.00     0.304 A 
HETATM   27  O3  UNK     1      29.266  -3.917  39.453  1.00  0.00    -0.259 OA
HETATM   28  C21 UNK     1      26.842  -9.333  39.336  1.00  0.00     0.003 A 
HETATM   29  C20 UNK     1      27.863  -9.963  38.621  1.00  0.00     0.001 A 
ENDBRANCH   3  19
TORSDOF 4
ENDMDL
MODEL 10
REMARK VINA RESULT:      -9.3      6.564      9.147
REMARK  4 active torsions:
REMARK  status: ('A' for Active; 'I' for Inactive)
REMARK       I    between atoms: C12_18  and  N2_6 
REMARK    1  A    between atoms: C6_12  and  N2_6 
REMARK    2  A    between atoms: C1_7  and  C2_8 
REMARK    3  A    between atoms: C2_8  and  C6_12 
REMARK    4  A    between atoms: C12_18  and  C13_19 
ROOT
HETATM    1  O2  UNK     1      20.378  -3.818  35.368  1.00  0.00    -0.267 OA
HETATM    2  N2  UNK     1      19.192  -2.986  37.195  1.00  0.00    -0.356 N 
HETATM    3  C12 UNK     1      19.862  -3.959  36.474  1.00  0.00     0.257 C 
HETATM    4  H11 UNK     1      18.826  -3.195  38.118  1.00  0.00     0.162 HD
ENDROOT
BRANCH   2   5
HETATM    5  C6  UNK     1      19.011  -1.635  36.712  1.00  0.00     0.127 C 
BRANCH   5   6
HETATM    6  C2  UNK     1      17.841  -1.559  35.731  1.00  0.00     0.061 C 
BRANCH   6   7
HETATM    7  C1  UNK     1      17.914  -0.360  34.815  1.00  0.00    -0.022 A 
HETATM    8  C3  UNK     1      18.485  -0.357  33.531  1.00  0.00     0.000 A 
HETATM    9  C5  UNK     1      18.337   0.945  33.047  1.00  0.00     0.043 A 
HETATM   10  C7  UNK     1      19.117  -1.316  32.715  1.00  0.00     0.033 A 
HETATM   11  N1  UNK     1      17.698   1.671  34.027  1.00  0.00    -0.359 N 
HETATM   12  C9  UNK     1      18.792   1.337  31.782  1.00  0.00     0.031 A 
HETATM   13  C4  UNK     1      17.437   0.876  35.110  1.00  0.00     0.013 A 
HETATM   14  H3  UNK     1      17.457   2.650  33.951  1.00  0.00     0.166 HD
HETATM   15  C8  UNK     1      16.756   1.414  36.302  1.00  0.00     0.068 C 
HETATM   16  C11 UNK     1      19.415   0.368  30.991  1.00  0.00     0.021 A 
HETATM   17  C10 UNK     1      19.576  -0.939  31.448  1.00  0.00     0.011 A 
HETATM   18 Br1  UNK     1      20.427  -2.220  30.345  1.00  0.00    -0.051 Br
ENDBRANCH   6   7
ENDBRANCH   5   6
ENDBRANCH   2   5
BRANCH   3  19
HETATM   19  C13 UNK     1      19.918  -5.248  37.174  1.00  0.00     0.108 A 
HETATM   20  C15 UNK     1      21.031  -5.493  37.876  1.00  0.00     0.037 A 
HETATM   21  C14 UNK     1      21.180  -6.744  38.603  1.00  0.00    -0.001 A 
HETATM   22  C16 UNK     1      20.148  -7.676  38.556  1.00  0.00     0.089 A 
HETATM   23  C18 UNK     1      22.324  -7.041  39.348  1.00  0.00     0.014 A 
HETATM   24  O1  UNK     1      18.978  -7.413  37.816  1.00  0.00    -0.274 OA
HETATM   25  C19 UNK     1      20.228  -8.894  39.229  1.00  0.00     0.038 A 
HETATM   26  C17 UNK     1      18.808  -6.225  37.109  1.00  0.00     0.304 A 
HETATM   27  O3  UNK     1      17.786  -6.005  36.468  1.00  0.00    -0.259 OA
HETATM   28  C21 UNK     1      21.372  -9.182  39.970  1.00  0.00     0.003 A 
HETATM   29  C20 UNK     1      22.418  -8.258  40.029  1.00  0.00     0.001 A 
ENDBRANCH   3  19
TORSDOF 4
ENDMDL
