MODEL 1
REMARK VINA RESULT:      -8.2      0.000      0.000
REMARK  3 active torsions:
REMARK  status: ('A' for Active; 'I' for Inactive)
REMARK    1  A    between atoms: C12_17  and  O2_2 
REMARK    2  A    between atoms: C2_7  and  O2_2 
REMARK    3  A    between atoms: C12_17  and  C14_19 
ROOT
HETATM    1  O1  UNK     1      17.175   4.968  31.366  1.00  0.00    -0.338 OA
HETATM    2  O3  UNK     1      14.554   8.674  32.726  1.00  0.00    -0.275 OA
HETATM    3  O5  UNK     1      13.277  10.469  33.357  1.00  0.00    -0.260 OA
HETATM    4  C1  UNK     1      18.401   4.214  31.449  1.00  0.00     0.087 C 
HETATM    5  C2  UNK     1      18.752   3.844  32.905  1.00  0.00     0.170 C 
HETATM    6  C3  UNK     1      18.836   5.078  33.797  1.00  0.00     0.077 C 
HETATM    7  C4  UNK     1      17.704   6.023  33.508  1.00  0.00    -0.021 A 
HETATM    8  C5  UNK     1      18.159   2.943  30.618  1.00  0.00     0.049 C 
HETATM    9  C6  UNK     1      19.522   5.021  30.773  1.00  0.00     0.049 C 
HETATM   10  C7  UNK     1      16.957   5.918  32.327  1.00  0.00     0.079 A 
HETATM   11  C8  UNK     1      17.407   7.046  34.424  1.00  0.00     0.024 A 
HETATM   12  C9  UNK     1      15.903   6.800  32.081  1.00  0.00     0.075 A 
HETATM   13  C10 UNK     1      16.360   7.938  34.178  1.00  0.00    -0.001 A 
HETATM   14  C11 UNK     1      15.621   7.798  33.010  1.00  0.00     0.092 A 
HETATM   15  C13 UNK     1      16.015   9.004  35.103  1.00  0.00     0.020 A 
HETATM   16  C15 UNK     1      15.004   9.831  34.827  1.00  0.00     0.083 A 
HETATM   17  C16 UNK     1      14.204   9.702  33.595  1.00  0.00     0.288 A 
ENDROOT
BRANCH   5  18
HETATM   18  O2  UNK     1      17.754   2.964  33.432  1.00  0.00    -0.309 OA
BRANCH  18  19
HETATM   19  C12 UNK     1      18.193   1.732  33.811  1.00  0.00     0.289 C 
HETATM   20  O4  UNK     1      18.567   0.842  33.060  1.00  0.00    -0.260 OA
BRANCH  19  21
HETATM   21  C14 UNK     1      18.147   1.624  35.300  1.00  0.00     0.009 C 
HETATM   22  C17 UNK     1      19.270   2.222  36.093  1.00  0.00     0.054 C 
HETATM   23  C18 UNK     1      17.094   0.955  35.808  1.00  0.00    -0.018 C 
HETATM   24  C19 UNK     1      15.975   0.317  35.048  1.00  0.00     0.036 C 
ENDBRANCH  19  21
ENDBRANCH  18  19
ENDBRANCH   5  18
TORSDOF 3
ENDMDL
MODEL 2
REMARK VINA RESULT:      -8.0     23.537     25.363
REMARK  3 active torsions:
REMARK  status: ('A' for Active; 'I' for Inactive)
REMARK    1  A    between atoms: C12_17  and  O2_2 
REMARK    2  A    between atoms: C2_7  and  O2_2 
REMARK    3  A    between atoms: C12_17  and  C14_19 
ROOT
HETATM    1  O1  UNK     1      10.052   5.205   8.278  1.00  0.00    -0.338 OA
HETATM    2  O3  UNK     1       6.050   4.335  10.661  1.00  0.00    -0.275 OA
HETATM    3  O5  UNK     1       4.112   3.891  11.799  1.00  0.00    -0.260 OA
HETATM    4  C1  UNK     1      10.929   6.140   7.619  1.00  0.00     0.087 C 
HETATM    5  C2  UNK     1      11.290   7.332   8.528  1.00  0.00     0.170 C 
HETATM    6  C3  UNK     1      10.045   8.053   9.036  1.00  0.00     0.077 C 
HETATM    7  C4  UNK     1       8.994   7.066   9.461  1.00  0.00    -0.021 A 
HETATM    8  C5  UNK     1      12.192   5.338   7.263  1.00  0.00     0.049 C 
HETATM    9  C6  UNK     1      10.266   6.595   6.308  1.00  0.00     0.049 C 
HETATM   10  C7  UNK     1       9.055   5.725   9.059  1.00  0.00     0.079 A 
HETATM   11  C8  UNK     1       7.918   7.501  10.254  1.00  0.00     0.024 A 
HETATM   12  C9  UNK     1       8.075   4.821   9.474  1.00  0.00     0.075 A 
HETATM   13  C10 UNK     1       6.928   6.603  10.662  1.00  0.00    -0.001 A 
HETATM   14  C11 UNK     1       7.025   5.274  10.267  1.00  0.00     0.092 A 
HETATM   15  C13 UNK     1       5.804   7.010  11.486  1.00  0.00     0.020 A 
HETATM   16  C15 UNK     1       4.883   6.116  11.855  1.00  0.00     0.083 A 
HETATM   17  C16 UNK     1       4.964   4.700  11.451  1.00  0.00     0.288 A 
ENDROOT
BRANCH   5  18
HETATM   18  O2  UNK     1      12.042   6.869   9.654  1.00  0.00    -0.309 OA
BRANCH  18  19
HETATM   19  C12 UNK     1      12.922   7.763  10.185  1.00  0.00     0.289 C 
HETATM   20  O4  UNK     1      12.769   8.389  11.224  1.00  0.00    -0.260 OA
BRANCH  19  21
HETATM   21  C14 UNK     1      14.117   7.872   9.294  1.00  0.00     0.009 C 
HETATM   22  C17 UNK     1      14.247   9.085   8.422  1.00  0.00     0.054 C 
HETATM   23  C18 UNK     1      14.973   6.834   9.331  1.00  0.00    -0.018 C 
HETATM   24  C19 UNK     1      14.858   5.595  10.161  1.00  0.00     0.036 C 
ENDBRANCH  19  21
ENDBRANCH  18  19
ENDBRANCH   5  18
TORSDOF 3
ENDMDL
MODEL 3
REMARK VINA RESULT:      -8.0     16.661     18.494
REMARK  3 active torsions:
REMARK  status: ('A' for Active; 'I' for Inactive)
REMARK    1  A    between atoms: C12_17  and  O2_2 
REMARK    2  A    between atoms: C2_7  and  O2_2 
REMARK    3  A    between atoms: C12_17  and  C14_19 
ROOT
HETATM    1  O1  UNK     1      30.310  -9.077  35.609  1.00  0.00    -0.338 OA
HETATM    2  O3  UNK     1      28.532  -9.207  31.218  1.00  0.00    -0.275 OA
HETATM    3  O5  UNK     1      27.692  -9.289  29.089  1.00  0.00    -0.260 OA
HETATM    4  C1  UNK     1      30.712  -8.318  36.766  1.00  0.00     0.087 C 
HETATM    5  C2  UNK     1      29.586  -7.389  37.266  1.00  0.00     0.170 C 
HETATM    6  C3  UNK     1      29.100  -6.450  36.168  1.00  0.00     0.077 C 
HETATM    7  C4  UNK     1      28.954  -7.183  34.864  1.00  0.00    -0.021 A 
HETATM    8  C5  UNK     1      31.061  -9.361  37.842  1.00  0.00     0.049 C 
HETATM    9  C6  UNK     1      31.992  -7.539  36.422  1.00  0.00     0.049 C 
HETATM   10  C7  UNK     1      29.562  -8.430  34.663  1.00  0.00     0.079 A 
HETATM   11  C8  UNK     1      28.218  -6.598  33.820  1.00  0.00     0.024 A 
HETATM   12  C9  UNK     1      29.407  -9.101  33.448  1.00  0.00     0.075 A 
HETATM   13  C10 UNK     1      28.068  -7.259  32.599  1.00  0.00    -0.001 A 
HETATM   14  C11 UNK     1      28.663  -8.504  32.433  1.00  0.00     0.092 A 
HETATM   15  C13 UNK     1      27.310  -6.692  31.497  1.00  0.00     0.020 A 
HETATM   16  C15 UNK     1      27.191  -7.362  30.348  1.00  0.00     0.083 A 
HETATM   17  C16 UNK     1      27.812  -8.685  30.149  1.00  0.00     0.288 A 
ENDROOT
BRANCH   5  18
HETATM   18  O2  UNK     1      28.479  -8.175  37.720  1.00  0.00    -0.309 OA
BRANCH  18  19
HETATM   19  C12 UNK     1      27.891  -7.754  38.874  1.00  0.00     0.289 C 
HETATM   20  O4  UNK     1      28.278  -6.837  39.583  1.00  0.00    -0.260 OA
BRANCH  19  21
HETATM   21  C14 UNK     1      26.687  -8.594  39.152  1.00  0.00     0.009 C 
HETATM   22  C17 UNK     1      25.344  -8.073  38.739  1.00  0.00     0.054 C 
HETATM   23  C18 UNK     1      26.917  -9.756  39.793  1.00  0.00    -0.018 C 
HETATM   24  C19 UNK     1      28.237 -10.291  40.251  1.00  0.00     0.036 C 
ENDBRANCH  19  21
ENDBRANCH  18  19
ENDBRANCH   5  18
TORSDOF 3
ENDMDL
MODEL 4
REMARK VINA RESULT:      -7.6     16.958     18.941
REMARK  3 active torsions:
REMARK  status: ('A' for Active; 'I' for Inactive)
REMARK    1  A    between atoms: C12_17  and  O2_2 
REMARK    2  A    between atoms: C2_7  and  O2_2 
REMARK    3  A    between atoms: C12_17  and  C14_19 
ROOT
HETATM    1  O1  UNK     1      30.704  -8.503  35.090  1.00  0.00    -0.338 OA
HETATM    2  O3  UNK     1      29.981 -10.044  30.668  1.00  0.00    -0.275 OA
HETATM    3  O5  UNK     1      29.658 -10.799  28.529  1.00  0.00    -0.260 OA
HETATM    4  C1  UNK     1      30.509  -7.498  36.104  1.00  0.00     0.087 C 
HETATM    5  C2  UNK     1      29.017  -7.160  36.302  1.00  0.00     0.170 C 
HETATM    6  C3  UNK     1      28.359  -6.721  34.997  1.00  0.00     0.077 C 
HETATM    7  C4  UNK     1      28.793  -7.601  33.859  1.00  0.00    -0.021 A 
HETATM    8  C5  UNK     1      31.096  -8.095  37.394  1.00  0.00     0.049 C 
HETATM    9  C6  UNK     1      31.336  -6.256  35.732  1.00  0.00     0.049 C 
HETATM   10  C7  UNK     1      29.924  -8.421  33.968  1.00  0.00     0.079 A 
HETATM   11  C8  UNK     1      28.068  -7.581  32.655  1.00  0.00     0.024 A 
HETATM   12  C9  UNK     1      30.305  -9.240  32.902  1.00  0.00     0.075 A 
HETATM   13  C10 UNK     1      28.451  -8.389  31.582  1.00  0.00    -0.001 A 
HETATM   14  C11 UNK     1      29.564  -9.210  31.724  1.00  0.00     0.092 A 
HETATM   15  C13 UNK     1      27.726  -8.404  30.324  1.00  0.00     0.020 A 
HETATM   16  C15 UNK     1      28.127  -9.196  29.326  1.00  0.00     0.083 A 
HETATM   17  C16 UNK     1      29.303 -10.076  29.454  1.00  0.00     0.288 A 
ENDROOT
BRANCH   5  18
HETATM   18  O2  UNK     1      28.324  -8.310  36.798  1.00  0.00    -0.309 OA
BRANCH  18  19
HETATM   19  C12 UNK     1      27.256  -8.054  37.603  1.00  0.00     0.289 C 
HETATM   20  O4  UNK     1      26.089  -7.983  37.245  1.00  0.00    -0.260 OA
BRANCH  19  21
HETATM   21  C14 UNK     1      27.726  -7.864  39.008  1.00  0.00     0.009 C 
HETATM   22  C17 UNK     1      28.202  -6.504  39.423  1.00  0.00     0.054 C 
HETATM   23  C18 UNK     1      27.712  -8.964  39.786  1.00  0.00    -0.018 C 
HETATM   24  C19 UNK     1      27.278 -10.341  39.397  1.00  0.00     0.036 C 
ENDBRANCH  19  21
ENDBRANCH  18  19
ENDBRANCH   5  18
TORSDOF 3
ENDMDL
MODEL 5
REMARK VINA RESULT:      -7.6     16.543     18.443
REMARK  3 active torsions:
REMARK  status: ('A' for Active; 'I' for Inactive)
REMARK    1  A    between atoms: C12_17  and  O2_2 
REMARK    2  A    between atoms: C2_7  and  O2_2 
REMARK    3  A    between atoms: C12_17  and  C14_19 
ROOT
HETATM    1  O1  UNK     1      32.926  -6.397  34.567  1.00  0.00    -0.338 OA
HETATM    2  O3  UNK     1      30.641  -4.516  38.268  1.00  0.00    -0.275 OA
HETATM    3  O5  UNK     1      29.561  -3.598  40.068  1.00  0.00    -0.260 OA
HETATM    4  C1  UNK     1      33.066  -7.455  33.599  1.00  0.00     0.087 C 
HETATM    5  C2  UNK     1      31.752  -7.715  32.835  1.00  0.00     0.170 C 
HETATM    6  C3  UNK     1      30.599  -8.024  33.783  1.00  0.00     0.077 C 
HETATM    7  C4  UNK     1      30.617  -7.096  34.966  1.00  0.00    -0.021 A 
HETATM    8  C5  UNK     1      34.164  -6.984  32.630  1.00  0.00     0.049 C 
HETATM    9  C6  UNK     1      33.574  -8.716  34.319  1.00  0.00     0.049 C 
HETATM   10  C7  UNK     1      31.762  -6.354  35.286  1.00  0.00     0.079 A 
HETATM   11  C8  UNK     1      29.476  -6.989  35.779  1.00  0.00     0.024 A 
HETATM   12  C9  UNK     1      31.756  -5.489  36.383  1.00  0.00     0.075 A 
HETATM   13  C10 UNK     1      29.468  -6.134  36.883  1.00  0.00    -0.001 A 
HETATM   14  C11 UNK     1      30.609  -5.394  37.166  1.00  0.00     0.092 A 
HETATM   15  C13 UNK     1      28.307  -5.989  37.745  1.00  0.00     0.020 A 
HETATM   16  C15 UNK     1      28.345  -5.157  38.788  1.00  0.00     0.083 A 
HETATM   17  C16 UNK     1      29.543  -4.360  39.107  1.00  0.00     0.288 A 
ENDROOT
BRANCH   5  18
HETATM   18  O2  UNK     1      31.411  -6.562  32.059  1.00  0.00    -0.309 OA
BRANCH  18  19
HETATM   19  C12 UNK     1      30.563  -6.783  31.016  1.00  0.00     0.289 C 
HETATM   20  O4  UNK     1      30.657  -7.683  30.194  1.00  0.00    -0.260 OA
BRANCH  19  21
HETATM   21  C14 UNK     1      29.488  -5.745  31.021  1.00  0.00     0.009 C 
HETATM   22  C17 UNK     1      29.879  -4.314  30.807  1.00  0.00     0.054 C 
HETATM   23  C18 UNK     1      28.240  -6.193  31.256  1.00  0.00    -0.018 C 
HETATM   24  C19 UNK     1      27.819  -7.606  31.508  1.00  0.00     0.036 C 
ENDBRANCH  19  21
ENDBRANCH  18  19
ENDBRANCH   5  18
TORSDOF 3
ENDMDL
MODEL 6
REMARK VINA RESULT:      -7.5     22.924     25.481
REMARK  3 active torsions:
REMARK  status: ('A' for Active; 'I' for Inactive)
REMARK    1  A    between atoms: C12_17  and  O2_2 
REMARK    2  A    between atoms: C2_7  and  O2_2 
REMARK    3  A    between atoms: C12_17  and  C14_19 
ROOT
HETATM    1  O1  UNK     1      13.699   7.120  10.573  1.00  0.00    -0.338 OA
HETATM    2  O3  UNK     1       9.572   5.604   8.806  1.00  0.00    -0.275 OA
HETATM    3  O5  UNK     1       7.574   4.852   7.973  1.00  0.00    -0.260 OA
HETATM    4  C1  UNK     1      15.053   7.565  10.362  1.00  0.00     0.087 C 
HETATM    5  C2  UNK     1      15.126   8.738   9.363  1.00  0.00     0.170 C 
HETATM    6  C3  UNK     1      14.480   8.383   8.028  1.00  0.00     0.077 C 
HETATM    7  C4  UNK     1      13.186   7.648   8.241  1.00  0.00    -0.021 A 
HETATM    8  C5  UNK     1      15.560   8.010  11.745  1.00  0.00     0.049 C 
HETATM    9  C6  UNK     1      15.900   6.365   9.906  1.00  0.00     0.049 C 
HETATM   10  C7  UNK     1      12.880   7.065   9.478  1.00  0.00     0.079 A 
HETATM   11  C8  UNK     1      12.280   7.521   7.174  1.00  0.00     0.024 A 
HETATM   12  C9  UNK     1      11.668   6.395   9.659  1.00  0.00     0.075 A 
HETATM   13  C10 UNK     1      11.071   6.842   7.346  1.00  0.00    -0.001 A 
HETATM   14  C11 UNK     1      10.782   6.292   8.589  1.00  0.00     0.092 A 
HETATM   15  C13 UNK     1      10.104   6.694   6.272  1.00  0.00     0.020 A 
HETATM   16  C15 UNK     1       8.960   6.040   6.484  1.00  0.00     0.083 A 
HETATM   17  C16 UNK     1       8.630   5.449   7.794  1.00  0.00     0.288 A 
ENDROOT
BRANCH   5  18
HETATM   18  O2  UNK     1      14.455   9.878   9.908  1.00  0.00    -0.309 OA
BRANCH  18  19
HETATM   19  C12 UNK     1      15.021  11.085   9.628  1.00  0.00     0.289 C 
HETATM   20  O4  UNK     1      14.963  11.673   8.557  1.00  0.00    -0.260 OA
BRANCH  19  21
HETATM   21  C14 UNK     1      15.735  11.592  10.839  1.00  0.00     0.009 C 
HETATM   22  C17 UNK     1      14.921  12.185  11.950  1.00  0.00     0.054 C 
HETATM   23  C18 UNK     1      17.078  11.499  10.811  1.00  0.00    -0.018 C 
HETATM   24  C19 UNK     1      17.923  10.946   9.707  1.00  0.00     0.036 C 
ENDBRANCH  19  21
ENDBRANCH  18  19
ENDBRANCH   5  18
TORSDOF 3
ENDMDL
MODEL 7
REMARK VINA RESULT:      -7.5     16.195     18.437
REMARK  3 active torsions:
REMARK  status: ('A' for Active; 'I' for Inactive)
REMARK    1  A    between atoms: C12_17  and  O2_2 
REMARK    2  A    between atoms: C2_7  and  O2_2 
REMARK    3  A    between atoms: C12_17  and  C14_19 
ROOT
HETATM    1  O1  UNK     1      29.667  -8.762  36.007  1.00  0.00    -0.338 OA
HETATM    2  O3  UNK     1      27.528  -7.386  32.010  1.00  0.00    -0.275 OA
HETATM    3  O5  UNK     1      26.478  -6.744  30.077  1.00  0.00    -0.260 OA
HETATM    4  C1  UNK     1      30.864  -8.876  36.802  1.00  0.00     0.087 C 
HETATM    5  C2  UNK     1      31.578  -7.518  36.966  1.00  0.00     0.170 C 
HETATM    6  C3  UNK     1      31.904  -6.885  35.617  1.00  0.00     0.077 C 
HETATM    7  C4  UNK     1      30.746  -7.023  34.669  1.00  0.00    -0.021 A 
HETATM    8  C5  UNK     1      30.401  -9.404  38.170  1.00  0.00     0.049 C 
HETATM    9  C6  UNK     1      31.779  -9.935  36.165  1.00  0.00     0.049 C 
HETATM   10  C7  UNK     1      29.716  -7.942  34.913  1.00  0.00     0.079 A 
HETATM   11  C8  UNK     1      30.708  -6.235  33.506  1.00  0.00     0.024 A 
HETATM   12  C9  UNK     1      28.643  -8.047  34.026  1.00  0.00     0.075 A 
HETATM   13  C10 UNK     1      29.642  -6.345  32.609  1.00  0.00    -0.001 A 
HETATM   14  C11 UNK     1      28.623  -7.248  32.886  1.00  0.00     0.092 A 
HETATM   15  C13 UNK     1      29.561  -5.545  31.399  1.00  0.00     0.020 A 
HETATM   16  C15 UNK     1      28.521  -5.681  30.572  1.00  0.00     0.083 A 
HETATM   17  C16 UNK     1      27.427  -6.631  30.845  1.00  0.00     0.288 A 
ENDROOT
BRANCH   5  18
HETATM   18  O2  UNK     1      30.742  -6.620  37.703  1.00  0.00    -0.309 OA
BRANCH  18  19
HETATM   19  C12 UNK     1      31.358  -5.508  38.191  1.00  0.00     0.289 C 
HETATM   20  O4  UNK     1      32.476  -5.465  38.684  1.00  0.00    -0.260 OA
BRANCH  19  21
HETATM   21  C14 UNK     1      30.451  -4.331  38.037  1.00  0.00     0.009 C 
HETATM   22  C17 UNK     1      29.161  -4.321  38.802  1.00  0.00     0.054 C 
HETATM   23  C18 UNK     1      30.866  -3.376  37.183  1.00  0.00    -0.018 C 
HETATM   24  C19 UNK     1      32.127  -3.368  36.380  1.00  0.00     0.036 C 
ENDBRANCH  19  21
ENDBRANCH  18  19
ENDBRANCH   5  18
TORSDOF 3
ENDMDL
MODEL 8
REMARK VINA RESULT:      -7.5     17.286     19.220
REMARK  3 active torsions:
REMARK  status: ('A' for Active; 'I' for Inactive)
REMARK    1  A    between atoms: C12_17  and  O2_2 
REMARK    2  A    between atoms: C2_7  and  O2_2 
REMARK    3  A    between atoms: C12_17  and  C14_19 
ROOT
HETATM    1  O1  UNK     1      33.672  -6.853  34.052  1.00  0.00    -0.338 OA
HETATM    2  O3  UNK     1      30.866  -8.001  30.410  1.00  0.00    -0.275 OA
HETATM    3  O5  UNK     1      29.531  -8.569  28.637  1.00  0.00    -0.260 OA
HETATM    4  C1  UNK     1      34.108  -5.889  35.031  1.00  0.00     0.087 C 
HETATM    5  C2  UNK     1      32.928  -5.324  35.848  1.00  0.00     0.170 C 
HETATM    6  C3  UNK     1      31.861  -4.709  34.948  1.00  0.00     0.077 C 
HETATM    7  C4  UNK     1      31.605  -5.582  33.751  1.00  0.00    -0.021 A 
HETATM    8  C5  UNK     1      35.080  -6.648  35.950  1.00  0.00     0.049 C 
HETATM    9  C6  UNK     1      34.896  -4.781  34.312  1.00  0.00     0.049 C 
HETATM   10  C7  UNK     1      32.513  -6.581  33.377  1.00  0.00     0.079 A 
HETATM   11  C8  UNK     1      30.449  -5.375  32.980  1.00  0.00     0.024 A 
HETATM   12  C9  UNK     1      32.252  -7.389  32.268  1.00  0.00     0.075 A 
HETATM   13  C10 UNK     1      30.188  -6.173  31.863  1.00  0.00    -0.001 A 
HETATM   14  C11 UNK     1      31.094  -7.171  31.526  1.00  0.00     0.092 A 
HETATM   15  C13 UNK     1      29.001  -5.997  31.044  1.00  0.00     0.020 A 
HETATM   16  C15 UNK     1      28.792  -6.785  29.986  1.00  0.00     0.083 A 
HETATM   17  C16 UNK     1      29.738  -7.852  29.610  1.00  0.00     0.288 A 
ENDROOT
BRANCH   5  18
HETATM   18  O2  UNK     1      32.330  -6.371  36.618  1.00  0.00    -0.309 OA
BRANCH  18  19
HETATM   19  C12 UNK     1      31.938  -6.028  37.876  1.00  0.00     0.289 C 
HETATM   20  O4  UNK     1      32.613  -5.426  38.698  1.00  0.00    -0.260 OA
BRANCH  19  21
HETATM   21  C14 UNK     1      30.542  -6.508  38.110  1.00  0.00     0.009 C 
HETATM   22  C17 UNK     1      30.301  -7.986  38.191  1.00  0.00     0.054 C 
HETATM   23  C18 UNK     1      29.599  -5.551  38.196  1.00  0.00    -0.018 C 
HETATM   24  C19 UNK     1      29.798  -4.072  38.086  1.00  0.00     0.036 C 
ENDBRANCH  19  21
ENDBRANCH  18  19
ENDBRANCH   5  18
TORSDOF 3
ENDMDL
MODEL 9
REMARK VINA RESULT:      -7.4     16.977     18.780
REMARK  3 active torsions:
REMARK  status: ('A' for Active; 'I' for Inactive)
REMARK    1  A    between atoms: C12_17  and  O2_2 
REMARK    2  A    between atoms: C2_7  and  O2_2 
REMARK    3  A    between atoms: C12_17  and  C14_19 
ROOT
HETATM    1  O1  UNK     1      32.102  -7.984  34.064  1.00  0.00    -0.338 OA
HETATM    2  O3  UNK     1      28.996  -8.985  30.628  1.00  0.00    -0.275 OA
HETATM    3  O5  UNK     1      27.514  -9.483  28.954  1.00  0.00    -0.260 OA
HETATM    4  C1  UNK     1      32.664  -7.040  34.997  1.00  0.00     0.087 C 
HETATM    5  C2  UNK     1      31.580  -6.386  35.878  1.00  0.00     0.170 C 
HETATM    6  C3  UNK     1      30.500  -5.711  35.038  1.00  0.00     0.077 C 
HETATM    7  C4  UNK     1      30.109  -6.580  33.875  1.00  0.00    -0.021 A 
HETATM    8  C5  UNK     1      33.641  -7.851  35.866  1.00  0.00     0.049 C 
HETATM    9  C6  UNK     1      33.475  -5.996  34.211  1.00  0.00     0.049 C 
HETATM   10  C7  UNK     1      30.922  -7.643  33.460  1.00  0.00     0.079 A 
HETATM   11  C8  UNK     1      28.922  -6.305  33.176  1.00  0.00     0.024 A 
HETATM   12  C9  UNK     1      30.537  -8.445  32.383  1.00  0.00     0.075 A 
HETATM   13  C10 UNK     1      28.537  -7.097  32.091  1.00  0.00    -0.001 A 
HETATM   14  C11 UNK     1      29.350  -8.158  31.714  1.00  0.00     0.092 A 
HETATM   15  C13 UNK     1      27.314  -6.851  31.346  1.00  0.00     0.020 A 
HETATM   16  C15 UNK     1      26.985  -7.637  30.318  1.00  0.00     0.083 A 
HETATM   17  C16 UNK     1      27.831  -8.770  29.900  1.00  0.00     0.288 A 
ENDROOT
BRANCH   5  18
HETATM   18  O2  UNK     1      30.964  -7.381  36.702  1.00  0.00    -0.309 OA
BRANCH  18  19
HETATM   19  C12 UNK     1      30.906  -7.092  38.032  1.00  0.00     0.289 C 
HETATM   20  O4  UNK     1      31.864  -6.936  38.775  1.00  0.00    -0.260 OA
BRANCH  19  21
HETATM   21  C14 UNK     1      29.477  -6.998  38.458  1.00  0.00     0.009 C 
HETATM   22  C17 UNK     1      28.684  -8.265  38.579  1.00  0.00     0.054 C 
HETATM   23  C18 UNK     1      29.008  -5.753  38.668  1.00  0.00    -0.018 C 
HETATM   24  C19 UNK     1      29.758  -4.467  38.524  1.00  0.00     0.036 C 
ENDBRANCH  19  21
ENDBRANCH  18  19
ENDBRANCH   5  18
TORSDOF 3
ENDMDL
MODEL 10
REMARK VINA RESULT:      -7.3      2.121      2.887
REMARK  3 active torsions:
REMARK  status: ('A' for Active; 'I' for Inactive)
REMARK    1  A    between atoms: C12_17  and  O2_2 
REMARK    2  A    between atoms: C2_7  and  O2_2 
REMARK    3  A    between atoms: C12_17  and  C14_19 
ROOT
HETATM    1  O1  UNK     1      18.825   6.897  31.372  1.00  0.00    -0.338 OA
HETATM    2  O3  UNK     1      15.383  10.008  32.337  1.00  0.00    -0.275 OA
HETATM    3  O5  UNK     1      13.732  11.531  32.787  1.00  0.00    -0.260 OA
HETATM    4  C1  UNK     1      19.718   5.854  31.811  1.00  0.00     0.087 C 
HETATM    5  C2  UNK     1      18.962   4.702  32.505  1.00  0.00     0.170 C 
HETATM    6  C3  UNK     1      18.126   5.202  33.679  1.00  0.00     0.077 C 
HETATM    7  C4  UNK     1      17.406   6.472  33.318  1.00  0.00    -0.021 A 
HETATM    8  C5  UNK     1      20.414   5.345  30.537  1.00  0.00     0.049 C 
HETATM    9  C6  UNK     1      20.788   6.476  32.725  1.00  0.00     0.049 C 
HETATM   10  C7  UNK     1      17.795   7.234  32.209  1.00  0.00     0.079 A 
HETATM   11  C8  UNK     1      16.342   6.915  34.123  1.00  0.00     0.024 A 
HETATM   12  C9  UNK     1      17.108   8.405  31.885  1.00  0.00     0.075 A 
HETATM   13  C10 UNK     1      15.658   8.092  33.809  1.00  0.00    -0.001 A 
HETATM   14  C11 UNK     1      16.050   8.818  32.691  1.00  0.00     0.092 A 
HETATM   15  C13 UNK     1      14.549   8.582  34.609  1.00  0.00     0.020 A 
HETATM   16  C15 UNK     1      13.922   9.711  34.270  1.00  0.00     0.083 A 
HETATM   17  C16 UNK     1      14.319  10.497  33.087  1.00  0.00     0.288 A 
ENDROOT
BRANCH   5  18
HETATM   18  O2  UNK     1      18.096   4.059  31.566  1.00  0.00    -0.309 OA
BRANCH  18  19
HETATM   19  C12 UNK     1      18.089   2.698  31.604  1.00  0.00     0.289 C 
HETATM   20  O4  UNK     1      17.798   2.009  32.571  1.00  0.00    -0.260 OA
BRANCH  19  21
HETATM   21  C14 UNK     1      18.501   2.161  30.272  1.00  0.00     0.009 C 
HETATM   22  C17 UNK     1      18.131   2.940  29.045  1.00  0.00     0.054 C 
HETATM   23  C18 UNK     1      19.155   0.985  30.289  1.00  0.00    -0.018 C 
HETATM   24  C19 UNK     1      19.511   0.165  31.489  1.00  0.00     0.036 C 
ENDBRANCH  19  21
ENDBRANCH  18  19
ENDBRANCH   5  18
TORSDOF 3
ENDMDL
