MODEL 1
REMARK VINA RESULT:      -8.5      0.000      0.000
REMARK  5 active torsions:
REMARK  status: ('A' for Active; 'I' for Inactive)
REMARK    1  A    between atoms: C8_14  and  O3_3 
REMARK    2  A    between atoms: C11_17  and  O4_4 
REMARK    3  A    between atoms: C13_19  and  O5_5 
REMARK    4  A    between atoms: C15_21  and  O6_6 
REMARK    5  A    between atoms: C1_7  and  C3_9 
ROOT
HETATM    1  O1  UNK     1      18.670  -0.070  32.746  1.00  0.00    -0.337 OA
HETATM    2  O2  UNK     1      20.914  -3.435  33.431  1.00  0.00    -0.292 OA
HETATM    3  C1  UNK     1      18.366  -0.945  33.845  1.00  0.00     0.169 C 
HETATM    4  C2  UNK     1      19.625  -1.637  34.359  1.00  0.00     0.121 C 
HETATM    5  C4  UNK     1      20.067  -1.871  31.880  1.00  0.00     0.046 A 
HETATM    6  C5  UNK     1      20.247  -2.427  33.236  1.00  0.00     0.165 C 
HETATM    7  C6  UNK     1      19.305  -0.711  31.714  1.00  0.00     0.119 A 
HETATM    8  C8  UNK     1      19.190  -0.131  30.450  1.00  0.00     0.133 A 
HETATM    9  C10 UNK     1      20.683  -2.474  30.780  1.00  0.00     0.021 A 
HETATM   10  C11 UNK     1      19.806  -0.730  29.351  1.00  0.00     0.101 A 
HETATM   11  C12 UNK     1      20.548  -1.901  29.514  1.00  0.00     0.040 A 
ENDROOT
BRANCH   3  12
HETATM   12  C3  UNK     1      17.705  -0.131  34.936  1.00  0.00    -0.026 A 
HETATM   13  C9  UNK     1      16.325  -0.204  35.123  1.00  0.00     0.012 A 
HETATM   14  C14 UNK     1      15.717   0.545  36.131  1.00  0.00     0.040 A 
HETATM   15  C15 UNK     1      16.489   1.369  36.949  1.00  0.00     0.098 A 
HETATM   16  C13 UNK     1      17.869   1.443  36.761  1.00  0.00     0.099 A 
HETATM   17  C7  UNK     1      18.478   0.693  35.755  1.00  0.00     0.049 A 
BRANCH  15  18
HETATM   18  O6  UNK     1      15.884   2.097  37.928  1.00  0.00    -0.358 OA
HETATM   19  H12 UNK     1      15.083   2.504  37.556  1.00  0.00     0.217 HD
ENDBRANCH  15  18
BRANCH  16  20
HETATM   20  O5  UNK     1      18.634   2.244  37.555  1.00  0.00    -0.358 OA
HETATM   21  H11 UNK     1      19.165   1.687  38.150  1.00  0.00     0.217 HD
ENDBRANCH  16  20
ENDBRANCH   3  12
BRANCH   8  22
HETATM   22  O3  UNK     1      18.466   1.013  30.281  1.00  0.00    -0.356 OA
HETATM   23  H9  UNK     1      18.021   0.968  29.417  1.00  0.00     0.218 HD
ENDBRANCH   8  22
BRANCH  10  24
HETATM   24  O4  UNK     1      19.695  -0.179  28.109  1.00  0.00    -0.358 OA
HETATM   25  H10 UNK     1      20.440   0.427  27.963  1.00  0.00     0.217 HD
ENDBRANCH  10  24
TORSDOF 5
ENDMDL
MODEL 2
REMARK VINA RESULT:      -8.2      1.911      2.823
REMARK  5 active torsions:
REMARK  status: ('A' for Active; 'I' for Inactive)
REMARK    1  A    between atoms: C8_14  and  O3_3 
REMARK    2  A    between atoms: C11_17  and  O4_4 
REMARK    3  A    between atoms: C13_19  and  O5_5 
REMARK    4  A    between atoms: C15_21  and  O6_6 
REMARK    5  A    between atoms: C1_7  and  C3_9 
ROOT
HETATM    1  O1  UNK     1      19.048   0.002  32.657  1.00  0.00    -0.337 OA
HETATM    2  O2  UNK     1      20.947  -2.767  30.300  1.00  0.00    -0.292 OA
HETATM    3  C1  UNK     1      19.063  -1.388  33.023  1.00  0.00     0.169 C 
HETATM    4  C2  UNK     1      20.326  -2.075  32.511  1.00  0.00     0.121 C 
HETATM    5  C4  UNK     1      19.790  -0.715  30.448  1.00  0.00     0.046 A 
HETATM    6  C5  UNK     1      20.386  -1.943  31.012  1.00  0.00     0.165 C 
HETATM    7  C6  UNK     1      19.172   0.199  31.306  1.00  0.00     0.119 A 
HETATM    8  C8  UNK     1      18.672   1.399  30.799  1.00  0.00     0.133 A 
HETATM    9  C10 UNK     1      19.877  -0.450  29.078  1.00  0.00     0.021 A 
HETATM   10  C11 UNK     1      18.760   1.667  29.432  1.00  0.00     0.101 A 
HETATM   11  C12 UNK     1      19.357   0.743  28.573  1.00  0.00     0.040 A 
ENDROOT
BRANCH   3  12
HETATM   12  C3  UNK     1      18.958  -1.488  34.530  1.00  0.00    -0.026 A 
HETATM   13  C9  UNK     1      19.839  -2.305  35.237  1.00  0.00     0.012 A 
HETATM   14  C14 UNK     1      19.743  -2.396  36.626  1.00  0.00     0.040 A 
HETATM   15  C15 UNK     1      18.766  -1.670  37.306  1.00  0.00     0.098 A 
HETATM   16  C13 UNK     1      17.884  -0.853  36.598  1.00  0.00     0.099 A 
HETATM   17  C7  UNK     1      17.981  -0.761  35.209  1.00  0.00     0.049 A 
BRANCH  15  18
HETATM   18  O6  UNK     1      18.680  -1.768  38.662  1.00  0.00    -0.358 OA
HETATM   19  H12 UNK     1      19.492  -2.191  38.990  1.00  0.00     0.217 HD
ENDBRANCH  15  18
BRANCH  16  20
HETATM   20  O5  UNK     1      16.925  -0.139  37.251  1.00  0.00    -0.358 OA
HETATM   21  H11 UNK     1      16.988   0.794  36.985  1.00  0.00     0.217 HD
ENDBRANCH  16  20
ENDBRANCH   3  12
BRANCH   8  22
HETATM   22  O3  UNK     1      18.086   2.307  31.631  1.00  0.00    -0.356 OA
HETATM   23  H9  UNK     1      17.156   2.052  31.756  1.00  0.00     0.218 HD
ENDBRANCH   8  22
BRANCH  10  24
HETATM   24  O4  UNK     1      18.268   2.831  28.922  1.00  0.00    -0.358 OA
HETATM   25  H10 UNK     1      17.316   2.729  28.758  1.00  0.00     0.217 HD
ENDBRANCH  10  24
TORSDOF 5
ENDMDL
MODEL 3
REMARK VINA RESULT:      -8.2      4.715      6.049
REMARK  5 active torsions:
REMARK  status: ('A' for Active; 'I' for Inactive)
REMARK    1  A    between atoms: C8_14  and  O3_3 
REMARK    2  A    between atoms: C11_17  and  O4_4 
REMARK    3  A    between atoms: C13_19  and  O5_5 
REMARK    4  A    between atoms: C15_21  and  O6_6 
REMARK    5  A    between atoms: C1_7  and  C3_9 
ROOT
HETATM    1  O1  UNK     1      17.904   3.004  33.053  1.00  0.00    -0.337 OA
HETATM    2  O2  UNK     1      19.289   1.647  29.438  1.00  0.00    -0.292 OA
HETATM    3  C1  UNK     1      18.583   3.889  32.148  1.00  0.00     0.169 C 
HETATM    4  C2  UNK     1      18.362   3.465  30.698  1.00  0.00     0.121 C 
HETATM    5  C4  UNK     1      18.763   1.174  31.690  1.00  0.00     0.046 A 
HETATM    6  C5  UNK     1      18.869   2.059  30.512  1.00  0.00     0.165 C 
HETATM    7  C6  UNK     1      18.266   1.692  32.889  1.00  0.00     0.119 A 
HETATM    8  C8  UNK     1      18.088   0.850  33.988  1.00  0.00     0.133 A 
HETATM    9  C10 UNK     1      19.117  -0.175  31.596  1.00  0.00     0.021 A 
HETATM   10  C11 UNK     1      18.439  -0.497  33.896  1.00  0.00     0.101 A 
HETATM   11  C12 UNK     1      18.956  -1.008  32.705  1.00  0.00     0.040 A 
ENDROOT
BRANCH   3  12
HETATM   12  C3  UNK     1      18.083   5.297  32.389  1.00  0.00    -0.026 A 
HETATM   13  C9  UNK     1      18.068   5.821  33.681  1.00  0.00     0.012 A 
HETATM   14  C14 UNK     1      17.608   7.119  33.902  1.00  0.00     0.040 A 
HETATM   15  C15 UNK     1      17.162   7.893  32.831  1.00  0.00     0.098 A 
HETATM   16  C13 UNK     1      17.176   7.368  31.538  1.00  0.00     0.099 A 
HETATM   17  C7  UNK     1      17.637   6.070  31.317  1.00  0.00     0.049 A 
BRANCH  15  18
HETATM   18  O6  UNK     1      16.713   9.158  33.059  1.00  0.00    -0.358 OA
HETATM   19  H12 UNK     1      16.898   9.386  33.986  1.00  0.00     0.217 HD
ENDBRANCH  15  18
BRANCH  16  20
HETATM   20  O5  UNK     1      16.743   8.114  30.483  1.00  0.00    -0.358 OA
HETATM   21  H11 UNK     1      15.952   8.611  30.751  1.00  0.00     0.217 HD
ENDBRANCH  16  20
ENDBRANCH   3  12
BRANCH   8  22
HETATM   22  O3  UNK     1      17.584   1.341  35.157  1.00  0.00    -0.356 OA
HETATM   23  H9  UNK     1      17.531   0.610  35.797  1.00  0.00     0.218 HD
ENDBRANCH   8  22
BRANCH  10  24
HETATM   24  O4  UNK     1      18.278  -1.329  34.964  1.00  0.00    -0.358 OA
HETATM   25  H10 UNK     1      19.097  -1.836  35.097  1.00  0.00     0.217 HD
ENDBRANCH  10  24
TORSDOF 5
ENDMDL
MODEL 4
REMARK VINA RESULT:      -8.2      6.092      8.639
REMARK  5 active torsions:
REMARK  status: ('A' for Active; 'I' for Inactive)
REMARK    1  A    between atoms: C8_14  and  O3_3 
REMARK    2  A    between atoms: C11_17  and  O4_4 
REMARK    3  A    between atoms: C13_19  and  O5_5 
REMARK    4  A    between atoms: C15_21  and  O6_6 
REMARK    5  A    between atoms: C1_7  and  C3_9 
ROOT
HETATM    1  O1  UNK     1      16.724   5.670  32.214  1.00  0.00    -0.337 OA
HETATM    2  O2  UNK     1      19.589   8.071  33.905  1.00  0.00    -0.292 OA
HETATM    3  C1  UNK     1      18.113   5.495  31.891  1.00  0.00     0.169 C 
HETATM    4  C2  UNK     1      19.003   5.902  33.062  1.00  0.00     0.121 C 
HETATM    5  C4  UNK     1      17.360   7.822  33.168  1.00  0.00     0.046 A 
HETATM    6  C5  UNK     1      18.738   7.345  33.404  1.00  0.00     0.165 C 
HETATM    7  C6  UNK     1      16.424   6.949  32.605  1.00  0.00     0.119 A 
HETATM    8  C8  UNK     1      15.100   7.360  32.446  1.00  0.00     0.133 A 
HETATM    9  C10 UNK     1      16.984   9.116  33.540  1.00  0.00     0.021 A 
HETATM   10  C11 UNK     1      14.722   8.650  32.819  1.00  0.00     0.101 A 
HETATM   11  C12 UNK     1      15.662   9.528  33.361  1.00  0.00     0.040 A 
ENDROOT
BRANCH   3  12
HETATM   12  C3  UNK     1      18.338   4.047  31.511  1.00  0.00    -0.026 A 
HETATM   13  C9  UNK     1      18.571   3.703  30.181  1.00  0.00     0.012 A 
HETATM   14  C14 UNK     1      18.780   2.368  29.832  1.00  0.00     0.040 A 
HETATM   15  C15 UNK     1      18.753   1.379  30.813  1.00  0.00     0.098 A 
HETATM   16  C13 UNK     1      18.518   1.723  32.145  1.00  0.00     0.099 A 
HETATM   17  C7  UNK     1      18.311   3.058  32.494  1.00  0.00     0.049 A 
BRANCH  15  18
HETATM   18  O6  UNK     1      18.956   0.079  30.461  1.00  0.00    -0.358 OA
HETATM   19  H12 UNK     1      19.301  -0.398  31.235  1.00  0.00     0.217 HD
ENDBRANCH  15  18
BRANCH  16  20
HETATM   20  O5  UNK     1      18.490   0.765  33.113  1.00  0.00    -0.358 OA
HETATM   21  H11 UNK     1      18.158   1.158  33.938  1.00  0.00     0.217 HD
ENDBRANCH  16  20
ENDBRANCH   3  12
BRANCH   8  22
HETATM   22  O3  UNK     1      14.174   6.509  31.917  1.00  0.00    -0.356 OA
HETATM   23  H9  UNK     1      13.376   6.541  32.474  1.00  0.00     0.218 HD
ENDBRANCH   8  22
BRANCH  10  24
HETATM   24  O4  UNK     1      13.434   9.067  32.663  1.00  0.00    -0.358 OA
HETATM   25  H10 UNK     1      12.985   8.480  32.032  1.00  0.00     0.217 HD
ENDBRANCH  10  24
TORSDOF 5
ENDMDL
MODEL 5
REMARK VINA RESULT:      -8.1     12.818     16.133
REMARK  5 active torsions:
REMARK  status: ('A' for Active; 'I' for Inactive)
REMARK    1  A    between atoms: C8_14  and  O3_3 
REMARK    2  A    between atoms: C11_17  and  O4_4 
REMARK    3  A    between atoms: C13_19  and  O5_5 
REMARK    4  A    between atoms: C15_21  and  O6_6 
REMARK    5  A    between atoms: C1_7  and  C3_9 
ROOT
HETATM    1  O1  UNK     1      20.302  -2.131  17.718  1.00  0.00    -0.337 OA
HETATM    2  O2  UNK     1      17.739  -2.434  14.529  1.00  0.00    -0.292 OA
HETATM    3  C1  UNK     1      19.583  -0.982  17.242  1.00  0.00     0.169 C 
HETATM    4  C2  UNK     1      18.246  -1.388  16.628  1.00  0.00     0.121 C 
HETATM    5  C4  UNK     1      19.678  -3.216  15.626  1.00  0.00     0.046 A 
HETATM    6  C5  UNK     1      18.496  -2.341  15.488  1.00  0.00     0.165 C 
HETATM    7  C6  UNK     1      20.503  -3.076  16.745  1.00  0.00     0.119 A 
HETATM    8  C8  UNK     1      21.578  -3.946  16.928  1.00  0.00     0.133 A 
HETATM    9  C10 UNK     1      19.945  -4.200  14.670  1.00  0.00     0.021 A 
HETATM   10  C11 UNK     1      21.846  -4.931  15.977  1.00  0.00     0.101 A 
HETATM   11  C12 UNK     1      21.035  -5.055  14.849  1.00  0.00     0.040 A 
ENDROOT
BRANCH   3  12
HETATM   12  C3  UNK     1      19.385  -0.027  18.399  1.00  0.00    -0.026 A 
HETATM   13  C9  UNK     1      18.950   1.276  18.162  1.00  0.00     0.012 A 
HETATM   14  C14 UNK     1      18.767   2.156  19.229  1.00  0.00     0.040 A 
HETATM   15  C15 UNK     1      19.020   1.732  20.533  1.00  0.00     0.098 A 
HETATM   16  C13 UNK     1      19.457   0.428  20.771  1.00  0.00     0.099 A 
HETATM   17  C7  UNK     1      19.639  -0.452  19.703  1.00  0.00     0.049 A 
BRANCH  15  18
HETATM   18  O6  UNK     1      18.840   2.600  21.567  1.00  0.00    -0.358 OA
HETATM   19  H12 UNK     1      17.998   2.384  22.005  1.00  0.00     0.217 HD
ENDBRANCH  15  18
BRANCH  16  20
HETATM   20  O5  UNK     1      19.707   0.003  22.040  1.00  0.00    -0.358 OA
HETATM   21  H11 UNK     1      20.071   0.742  22.556  1.00  0.00     0.217 HD
ENDBRANCH  16  20
ENDBRANCH   3  12
BRANCH   8  22
HETATM   22  O3  UNK     1      22.377  -3.831  18.028  1.00  0.00    -0.356 OA
HETATM   23  H9  UNK     1      21.836  -4.002  18.819  1.00  0.00     0.218 HD
ENDBRANCH   8  22
BRANCH  10  24
HETATM   24  O4  UNK     1      22.898  -5.782  16.139  1.00  0.00    -0.358 OA
HETATM   25  H10 UNK     1      22.763  -6.303  16.949  1.00  0.00     0.217 HD
ENDBRANCH  10  24
TORSDOF 5
ENDMDL
MODEL 6
REMARK VINA RESULT:      -7.9     25.502     26.967
REMARK  5 active torsions:
REMARK  status: ('A' for Active; 'I' for Inactive)
REMARK    1  A    between atoms: C8_14  and  O3_3 
REMARK    2  A    between atoms: C11_17  and  O4_4 
REMARK    3  A    between atoms: C13_19  and  O5_5 
REMARK    4  A    between atoms: C15_21  and  O6_6 
REMARK    5  A    between atoms: C1_7  and  C3_9 
ROOT
HETATM    1  O1  UNK     1       9.915   5.420   9.336  1.00  0.00    -0.337 OA
HETATM    2  O2  UNK     1       9.608   6.730   5.461  1.00  0.00    -0.292 OA
HETATM    3  C1  UNK     1       8.724   6.079   8.876  1.00  0.00     0.169 C 
HETATM    4  C2  UNK     1       8.500   5.827   7.387  1.00  0.00     0.121 C 
HETATM    5  C4  UNK     1      10.991   6.253   7.313  1.00  0.00     0.046 A 
HETATM    6  C5  UNK     1       9.691   6.332   6.617  1.00  0.00     0.165 C 
HETATM    7  C6  UNK     1      11.032   5.780   8.628  1.00  0.00     0.119 A 
HETATM    8  C8  UNK     1      12.260   5.627   9.273  1.00  0.00     0.133 A 
HETATM    9  C10 UNK     1      12.171   6.606   6.653  1.00  0.00     0.021 A 
HETATM   10  C11 UNK     1      13.440   5.977   8.615  1.00  0.00     0.101 A 
HETATM   11  C12 UNK     1      13.396   6.469   7.310  1.00  0.00     0.040 A 
ENDROOT
BRANCH   3  12
HETATM   12  C3  UNK     1       7.553   5.582   9.697  1.00  0.00    -0.026 A 
HETATM   13  C9  UNK     1       6.576   6.477  10.130  1.00  0.00     0.012 A 
HETATM   14  C14 UNK     1       5.497   6.019  10.886  1.00  0.00     0.040 A 
HETATM   15  C15 UNK     1       5.396   4.666  11.209  1.00  0.00     0.098 A 
HETATM   16  C13 UNK     1       6.375   3.771  10.776  1.00  0.00     0.099 A 
HETATM   17  C7  UNK     1       7.454   4.229  10.019  1.00  0.00     0.049 A 
BRANCH  15  18
HETATM   18  O6  UNK     1       4.339   4.230  11.949  1.00  0.00    -0.358 OA
HETATM   19  H12 UNK     1       3.694   3.818  11.348  1.00  0.00     0.217 HD
ENDBRANCH  15  18
BRANCH  16  20
HETATM   20  O5  UNK     1       6.288   2.447  11.085  1.00  0.00    -0.358 OA
HETATM   21  H11 UNK     1       6.925   1.952  10.543  1.00  0.00     0.217 HD
ENDBRANCH  16  20
ENDBRANCH   3  12
BRANCH   8  22
HETATM   22  O3  UNK     1      12.312   5.147  10.549  1.00  0.00    -0.356 OA
HETATM   23  H9  UNK     1      11.524   5.459  11.025  1.00  0.00     0.218 HD
ENDBRANCH   8  22
BRANCH  10  24
HETATM   24  O4  UNK     1      14.646   5.840   9.236  1.00  0.00    -0.358 OA
HETATM   25  H10 UNK     1      15.291   6.428   8.809  1.00  0.00     0.217 HD
ENDBRANCH  10  24
TORSDOF 5
ENDMDL
MODEL 7
REMARK VINA RESULT:      -7.9      5.404      7.625
REMARK  5 active torsions:
REMARK  status: ('A' for Active; 'I' for Inactive)
REMARK    1  A    between atoms: C8_14  and  O3_3 
REMARK    2  A    between atoms: C11_17  and  O4_4 
REMARK    3  A    between atoms: C13_19  and  O5_5 
REMARK    4  A    between atoms: C15_21  and  O6_6 
REMARK    5  A    between atoms: C1_7  and  C3_9 
ROOT
HETATM    1  O1  UNK     1      20.712  -6.214  35.804  1.00  0.00    -0.337 OA
HETATM    2  O2  UNK     1      20.840  -7.471  39.707  1.00  0.00    -0.292 OA
HETATM    3  C1  UNK     1      19.952  -5.538  36.818  1.00  0.00     0.169 C 
HETATM    4  C2  UNK     1      20.643  -5.635  38.176  1.00  0.00     0.121 C 
HETATM    5  C4  UNK     1      20.997  -8.021  37.416  1.00  0.00     0.046 A 
HETATM    6  C5  UNK     1      20.806  -7.086  38.544  1.00  0.00     0.165 C 
HETATM    7  C6  UNK     1      20.961  -7.527  36.109  1.00  0.00     0.119 A 
HETATM    8  C8  UNK     1      21.216  -8.383  35.037  1.00  0.00     0.133 A 
HETATM    9  C10 UNK     1      21.252  -9.374  37.653  1.00  0.00     0.021 A 
HETATM   10  C11 UNK     1      21.473  -9.734  35.271  1.00  0.00     0.101 A 
HETATM   11  C12 UNK     1      21.487 -10.230  36.575  1.00  0.00     0.040 A 
ENDROOT
BRANCH   3  12
HETATM   12  C3  UNK     1      19.770  -4.095  36.399  1.00  0.00    -0.026 A 
HETATM   13  C9  UNK     1      19.184  -3.183  37.276  1.00  0.00     0.012 A 
HETATM   14  C14 UNK     1      19.017  -1.853  36.889  1.00  0.00     0.040 A 
HETATM   15  C15 UNK     1      19.435  -1.436  35.626  1.00  0.00     0.098 A 
HETATM   16  C13 UNK     1      20.021  -2.349  34.749  1.00  0.00     0.099 A 
HETATM   17  C7  UNK     1      20.189  -3.679  35.136  1.00  0.00     0.049 A 
BRANCH  15  18
HETATM   18  O6  UNK     1      19.266  -0.136  35.259  1.00  0.00    -0.358 OA
HETATM   19  H12 UNK     1      20.143   0.258  35.112  1.00  0.00     0.217 HD
ENDBRANCH  15  18
BRANCH  16  20
HETATM   20  O5  UNK     1      20.434  -1.954  33.513  1.00  0.00    -0.358 OA
HETATM   21  H11 UNK     1      21.266  -2.408  33.296  1.00  0.00     0.217 HD
ENDBRANCH  16  20
ENDBRANCH   3  12
BRANCH   8  22
HETATM   22  O3  UNK     1      21.204  -7.907  33.758  1.00  0.00    -0.356 OA
HETATM   23  H9  UNK     1      21.026  -8.651  33.157  1.00  0.00     0.218 HD
ENDBRANCH   8  22
BRANCH  10  24
HETATM   24  O4  UNK     1      21.716 -10.583  34.232  1.00  0.00    -0.358 OA
HETATM   25  H10 UNK     1      22.676 -10.684  34.124  1.00  0.00     0.217 HD
ENDBRANCH  10  24
TORSDOF 5
ENDMDL
MODEL 8
REMARK VINA RESULT:      -7.9      8.397     11.195
REMARK  5 active torsions:
REMARK  status: ('A' for Active; 'I' for Inactive)
REMARK    1  A    between atoms: C8_14  and  O3_3 
REMARK    2  A    between atoms: C11_17  and  O4_4 
REMARK    3  A    between atoms: C13_19  and  O5_5 
REMARK    4  A    between atoms: C15_21  and  O6_6 
REMARK    5  A    between atoms: C1_7  and  C3_9 
ROOT
HETATM    1  O1  UNK     1      17.928   9.122  33.111  1.00  0.00    -0.337 OA
HETATM    2  O2  UNK     1      13.887   9.801  33.292  1.00  0.00    -0.292 OA
HETATM    3  C1  UNK     1      16.999   8.026  33.125  1.00  0.00     0.169 C 
HETATM    4  C2  UNK     1      15.674   8.423  32.480  1.00  0.00     0.121 C 
HETATM    5  C4  UNK     1      16.068  10.527  33.827  1.00  0.00     0.046 A 
HETATM    6  C5  UNK     1      15.092   9.594  33.228  1.00  0.00     0.165 C 
HETATM    7  C6  UNK     1      17.433  10.248  33.715  1.00  0.00     0.119 A 
HETATM    8  C8  UNK     1      18.370  11.159  34.208  1.00  0.00     0.133 A 
HETATM    9  C10 UNK     1      15.635  11.695  34.461  1.00  0.00     0.021 A 
HETATM   10  C11 UNK     1      17.940  12.326  34.839  1.00  0.00     0.101 A 
HETATM   11  C12 UNK     1      16.576  12.592  34.969  1.00  0.00     0.040 A 
ENDROOT
BRANCH   3  12
HETATM   12  C3  UNK     1      17.629   6.854  32.403  1.00  0.00    -0.026 A 
HETATM   13  C9  UNK     1      17.559   5.576  32.954  1.00  0.00     0.012 A 
HETATM   14  C14 UNK     1      18.139   4.496  32.288  1.00  0.00     0.040 A 
HETATM   15  C15 UNK     1      18.790   4.696  31.071  1.00  0.00     0.098 A 
HETATM   16  C13 UNK     1      18.861   5.976  30.520  1.00  0.00     0.099 A 
HETATM   17  C7  UNK     1      18.281   7.056  31.186  1.00  0.00     0.049 A 
BRANCH  15  18
HETATM   18  O6  UNK     1      19.354   3.635  30.430  1.00  0.00    -0.358 OA
HETATM   19  H12 UNK     1      18.651   2.999  30.214  1.00  0.00     0.217 HD
ENDBRANCH  15  18
BRANCH  16  20
HETATM   20  O5  UNK     1      19.495   6.184  29.332  1.00  0.00    -0.358 OA
HETATM   21  H11 UNK     1      20.394   5.818  29.384  1.00  0.00     0.217 HD
ENDBRANCH  16  20
ENDBRANCH   3  12
BRANCH   8  22
HETATM   22  O3  UNK     1      19.705  10.907  34.086  1.00  0.00    -0.356 OA
HETATM   23  H9  UNK     1      20.100  10.916  34.975  1.00  0.00     0.218 HD
ENDBRANCH   8  22
BRANCH  10  24
HETATM   24  O4  UNK     1      18.843  13.220  35.332  1.00  0.00    -0.358 OA
HETATM   25  H10 UNK     1      18.943  13.076  36.288  1.00  0.00     0.217 HD
ENDBRANCH  10  24
TORSDOF 5
ENDMDL
MODEL 9
REMARK VINA RESULT:      -7.9      4.430      5.641
REMARK  5 active torsions:
REMARK  status: ('A' for Active; 'I' for Inactive)
REMARK    1  A    between atoms: C8_14  and  O3_3 
REMARK    2  A    between atoms: C11_17  and  O4_4 
REMARK    3  A    between atoms: C13_19  and  O5_5 
REMARK    4  A    between atoms: C15_21  and  O6_6 
REMARK    5  A    between atoms: C1_7  and  C3_9 
ROOT
HETATM    1  O1  UNK     1      18.018   2.702  32.997  1.00  0.00    -0.337 OA
HETATM    2  O2  UNK     1      19.380   1.272  29.401  1.00  0.00    -0.292 OA
HETATM    3  C1  UNK     1      18.699   3.567  32.073  1.00  0.00     0.169 C 
HETATM    4  C2  UNK     1      18.470   3.119  30.632  1.00  0.00     0.121 C 
HETATM    5  C4  UNK     1      18.861   0.843  31.664  1.00  0.00     0.046 A 
HETATM    6  C5  UNK     1      18.967   1.706  30.470  1.00  0.00     0.165 C 
HETATM    7  C6  UNK     1      18.371   1.386  32.855  1.00  0.00     0.119 A 
HETATM    8  C8  UNK     1      18.193   0.565  33.969  1.00  0.00     0.133 A 
HETATM    9  C10 UNK     1      19.206  -0.509  31.593  1.00  0.00     0.021 A 
HETATM   10  C11 UNK     1      18.535  -0.786  33.900  1.00  0.00     0.101 A 
HETATM   11  C12 UNK     1      19.043  -1.321  32.717  1.00  0.00     0.040 A 
ENDROOT
BRANCH   3  12
HETATM   12  C3  UNK     1      18.209   4.982  32.291  1.00  0.00    -0.026 A 
HETATM   13  C9  UNK     1      18.115   5.861  31.213  1.00  0.00     0.012 A 
HETATM   14  C14 UNK     1      17.662   7.165  31.413  1.00  0.00     0.040 A 
HETATM   15  C15 UNK     1      17.304   7.590  32.692  1.00  0.00     0.098 A 
HETATM   16  C13 UNK     1      17.399   6.710  33.771  1.00  0.00     0.099 A 
HETATM   17  C7  UNK     1      17.851   5.406  33.571  1.00  0.00     0.049 A 
BRANCH  15  18
HETATM   18  O6  UNK     1      16.865   8.866  32.877  1.00  0.00    -0.358 OA
HETATM   19  H12 UNK     1      15.898   8.875  32.772  1.00  0.00     0.217 HD
ENDBRANCH  15  18
BRANCH  16  20
HETATM   20  O5  UNK     1      17.052   7.114  35.025  1.00  0.00    -0.358 OA
HETATM   21  H11 UNK     1      17.765   6.879  35.643  1.00  0.00     0.217 HD
ENDBRANCH  16  20
ENDBRANCH   3  12
BRANCH   8  22
HETATM   22  O3  UNK     1      17.696   1.079  35.131  1.00  0.00    -0.356 OA
HETATM   23  H9  UNK     1      16.965   1.683  34.910  1.00  0.00     0.218 HD
ENDBRANCH   8  22
BRANCH  10  24
HETATM   24  O4  UNK     1      18.373  -1.598  34.984  1.00  0.00    -0.358 OA
HETATM   25  H10 UNK     1      19.123  -1.473  35.589  1.00  0.00     0.217 HD
ENDBRANCH  10  24
TORSDOF 5
ENDMDL
MODEL 10
REMARK VINA RESULT:      -7.8     17.246     19.946
REMARK  5 active torsions:
REMARK  status: ('A' for Active; 'I' for Inactive)
REMARK    1  A    between atoms: C8_14  and  O3_3 
REMARK    2  A    between atoms: C11_17  and  O4_4 
REMARK    3  A    between atoms: C13_19  and  O5_5 
REMARK    4  A    between atoms: C15_21  and  O6_6 
REMARK    5  A    between atoms: C1_7  and  C3_9 
ROOT
HETATM    1  O1  UNK     1      18.349  -4.325  13.381  1.00  0.00    -0.337 OA
HETATM    2  O2  UNK     1      19.357  -0.586  14.737  1.00  0.00    -0.292 OA
HETATM    3  C1  UNK     1      18.465  -4.061  14.789  1.00  0.00     0.169 C 
HETATM    4  C2  UNK     1      18.118  -2.608  15.104  1.00  0.00     0.121 C 
HETATM    5  C4  UNK     1      19.509  -2.209  13.029  1.00  0.00     0.046 A 
HETATM    6  C5  UNK     1      19.046  -1.702  14.337  1.00  0.00     0.165 C 
HETATM    7  C6  UNK     1      19.115  -3.485  12.616  1.00  0.00     0.119 A 
HETATM    8  C8  UNK     1      19.480  -3.947  11.350  1.00  0.00     0.133 A 
HETATM    9  C10 UNK     1      20.295  -1.408  12.197  1.00  0.00     0.021 A 
HETATM   10  C11 UNK     1      20.264  -3.149  10.517  1.00  0.00     0.101 A 
HETATM   11  C12 UNK     1      20.674  -1.884  10.940  1.00  0.00     0.040 A 
ENDROOT
BRANCH   3  12
HETATM   12  C3  UNK     1      17.554  -5.014  15.532  1.00  0.00    -0.026 A 
HETATM   13  C9  UNK     1      17.529  -6.365  15.190  1.00  0.00     0.012 A 
HETATM   14  C14 UNK     1      16.690  -7.243  15.876  1.00  0.00     0.040 A 
HETATM   15  C15 UNK     1      15.875  -6.769  16.904  1.00  0.00     0.098 A 
HETATM   16  C13 UNK     1      15.899  -5.416  17.245  1.00  0.00     0.099 A 
HETATM   17  C7  UNK     1      16.739  -4.538  16.559  1.00  0.00     0.049 A 
BRANCH  15  18
HETATM   18  O6  UNK     1      15.059  -7.635  17.565  1.00  0.00    -0.358 OA
HETATM   19  H12 UNK     1      15.524  -8.483  17.660  1.00  0.00     0.217 HD
ENDBRANCH  15  18
BRANCH  16  20
HETATM   20  O5  UNK     1      15.108  -4.941  18.247  1.00  0.00    -0.358 OA
HETATM   21  H11 UNK     1      15.593  -4.997  19.088  1.00  0.00     0.217 HD
ENDBRANCH  16  20
ENDBRANCH   3  12
BRANCH   8  22
HETATM   22  O3  UNK     1      19.084  -5.183  10.928  1.00  0.00    -0.356 OA
HETATM   23  H9  UNK     1      18.587  -5.607  11.649  1.00  0.00     0.218 HD
ENDBRANCH   8  22
BRANCH  10  24
HETATM   24  O4  UNK     1      20.634  -3.591   9.282  1.00  0.00    -0.358 OA
HETATM   25  H10 UNK     1      20.071  -4.343   9.032  1.00  0.00     0.217 HD
ENDBRANCH  10  24
TORSDOF 5
ENDMDL
