MODEL 1
REMARK VINA RESULT:      -9.8      0.000      0.000
REMARK  3 active torsions:
REMARK  status: ('A' for Active; 'I' for Inactive)
REMARK    1  A    between atoms: C1_5  and  N1_4 
REMARK       I    between atoms: C9_13  and  N1_4 
REMARK    2  A    between atoms: C1_5  and  C2_6 
REMARK    3  A    between atoms: C11_15  and  C9_13 
ROOT
HETATM    1  O2  UNK     1      17.179   4.069  31.281  1.00  0.00    -0.267 OA
HETATM    2  N1  UNK     1      19.447   4.512  30.971  1.00  0.00    -0.348 N 
HETATM    3  C9  UNK     1      18.349   3.701  31.195  1.00  0.00     0.258 C 
HETATM    4  H3  UNK     1      20.376   4.102  30.984  1.00  0.00     0.163 HD
ENDROOT
BRANCH   3   5
HETATM    5  C11 UNK     1      18.706   2.284  31.331  1.00  0.00     0.108 A 
HETATM    6  C14 UNK     1      19.310   1.722  30.277  1.00  0.00     0.037 A 
HETATM    7  C13 UNK     1      19.702   0.322  30.316  1.00  0.00    -0.001 A 
HETATM    8  C15 UNK     1      19.438  -0.418  31.464  1.00  0.00     0.089 A 
HETATM    9  C17 UNK     1      20.335  -0.305  29.240  1.00  0.00     0.014 A 
HETATM   10  O1  UNK     1      18.801   0.178  32.570  1.00  0.00    -0.274 OA
HETATM   11  C18 UNK     1      19.786  -1.764  31.565  1.00  0.00     0.038 A 
HETATM   12  C16 UNK     1      18.415   1.515  32.562  1.00  0.00     0.304 A 
HETATM   13  O3  UNK     1      17.861   2.026  33.529  1.00  0.00    -0.259 OA
HETATM   14  C20 UNK     1      20.417  -2.381  30.488  1.00  0.00     0.003 A 
HETATM   15  C19 UNK     1      20.691  -1.653  29.327  1.00  0.00     0.001 A 
ENDBRANCH   3   5
BRANCH   2  16
HETATM   16  C1  UNK     1      19.346   5.944  30.804  1.00  0.00     0.114 C 
HETATM   17  C5  UNK     1      18.287   6.261  29.750  1.00  0.00     0.037 C 
BRANCH  16  18
HETATM   18  C2  UNK     1      19.071   6.607  32.136  1.00  0.00    -0.029 A 
HETATM   19  C3  UNK     1      20.102   6.815  33.039  1.00  0.00    -0.054 A 
HETATM   20  C10 UNK     1      21.504   6.398  32.737  1.00  0.00     0.049 C 
HETATM   21  C7  UNK     1      19.826   7.428  34.260  1.00  0.00     0.008 A 
HETATM   22  C8  UNK     1      18.524   7.826  34.563  1.00  0.00     0.007 A 
HETATM   23  C6  UNK     1      17.498   7.610  33.643  1.00  0.00    -0.061 A 
HETATM   24  C12 UNK     1      16.105   8.035  33.967  1.00  0.00     0.048 C 
HETATM   25  C4  UNK     1      17.773   6.996  32.421  1.00  0.00     0.016 A 
ENDBRANCH  16  18
ENDBRANCH   2  16
TORSDOF 3
ENDMDL
MODEL 2
REMARK VINA RESULT:      -9.6      2.446      7.877
REMARK  3 active torsions:
REMARK  status: ('A' for Active; 'I' for Inactive)
REMARK    1  A    between atoms: C1_5  and  N1_4 
REMARK       I    between atoms: C9_13  and  N1_4 
REMARK    2  A    between atoms: C1_5  and  C2_6 
REMARK    3  A    between atoms: C11_15  and  C9_13 
ROOT
HETATM    1  O2  UNK     1      19.263   2.058  35.344  1.00  0.00    -0.267 OA
HETATM    2  N1  UNK     1      17.593   1.029  34.082  1.00  0.00    -0.348 N 
HETATM    3  C9  UNK     1      18.409   2.081  34.459  1.00  0.00     0.258 C 
HETATM    4  H3  UNK     1      16.878   1.186  33.379  1.00  0.00     0.163 HD
ENDROOT
BRANCH   3   5
HETATM    5  C11 UNK     1      18.167   3.299  33.677  1.00  0.00     0.108 A 
HETATM    6  C14 UNK     1      18.179   4.451  34.359  1.00  0.00     0.037 A 
HETATM    7  C13 UNK     1      17.950   5.712  33.671  1.00  0.00    -0.001 A 
HETATM    8  C15 UNK     1      17.720   5.698  32.299  1.00  0.00     0.089 A 
HETATM    9  C17 UNK     1      17.952   6.938  34.341  1.00  0.00     0.014 A 
HETATM   10  O1  UNK     1      17.709   4.483  31.587  1.00  0.00    -0.274 OA
HETATM   11  C18 UNK     1      17.492   6.870  31.581  1.00  0.00     0.038 A 
HETATM   12  C16 UNK     1      17.925   3.261  32.217  1.00  0.00     0.304 A 
HETATM   13  O3  UNK     1      17.913   2.207  31.590  1.00  0.00    -0.259 OA
HETATM   14  C20 UNK     1      17.497   8.088  32.257  1.00  0.00     0.003 A 
HETATM   15  C19 UNK     1      17.726   8.122  33.635  1.00  0.00     0.001 A 
ENDBRANCH   3   5
BRANCH   2  16
HETATM   16  C1  UNK     1      17.649  -0.272  34.707  1.00  0.00     0.114 C 
HETATM   17  C5  UNK     1      16.272  -0.931  34.634  1.00  0.00     0.037 C 
BRANCH  16  18
HETATM   18  C2  UNK     1      18.739  -1.110  34.073  1.00  0.00    -0.029 A 
HETATM   19  C3  UNK     1      19.551  -1.909  34.860  1.00  0.00    -0.054 A 
HETATM   20  C10 UNK     1      19.386  -1.976  36.343  1.00  0.00     0.049 C 
HETATM   21  C7  UNK     1      20.549  -2.673  34.255  1.00  0.00     0.008 A 
HETATM   22  C8  UNK     1      20.721  -2.627  32.872  1.00  0.00     0.007 A 
HETATM   23  C6  UNK     1      19.894  -1.817  32.093  1.00  0.00    -0.061 A 
HETATM   24  C12 UNK     1      20.078  -1.767  30.614  1.00  0.00     0.048 C 
HETATM   25  C4  UNK     1      18.895  -1.052  32.698  1.00  0.00     0.016 A 
ENDBRANCH  16  18
ENDBRANCH   2  16
TORSDOF 3
ENDMDL
MODEL 3
REMARK VINA RESULT:      -9.5     11.299     14.869
REMARK  3 active torsions:
REMARK  status: ('A' for Active; 'I' for Inactive)
REMARK    1  A    between atoms: C1_5  and  N1_4 
REMARK       I    between atoms: C9_13  and  N1_4 
REMARK    2  A    between atoms: C1_5  and  C2_6 
REMARK    3  A    between atoms: C11_15  and  C9_13 
ROOT
HETATM    1  O2  UNK     1      25.815  -9.269  38.725  1.00  0.00    -0.267 OA
HETATM    2  N1  UNK     1      24.242  -7.549  38.636  1.00  0.00    -0.348 N 
HETATM    3  C9  UNK     1      25.521  -8.075  38.677  1.00  0.00     0.258 C 
HETATM    4  H3  UNK     1      24.121  -6.541  38.664  1.00  0.00     0.163 HD
ENDROOT
BRANCH   3   5
HETATM    5  C11 UNK     1      26.564  -7.042  38.658  1.00  0.00     0.108 A 
HETATM    6  C14 UNK     1      27.823  -7.476  38.523  1.00  0.00     0.037 A 
HETATM    7  C13 UNK     1      28.925  -6.527  38.492  1.00  0.00    -0.001 A 
HETATM    8  C15 UNK     1      28.647  -5.169  38.605  1.00  0.00     0.089 A 
HETATM    9  C17 UNK     1      30.254  -6.934  38.353  1.00  0.00     0.014 A 
HETATM   10  O1  UNK     1      27.320  -4.719  38.747  1.00  0.00    -0.274 OA
HETATM   11  C18 UNK     1      29.657  -4.209  38.584  1.00  0.00     0.038 A 
HETATM   12  C16 UNK     1      26.245  -5.602  38.779  1.00  0.00     0.304 A 
HETATM   13  O3  UNK     1      25.093  -5.202  38.904  1.00  0.00    -0.259 OA
HETATM   14  C20 UNK     1      30.980  -4.624  38.445  1.00  0.00     0.003 A 
HETATM   15  C19 UNK     1      31.278  -5.983  38.330  1.00  0.00     0.001 A 
ENDBRANCH   3   5
BRANCH   2  16
HETATM   16  C1  UNK     1      23.053  -8.370  38.644  1.00  0.00     0.114 C 
HETATM   17  C5  UNK     1      22.333  -8.211  39.982  1.00  0.00     0.037 C 
BRANCH  16  18
HETATM   18  C2  UNK     1      22.176  -8.030  37.458  1.00  0.00    -0.029 A 
HETATM   19  C3  UNK     1      22.130  -8.872  36.359  1.00  0.00    -0.054 A 
HETATM   20  C10 UNK     1      22.933 -10.131  36.302  1.00  0.00     0.049 C 
HETATM   21  C7  UNK     1      21.315  -8.540  35.278  1.00  0.00     0.008 A 
HETATM   22  C8  UNK     1      20.557  -7.369  35.309  1.00  0.00     0.007 A 
HETATM   23  C6  UNK     1      20.614  -6.532  36.424  1.00  0.00    -0.061 A 
HETATM   24  C12 UNK     1      19.803  -5.281  36.457  1.00  0.00     0.048 C 
HETATM   25  C4  UNK     1      21.429  -6.864  37.506  1.00  0.00     0.016 A 
ENDBRANCH  16  18
ENDBRANCH   2  16
TORSDOF 3
ENDMDL
MODEL 4
REMARK VINA RESULT:      -9.4      6.404     11.551
REMARK  3 active torsions:
REMARK  status: ('A' for Active; 'I' for Inactive)
REMARK    1  A    between atoms: C1_5  and  N1_4 
REMARK       I    between atoms: C9_13  and  N1_4 
REMARK    2  A    between atoms: C1_5  and  C2_6 
REMARK    3  A    between atoms: C11_15  and  C9_13 
ROOT
HETATM    1  O2  UNK     1      20.140  -4.700  37.566  1.00  0.00    -0.267 OA
HETATM    2  N1  UNK     1      18.124  -4.988  36.431  1.00  0.00    -0.348 N 
HETATM    3  C9  UNK     1      19.203  -4.262  36.901  1.00  0.00     0.258 C 
HETATM    4  H3  UNK     1      17.375  -4.503  35.945  1.00  0.00     0.163 HD
ENDROOT
BRANCH   3   5
HETATM    5  C11 UNK     1      19.145  -2.844  36.522  1.00  0.00     0.108 A 
HETATM    6  C14 UNK     1      18.370  -2.060  37.281  1.00  0.00     0.037 A 
HETATM    7  C13 UNK     1      18.249  -0.642  36.985  1.00  0.00    -0.001 A 
HETATM    8  C15 UNK     1      18.951  -0.118  35.904  1.00  0.00     0.089 A 
HETATM    9  C17 UNK     1      17.452   0.214  37.748  1.00  0.00     0.014 A 
HETATM   10  O1  UNK     1      19.766  -0.948  35.109  1.00  0.00    -0.274 OA
HETATM   11  C18 UNK     1      18.878   1.232  35.566  1.00  0.00     0.038 A 
HETATM   12  C16 UNK     1      19.902  -2.308  35.368  1.00  0.00     0.304 A 
HETATM   13  O3  UNK     1      20.612  -3.024  34.670  1.00  0.00    -0.259 OA
HETATM   14  C20 UNK     1      18.080   2.078  36.334  1.00  0.00     0.003 A 
HETATM   15  C19 UNK     1      17.369   1.570  37.423  1.00  0.00     0.001 A 
ENDBRANCH   3   5
BRANCH   2  16
HETATM   16  C1  UNK     1      17.961  -6.403  36.676  1.00  0.00     0.114 C 
HETATM   17  C5  UNK     1      16.619  -6.866  36.111  1.00  0.00     0.037 C 
BRANCH  16  18
HETATM   18  C2  UNK     1      19.137  -7.169  36.109  1.00  0.00    -0.029 A 
HETATM   19  C3  UNK     1      19.752  -8.158  36.858  1.00  0.00    -0.054 A 
HETATM   20  C10 UNK     1      19.286  -8.503  38.235  1.00  0.00     0.049 C 
HETATM   21  C7  UNK     1      20.833  -8.852  36.316  1.00  0.00     0.008 A 
HETATM   22  C8  UNK     1      21.285  -8.548  35.032  1.00  0.00     0.007 A 
HETATM   23  C6  UNK     1      20.654  -7.549  34.290  1.00  0.00    -0.061 A 
HETATM   24  C12 UNK     1      21.136  -7.223  32.917  1.00  0.00     0.048 C 
HETATM   25  C4  UNK     1      19.572  -6.854  34.832  1.00  0.00     0.016 A 
ENDBRANCH  16  18
ENDBRANCH   2  16
TORSDOF 3
ENDMDL
MODEL 5
REMARK VINA RESULT:      -9.4     13.454     17.473
REMARK  3 active torsions:
REMARK  status: ('A' for Active; 'I' for Inactive)
REMARK    1  A    between atoms: C1_5  and  N1_4 
REMARK       I    between atoms: C9_13  and  N1_4 
REMARK    2  A    between atoms: C1_5  and  C2_6 
REMARK    3  A    between atoms: C11_15  and  C9_13 
ROOT
HETATM    1  O2  UNK     1      17.609  -2.152  16.377  1.00  0.00    -0.267 OA
HETATM    2  N1  UNK     1      19.587  -1.652  15.248  1.00  0.00    -0.348 N 
HETATM    3  C9  UNK     1      18.626  -1.477  16.227  1.00  0.00     0.258 C 
HETATM    4  H3  UNK     1      20.354  -0.990  15.184  1.00  0.00     0.163 HD
ENDROOT
BRANCH   3   5
HETATM    5  C11 UNK     1      18.927  -0.359  17.129  1.00  0.00     0.108 A 
HETATM    6  C14 UNK     1      18.994  -0.653  18.433  1.00  0.00     0.037 A 
HETATM    7  C13 UNK     1      19.288   0.388  19.406  1.00  0.00    -0.001 A 
HETATM    8  C15 UNK     1      19.498   1.688  18.956  1.00  0.00     0.089 A 
HETATM    9  C17 UNK     1      19.368   0.127  20.776  1.00  0.00     0.014 A 
HETATM   10  O1  UNK     1      19.426   1.991  17.583  1.00  0.00    -0.274 OA
HETATM   11  C18 UNK     1      19.782   2.731  19.836  1.00  0.00     0.038 A 
HETATM   12  C16 UNK     1      19.147   1.017  16.629  1.00  0.00     0.304 A 
HETATM   13  O3  UNK     1      19.085   1.290  15.436  1.00  0.00    -0.259 OA
HETATM   14  C20 UNK     1      19.859   2.462  21.200  1.00  0.00     0.003 A 
HETATM   15  C19 UNK     1      19.653   1.163  21.669  1.00  0.00     0.001 A 
ENDBRANCH   3   5
BRANCH   2  16
HETATM   16  C1  UNK     1      19.509  -2.690  14.245  1.00  0.00     0.114 C 
HETATM   17  C5  UNK     1      20.059  -2.161  12.922  1.00  0.00     0.037 C 
BRANCH  16  18
HETATM   18  C2  UNK     1      20.223  -3.935  14.726  1.00  0.00    -0.029 A 
HETATM   19  C3  UNK     1      19.749  -5.189  14.379  1.00  0.00    -0.054 A 
HETATM   20  C10 UNK     1      18.532  -5.360  13.529  1.00  0.00     0.049 C 
HETATM   21  C7  UNK     1      20.422  -6.323  14.832  1.00  0.00     0.008 A 
HETATM   22  C8  UNK     1      21.561  -6.188  15.626  1.00  0.00     0.007 A 
HETATM   23  C6  UNK     1      22.026  -4.917  15.967  1.00  0.00    -0.061 A 
HETATM   24  C12 UNK     1      23.243  -4.772  16.816  1.00  0.00     0.048 C 
HETATM   25  C4  UNK     1      21.352  -3.782  15.513  1.00  0.00     0.016 A 
ENDBRANCH  16  18
ENDBRANCH   2  16
TORSDOF 3
ENDMDL
MODEL 6
REMARK VINA RESULT:      -9.3     14.793     18.785
REMARK  3 active torsions:
REMARK  status: ('A' for Active; 'I' for Inactive)
REMARK    1  A    between atoms: C1_5  and  N1_4 
REMARK       I    between atoms: C9_13  and  N1_4 
REMARK    2  A    between atoms: C1_5  and  C2_6 
REMARK    3  A    between atoms: C11_15  and  C9_13 
ROOT
HETATM    1  O2  UNK     1      17.935  -3.177  13.756  1.00  0.00    -0.267 OA
HETATM    2  N1  UNK     1      19.589  -3.917  15.224  1.00  0.00    -0.348 N 
HETATM    3  C9  UNK     1      18.743  -2.978  14.662  1.00  0.00     0.258 C 
HETATM    4  H3  UNK     1      20.261  -3.620  15.925  1.00  0.00     0.163 HD
ENDROOT
BRANCH   3   5
HETATM    5  C11 UNK     1      18.888  -1.647  15.263  1.00  0.00     0.108 A 
HETATM    6  C14 UNK     1      18.704  -1.572  16.586  1.00  0.00     0.037 A 
HETATM    7  C13 UNK     1      18.827  -0.296  17.273  1.00  0.00    -0.001 A 
HETATM    8  C15 UNK     1      19.138   0.840  16.531  1.00  0.00     0.089 A 
HETATM    9  C17 UNK     1      18.643  -0.170  18.652  1.00  0.00     0.014 A 
HETATM   10  O1  UNK     1      19.330   0.755  15.139  1.00  0.00    -0.274 OA
HETATM   11  C18 UNK     1      19.269   2.093  17.128  1.00  0.00     0.038 A 
HETATM   12  C16 UNK     1      19.220  -0.452  14.454  1.00  0.00     0.304 A 
HETATM   13  O3  UNK     1      19.388  -0.516  13.242  1.00  0.00    -0.259 OA
HETATM   14  C20 UNK     1      19.084   2.208  18.504  1.00  0.00     0.003 A 
HETATM   15  C19 UNK     1      18.772   1.079  19.264  1.00  0.00     0.001 A 
ENDBRANCH   3   5
BRANCH   2  16
HETATM   16  C1  UNK     1      19.627  -5.297  14.798  1.00  0.00     0.114 C 
HETATM   17  C5  UNK     1      20.784  -6.013  15.493  1.00  0.00     0.037 C 
BRANCH  16  18
HETATM   18  C2  UNK     1      18.288  -5.958  15.049  1.00  0.00    -0.029 A 
HETATM   19  C3  UNK     1      17.605  -6.566  14.009  1.00  0.00    -0.054 A 
HETATM   20  C10 UNK     1      18.154  -6.595  12.620  1.00  0.00     0.049 C 
HETATM   21  C7  UNK     1      16.373  -7.170  14.263  1.00  0.00     0.008 A 
HETATM   22  C8  UNK     1      15.841  -7.155  15.552  1.00  0.00     0.007 A 
HETATM   23  C6  UNK     1      16.542  -6.538  16.588  1.00  0.00    -0.061 A 
HETATM   24  C12 UNK     1      15.974  -6.522  17.967  1.00  0.00     0.048 C 
HETATM   25  C4  UNK     1      17.775  -5.935  16.335  1.00  0.00     0.016 A 
ENDBRANCH  16  18
ENDBRANCH   2  16
TORSDOF 3
ENDMDL
MODEL 7
REMARK VINA RESULT:      -9.1      2.626      4.131
REMARK  3 active torsions:
REMARK  status: ('A' for Active; 'I' for Inactive)
REMARK    1  A    between atoms: C1_5  and  N1_4 
REMARK       I    between atoms: C9_13  and  N1_4 
REMARK    2  A    between atoms: C1_5  and  C2_6 
REMARK    3  A    between atoms: C11_15  and  C9_13 
ROOT
HETATM    1  O2  UNK     1      17.537   3.432  31.725  1.00  0.00    -0.267 OA
HETATM    2  N1  UNK     1      18.729   4.552  33.388  1.00  0.00    -0.348 N 
HETATM    3  C9  UNK     1      18.106   3.457  32.815  1.00  0.00     0.258 C 
HETATM    4  H3  UNK     1      19.111   4.469  34.325  1.00  0.00     0.163 HD
ENDROOT
BRANCH   3   5
HETATM    5  C11 UNK     1      18.180   2.255  33.655  1.00  0.00     0.108 A 
HETATM    6  C14 UNK     1      17.911   2.424  34.955  1.00  0.00     0.037 A 
HETATM    7  C13 UNK     1      17.958   1.291  35.866  1.00  0.00    -0.001 A 
HETATM    8  C15 UNK     1      18.286   0.036  35.363  1.00  0.00     0.089 A 
HETATM    9  C17 UNK     1      17.686   1.420  37.230  1.00  0.00     0.014 A 
HETATM   10  O1  UNK     1      18.568  -0.135  33.994  1.00  0.00    -0.274 OA
HETATM   11  C18 UNK     1      18.350  -1.089  36.183  1.00  0.00     0.038 A 
HETATM   12  C16 UNK     1      18.530   0.929  33.098  1.00  0.00     0.304 A 
HETATM   13  O3  UNK     1      18.778   0.771  31.908  1.00  0.00    -0.259 OA
HETATM   14  C20 UNK     1      18.076  -0.951  37.542  1.00  0.00     0.003 A 
HETATM   15  C19 UNK     1      17.745   0.301  38.065  1.00  0.00     0.001 A 
ENDBRANCH   3   5
BRANCH   2  16
HETATM   16  C1  UNK     1      18.788   5.846  32.750  1.00  0.00     0.114 C 
HETATM   17  C5  UNK     1      18.848   5.665  31.234  1.00  0.00     0.037 C 
BRANCH  16  18
HETATM   18  C2  UNK     1      17.621   6.702  33.196  1.00  0.00    -0.029 A 
HETATM   19  C3  UNK     1      17.775   7.603  34.237  1.00  0.00    -0.054 A 
HETATM   20  C10 UNK     1      19.077   7.763  34.950  1.00  0.00     0.049 C 
HETATM   21  C7  UNK     1      16.687   8.382  34.631  1.00  0.00     0.008 A 
HETATM   22  C8  UNK     1      15.461   8.249  33.979  1.00  0.00     0.007 A 
HETATM   23  C6  UNK     1      15.324   7.338  32.932  1.00  0.00    -0.061 A 
HETATM   24  C12 UNK     1      14.013   7.196  32.236  1.00  0.00     0.048 C 
HETATM   25  C4  UNK     1      16.411   6.558  32.537  1.00  0.00     0.016 A 
ENDBRANCH  16  18
ENDBRANCH   2  16
TORSDOF 3
ENDMDL
MODEL 8
REMARK VINA RESULT:      -8.9     12.898     15.757
REMARK  3 active torsions:
REMARK  status: ('A' for Active; 'I' for Inactive)
REMARK    1  A    between atoms: C1_5  and  N1_4 
REMARK       I    between atoms: C9_13  and  N1_4 
REMARK    2  A    between atoms: C1_5  and  C2_6 
REMARK    3  A    between atoms: C11_15  and  C9_13 
ROOT
HETATM    1  O2  UNK     1      26.887  -8.903  39.749  1.00  0.00    -0.267 OA
HETATM    2  N1  UNK     1      27.058  -8.142  37.552  1.00  0.00    -0.348 N 
HETATM    3  C9  UNK     1      26.439  -8.294  38.779  1.00  0.00     0.258 C 
HETATM    4  H3  UNK     1      26.561  -7.671  36.802  1.00  0.00     0.163 HD
ENDROOT
BRANCH   3   5
HETATM    5  C11 UNK     1      25.130  -7.633  38.844  1.00  0.00     0.108 A 
HETATM    6  C14 UNK     1      24.070  -8.434  39.005  1.00  0.00     0.037 A 
HETATM    7  C13 UNK     1      22.731  -7.872  39.081  1.00  0.00    -0.001 A 
HETATM    8  C15 UNK     1      22.574  -6.493  38.983  1.00  0.00     0.089 A 
HETATM    9  C17 UNK     1      21.596  -8.669  39.249  1.00  0.00     0.014 A 
HETATM   10  O1  UNK     1      23.693  -5.655  38.813  1.00  0.00    -0.274 OA
HETATM   11  C18 UNK     1      21.318  -5.891  39.047  1.00  0.00     0.038 A 
HETATM   12  C16 UNK     1      24.986  -6.163  38.738  1.00  0.00     0.304 A 
HETATM   13  O3  UNK     1      25.955  -5.427  38.589  1.00  0.00    -0.259 OA
HETATM   14  C20 UNK     1      20.192  -6.695  39.215  1.00  0.00     0.003 A 
HETATM   15  C19 UNK     1      20.331  -8.081  39.315  1.00  0.00     0.001 A 
ENDBRANCH   3   5
BRANCH   2  16
HETATM   16  C1  UNK     1      28.355  -8.703  37.250  1.00  0.00     0.114 C 
HETATM   17  C5  UNK     1      28.409  -9.097  35.775  1.00  0.00     0.037 C 
BRANCH  16  18
HETATM   18  C2  UNK     1      29.448  -7.732  37.642  1.00  0.00    -0.029 A 
HETATM   19  C3  UNK     1      30.673  -8.202  38.087  1.00  0.00    -0.054 A 
HETATM   20  C10 UNK     1      30.960  -9.664  38.194  1.00  0.00     0.049 C 
HETATM   21  C7  UNK     1      31.666  -7.290  38.442  1.00  0.00     0.008 A 
HETATM   22  C8  UNK     1      31.421  -5.920  38.349  1.00  0.00     0.007 A 
HETATM   23  C6  UNK     1      30.182  -5.463  37.899  1.00  0.00    -0.061 A 
HETATM   24  C12 UNK     1      29.919  -3.998  37.800  1.00  0.00     0.048 C 
HETATM   25  C4  UNK     1      29.188  -6.375  37.543  1.00  0.00     0.016 A 
ENDBRANCH  16  18
ENDBRANCH   2  16
TORSDOF 3
ENDMDL
MODEL 9
REMARK VINA RESULT:      -8.8     22.593     24.767
REMARK  3 active torsions:
REMARK  status: ('A' for Active; 'I' for Inactive)
REMARK    1  A    between atoms: C1_5  and  N1_4 
REMARK       I    between atoms: C9_13  and  N1_4 
REMARK    2  A    between atoms: C1_5  and  C2_6 
REMARK    3  A    between atoms: C11_15  and  C9_13 
ROOT
HETATM    1  O2  UNK     1      11.101   7.391   6.502  1.00  0.00    -0.267 OA
HETATM    2  N1  UNK     1      10.164   6.510   8.447  1.00  0.00    -0.348 N 
HETATM    3  C9  UNK     1      11.205   6.887   7.619  1.00  0.00     0.258 C 
HETATM    4  H3  UNK     1      10.373   6.043   9.324  1.00  0.00     0.163 HD
ENDROOT
BRANCH   3   5
HETATM    5  C11 UNK     1      12.525   6.628   8.208  1.00  0.00     0.108 A 
HETATM    6  C14 UNK     1      13.251   7.706   8.529  1.00  0.00     0.037 A 
HETATM    7  C13 UNK     1      14.572   7.551   9.119  1.00  0.00    -0.001 A 
HETATM    8  C15 UNK     1      15.062   6.268   9.342  1.00  0.00     0.089 A 
HETATM    9  C17 UNK     1      15.365   8.646   9.469  1.00  0.00     0.014 A 
HETATM   10  O1  UNK     1      14.294   5.138   9.002  1.00  0.00    -0.274 OA
HETATM   11  C18 UNK     1      16.320   6.050   9.902  1.00  0.00     0.038 A 
HETATM   12  C16 UNK     1      13.027   5.254   8.437  1.00  0.00     0.304 A 
HETATM   13  O3  UNK     1      12.365   4.266   8.143  1.00  0.00    -0.259 OA
HETATM   14  C20 UNK     1      17.104   7.148  10.248  1.00  0.00     0.003 A 
HETATM   15  C19 UNK     1      16.627   8.444  10.033  1.00  0.00     0.001 A 
ENDBRANCH   3   5
BRANCH   2  16
HETATM   16  C1  UNK     1       8.774   6.668   8.085  1.00  0.00     0.114 C 
HETATM   17  C5  UNK     1       8.499   5.920   6.782  1.00  0.00     0.037 C 
BRANCH  16  18
HETATM   18  C2  UNK     1       7.883   6.218   9.224  1.00  0.00    -0.029 A 
HETATM   19  C3  UNK     1       7.525   7.108  10.223  1.00  0.00    -0.054 A 
HETATM   20  C10 UNK     1       7.997   8.526  10.217  1.00  0.00     0.049 C 
HETATM   21  C7  UNK     1       6.703   6.673  11.263  1.00  0.00     0.008 A 
HETATM   22  C8  UNK     1       6.251   5.354  11.289  1.00  0.00     0.007 A 
HETATM   23  C6  UNK     1       6.620   4.471  10.274  1.00  0.00    -0.061 A 
HETATM   24  C12 UNK     1       6.137   3.060  10.302  1.00  0.00     0.048 C 
HETATM   25  C4  UNK     1       7.442   4.905   9.234  1.00  0.00     0.016 A 
ENDBRANCH  16  18
ENDBRANCH   2  16
TORSDOF 3
ENDMDL
MODEL 10
REMARK VINA RESULT:      -8.8      1.422      2.677
REMARK  3 active torsions:
REMARK  status: ('A' for Active; 'I' for Inactive)
REMARK    1  A    between atoms: C1_5  and  N1_4 
REMARK       I    between atoms: C9_13  and  N1_4 
REMARK    2  A    between atoms: C1_5  and  C2_6 
REMARK    3  A    between atoms: C11_15  and  C9_13 
ROOT
HETATM    1  O2  UNK     1      17.509   2.546  33.650  1.00  0.00    -0.267 OA
HETATM    2  N1  UNK     1      18.745   4.232  32.617  1.00  0.00    -0.348 N 
HETATM    3  C9  UNK     1      18.255   2.947  32.757  1.00  0.00     0.258 C 
HETATM    4  H3  UNK     1      19.408   4.430  31.873  1.00  0.00     0.163 HD
ENDROOT
BRANCH   3   5
HETATM    5  C11 UNK     1      18.717   2.041  31.699  1.00  0.00     0.108 A 
HETATM    6  C14 UNK     1      19.099   0.819  32.091  1.00  0.00     0.037 A 
HETATM    7  C13 UNK     1      19.572  -0.149  31.114  1.00  0.00    -0.001 A 
HETATM    8  C15 UNK     1      19.619   0.216  29.773  1.00  0.00     0.089 A 
HETATM    9  C17 UNK     1      19.981  -1.435  31.477  1.00  0.00     0.014 A 
HETATM   10  O1  UNK     1      19.215   1.503  29.366  1.00  0.00    -0.274 OA
HETATM   11  C18 UNK     1      20.063  -0.664  28.788  1.00  0.00     0.038 A 
HETATM   12  C16 UNK     1      18.758   2.450  30.277  1.00  0.00     0.304 A 
HETATM   13  O3  UNK     1      18.409   3.569  29.915  1.00  0.00    -0.259 OA
HETATM   14  C20 UNK     1      20.468  -1.944  29.159  1.00  0.00     0.003 A 
HETATM   15  C19 UNK     1      20.428  -2.329  30.501  1.00  0.00     0.001 A 
ENDBRANCH   3   5
BRANCH   2  16
HETATM   16  C1  UNK     1      18.428   5.301  33.536  1.00  0.00     0.114 C 
HETATM   17  C5  UNK     1      19.721   5.941  34.038  1.00  0.00     0.037 C 
BRANCH  16  18
HETATM   18  C2  UNK     1      17.492   6.294  32.880  1.00  0.00    -0.029 A 
HETATM   19  C3  UNK     1      17.788   6.809  31.629  1.00  0.00    -0.054 A 
HETATM   20  C10 UNK     1      19.023   6.412  30.888  1.00  0.00     0.049 C 
HETATM   21  C7  UNK     1      16.911   7.722  31.042  1.00  0.00     0.008 A 
HETATM   22  C8  UNK     1      15.752   8.107  31.716  1.00  0.00     0.007 A 
HETATM   23  C6  UNK     1      15.469   7.578  32.975  1.00  0.00    -0.061 A 
HETATM   24  C12 UNK     1      14.229   7.990  33.695  1.00  0.00     0.048 C 
HETATM   25  C4  UNK     1      16.345   6.665  33.562  1.00  0.00     0.016 A 
ENDBRANCH  16  18
ENDBRANCH   2  16
TORSDOF 3
ENDMDL
