MODEL 1
REMARK VINA RESULT:     -10.1      0.000      0.000
REMARK  4 active torsions:
REMARK  status: ('A' for Active; 'I' for Inactive)
REMARK       I    between atoms: C11_15  and  N1_4 
REMARK    1  A    between atoms: C7_11  and  N1_4 
REMARK    2  A    between atoms: C1_5  and  C7_11 
REMARK    3  A    between atoms: C2_6  and  C8_12 
REMARK    4  A    between atoms: C11_15  and  C15_19 
ROOT
HETATM    1  O1  UNK     1      17.606  -1.339  35.691  1.00  0.00    -0.267 OA
HETATM    2  N1  UNK     1      19.848  -1.980  35.595  1.00  0.00    -0.356 N 
HETATM    3  C11 UNK     1      18.687  -1.389  35.114  1.00  0.00     0.257 C 
HETATM    4  H13 UNK     1      20.685  -1.990  35.022  1.00  0.00     0.162 HD
ENDROOT
BRANCH   2   5
HETATM    5  C7  UNK     1      19.929  -2.627  36.869  1.00  0.00     0.127 C 
BRANCH   5   6
HETATM    6  C1  UNK     1      20.134  -4.133  36.707  1.00  0.00     0.003 C 
HETATM    7  C3  UNK     1      18.788  -4.867  36.728  1.00  0.00     0.007 C 
HETATM    8  C5  UNK     1      18.968  -6.381  36.614  1.00  0.00     0.010 C 
HETATM    9  C2  UNK     1      19.904  -6.920  37.708  1.00  0.00     0.018 C 
HETATM   10  C6  UNK     1      21.255  -6.184  37.686  1.00  0.00     0.010 C 
HETATM   11  C4  UNK     1      21.069  -4.672  37.798  1.00  0.00     0.007 C 
BRANCH   9  12
HETATM   12  C8  UNK     1      20.079  -8.425  37.611  1.00  0.00    -0.054 A 
HETATM   13  C10 UNK     1      21.110  -8.956  36.839  1.00  0.00     0.007 A 
HETATM   14  C13 UNK     1      21.270 -10.338  36.750  1.00  0.00     0.001 A 
HETATM   15  C14 UNK     1      20.399 -11.187  37.433  1.00  0.00     0.000 A 
HETATM   16  C12 UNK     1      19.367 -10.652  38.205  1.00  0.00     0.001 A 
HETATM   17  C9  UNK     1      19.206  -9.270  38.294  1.00  0.00     0.007 A 
ENDBRANCH   9  12
ENDBRANCH   5   6
ENDBRANCH   2   5
BRANCH   3  18
HETATM   18  C15 UNK     1      18.855  -0.786  33.779  1.00  0.00     0.108 A 
HETATM   19  C16 UNK     1      19.434  -1.557  32.850  1.00  0.00     0.037 A 
HETATM   20  C18 UNK     1      19.643  -1.049  31.503  1.00  0.00    -0.001 A 
HETATM   21  C19 UNK     1      19.233   0.245  31.200  1.00  0.00     0.089 A 
HETATM   22  C20 UNK     1      20.243  -1.819  30.503  1.00  0.00     0.014 A 
HETATM   23  O2  UNK     1      18.624   1.050  32.181  1.00  0.00    -0.274 OA
HETATM   24  C21 UNK     1      19.404   0.790  29.930  1.00  0.00     0.038 A 
HETATM   25  C17 UNK     1      18.410   0.593  33.479  1.00  0.00     0.304 A 
HETATM   26  O3  UNK     1      17.880   1.302  34.327  1.00  0.00    -0.259 OA
HETATM   27  C23 UNK     1      20.003   0.017  28.938  1.00  0.00     0.003 A 
HETATM   28  C22 UNK     1      20.422  -1.285  29.223  1.00  0.00     0.001 A 
ENDBRANCH   3  18
TORSDOF 4
ENDMDL
MODEL 2
REMARK VINA RESULT:      -9.8      2.632      9.062
REMARK  4 active torsions:
REMARK  status: ('A' for Active; 'I' for Inactive)
REMARK       I    between atoms: C11_15  and  N1_4 
REMARK    1  A    between atoms: C7_11  and  N1_4 
REMARK    2  A    between atoms: C1_5  and  C7_11 
REMARK    3  A    between atoms: C2_6  and  C8_12 
REMARK    4  A    between atoms: C11_15  and  C15_19 
ROOT
HETATM    1  O1  UNK     1      21.127  -4.390  38.274  1.00  0.00    -0.267 OA
HETATM    2  N1  UNK     1      19.271  -4.099  36.890  1.00  0.00    -0.356 N 
HETATM    3  C11 UNK     1      20.251  -4.836  37.542  1.00  0.00     0.257 C 
HETATM    4  H13 UNK     1      18.607  -4.568  36.282  1.00  0.00     0.162 HD
ENDROOT
BRANCH   2   5
HETATM    5  C7  UNK     1      19.158  -2.677  36.997  1.00  0.00     0.127 C 
BRANCH   5   6
HETATM    6  C1  UNK     1      19.534  -1.997  35.681  1.00  0.00     0.003 C 
HETATM    7  C3  UNK     1      18.317  -1.291  35.070  1.00  0.00     0.007 C 
HETATM    8  C5  UNK     1      18.655  -0.642  33.728  1.00  0.00     0.010 C 
HETATM    9  C2  UNK     1      19.249  -1.662  32.743  1.00  0.00     0.018 C 
HETATM   10  C6  UNK     1      20.470  -2.370  33.355  1.00  0.00     0.010 C 
HETATM   11  C4  UNK     1      20.127  -3.015  34.697  1.00  0.00     0.007 C 
BRANCH   9  12
HETATM   12  C8  UNK     1      19.576  -1.030  31.403  1.00  0.00    -0.054 A 
HETATM   13  C10 UNK     1      20.229  -1.775  30.424  1.00  0.00     0.007 A 
HETATM   14  C13 UNK     1      20.530  -1.194  29.193  1.00  0.00     0.001 A 
HETATM   15  C14 UNK     1      20.177   0.132  28.943  1.00  0.00     0.000 A 
HETATM   16  C12 UNK     1      19.523   0.877  29.925  1.00  0.00     0.001 A 
HETATM   17  C9  UNK     1      19.223   0.296  31.156  1.00  0.00     0.007 A 
ENDBRANCH   9  12
ENDBRANCH   5   6
ENDBRANCH   2   5
BRANCH   3  18
HETATM   18  C15 UNK     1      20.158  -6.284  37.277  1.00  0.00     0.108 A 
HETATM   19  C16 UNK     1      21.310  -6.913  37.015  1.00  0.00     0.037 A 
HETATM   20  C18 UNK     1      21.320  -8.342  36.741  1.00  0.00    -0.001 A 
HETATM   21  C19 UNK     1      20.116  -9.038  36.756  1.00  0.00     0.089 A 
HETATM   22  C20 UNK     1      22.499  -9.038  36.463  1.00  0.00     0.014 A 
HETATM   23  O2  UNK     1      18.907  -8.371  37.033  1.00  0.00    -0.274 OA
HETATM   24  C21 UNK     1      20.057 -10.407  36.502  1.00  0.00     0.038 A 
HETATM   25  C17 UNK     1      18.865  -7.005  37.299  1.00  0.00     0.304 A 
HETATM   26  O3  UNK     1      17.808  -6.433  37.538  1.00  0.00    -0.259 OA
HETATM   27  C23 UNK     1      21.237 -11.093  36.226  1.00  0.00     0.003 A 
HETATM   28  C22 UNK     1      22.455 -10.411  36.206  1.00  0.00     0.001 A 
ENDBRANCH   3  18
TORSDOF 4
ENDMDL
MODEL 3
REMARK VINA RESULT:      -9.7      3.065      4.825
REMARK  4 active torsions:
REMARK  status: ('A' for Active; 'I' for Inactive)
REMARK       I    between atoms: C11_15  and  N1_4 
REMARK    1  A    between atoms: C7_11  and  N1_4 
REMARK    2  A    between atoms: C1_5  and  C7_11 
REMARK    3  A    between atoms: C2_6  and  C8_12 
REMARK    4  A    between atoms: C11_15  and  C15_19 
ROOT
HETATM    1  O1  UNK     1      20.383  -4.608  37.642  1.00  0.00    -0.267 OA
HETATM    2  N1  UNK     1      18.378  -5.099  36.554  1.00  0.00    -0.356 N 
HETATM    3  C11 UNK     1      19.413  -4.273  36.972  1.00  0.00     0.257 C 
HETATM    4  H13 UNK     1      17.606  -4.711  36.023  1.00  0.00     0.162 HD
ENDROOT
BRANCH   2   5
HETATM    5  C7  UNK     1      18.314  -6.494  36.865  1.00  0.00     0.127 C 
BRANCH   5   6
HETATM    6  C1  UNK     1      19.699  -7.136  36.793  1.00  0.00     0.003 C 
HETATM    7  C3  UNK     1      19.957  -7.707  35.392  1.00  0.00     0.007 C 
HETATM    8  C5  UNK     1      21.319  -8.396  35.305  1.00  0.00     0.010 C 
HETATM    9  C2  UNK     1      21.466  -9.488  36.378  1.00  0.00     0.018 C 
HETATM   10  C6  UNK     1      21.208  -8.915  37.783  1.00  0.00     0.010 C 
HETATM   11  C4  UNK     1      19.847  -8.225  37.864  1.00  0.00     0.007 C 
BRANCH   9  12
HETATM   12  C8  UNK     1      22.810 -10.187  36.292  1.00  0.00    -0.054 A 
HETATM   13  C10 UNK     1      22.887 -11.483  35.788  1.00  0.00     0.007 A 
HETATM   14  C13 UNK     1      24.122 -12.126  35.709  1.00  0.00     0.001 A 
HETATM   15  C14 UNK     1      25.278 -11.471  36.135  1.00  0.00     0.000 A 
HETATM   16  C12 UNK     1      25.198 -10.173  36.641  1.00  0.00     0.001 A 
HETATM   17  C9  UNK     1      23.963  -9.530  36.719  1.00  0.00     0.007 A 
ENDBRANCH   9  12
ENDBRANCH   5   6
ENDBRANCH   2   5
BRANCH   3  18
HETATM   18  C15 UNK     1      19.257  -2.877  36.523  1.00  0.00     0.108 A 
HETATM   19  C16 UNK     1      18.505  -2.087  37.299  1.00  0.00     0.037 A 
HETATM   20  C18 UNK     1      18.293  -0.693  36.938  1.00  0.00    -0.001 A 
HETATM   21  C19 UNK     1      18.881  -0.201  35.778  1.00  0.00     0.089 A 
HETATM   22  C20 UNK     1      17.516   0.167  37.719  1.00  0.00     0.014 A 
HETATM   23  O2  UNK     1      19.671  -1.037  34.966  1.00  0.00    -0.274 OA
HETATM   24  C21 UNK     1      18.716   1.123  35.376  1.00  0.00     0.038 A 
HETATM   25  C17 UNK     1      19.893  -2.374  35.284  1.00  0.00     0.304 A 
HETATM   26  O3  UNK     1      20.581  -3.095  34.570  1.00  0.00    -0.259 OA
HETATM   27  C23 UNK     1      17.940   1.974  36.160  1.00  0.00     0.003 A 
HETATM   28  C22 UNK     1      17.341   1.498  37.329  1.00  0.00     0.001 A 
ENDBRANCH   3  18
TORSDOF 4
ENDMDL
MODEL 4
REMARK VINA RESULT:      -9.6      4.625     11.322
REMARK  4 active torsions:
REMARK  status: ('A' for Active; 'I' for Inactive)
REMARK       I    between atoms: C11_15  and  N1_4 
REMARK    1  A    between atoms: C7_11  and  N1_4 
REMARK    2  A    between atoms: C1_5  and  C7_11 
REMARK    3  A    between atoms: C2_6  and  C8_12 
REMARK    4  A    between atoms: C11_15  and  C15_19 
ROOT
HETATM    1  O1  UNK     1      19.645  -0.524  30.132  1.00  0.00    -0.267 OA
HETATM    2  N1  UNK     1      18.705   1.167  31.437  1.00  0.00    -0.356 N 
HETATM    3  C11 UNK     1      19.290  -0.073  31.215  1.00  0.00     0.257 C 
HETATM    4  H13 UNK     1      18.423   1.432  32.375  1.00  0.00     0.162 HD
ENDROOT
BRANCH   2   5
HETATM    5  C7  UNK     1      18.432   2.104  30.390  1.00  0.00     0.127 C 
BRANCH   5   6
HETATM    6  C1  UNK     1      18.238   3.511  30.953  1.00  0.00     0.003 C 
HETATM    7  C3  UNK     1      19.334   4.454  30.439  1.00  0.00     0.007 C 
HETATM    8  C5  UNK     1      19.189   5.860  31.024  1.00  0.00     0.010 C 
HETATM    9  C2  UNK     1      19.168   5.829  32.561  1.00  0.00     0.018 C 
HETATM   10  C6  UNK     1      18.068   4.884  33.077  1.00  0.00     0.010 C 
HETATM   11  C4  UNK     1      18.216   3.482  32.487  1.00  0.00     0.007 C 
BRANCH   9  12
HETATM   12  C8  UNK     1      19.038   7.222  33.152  1.00  0.00    -0.054 A 
HETATM   13  C10 UNK     1      20.100   7.777  33.861  1.00  0.00     0.007 A 
HETATM   14  C13 UNK     1      19.981   9.056  34.404  1.00  0.00     0.001 A 
HETATM   15  C14 UNK     1      18.799   9.777  34.237  1.00  0.00     0.000 A 
HETATM   16  C12 UNK     1      17.735   9.218  33.527  1.00  0.00     0.001 A 
HETATM   17  C9  UNK     1      17.855   7.939  32.984  1.00  0.00     0.007 A 
ENDBRANCH   9  12
ENDBRANCH   5   6
ENDBRANCH   2   5
BRANCH   3  18
HETATM   18  C15 UNK     1      19.471  -0.857  32.451  1.00  0.00     0.108 A 
HETATM   19  C16 UNK     1      18.780  -0.443  33.521  1.00  0.00     0.037 A 
HETATM   20  C18 UNK     1      18.893  -1.153  34.786  1.00  0.00    -0.001 A 
HETATM   21  C19 UNK     1      19.728  -2.262  34.863  1.00  0.00     0.089 A 
HETATM   22  C20 UNK     1      18.191  -0.755  35.927  1.00  0.00     0.014 A 
HETATM   23  O2  UNK     1      20.451  -2.693  33.734  1.00  0.00    -0.274 OA
HETATM   24  C21 UNK     1      19.881  -2.985  36.044  1.00  0.00     0.038 A 
HETATM   25  C17 UNK     1      20.365  -2.035  32.510  1.00  0.00     0.304 A 
HETATM   26  O3  UNK     1      20.999  -2.417  31.533  1.00  0.00    -0.259 OA
HETATM   27  C23 UNK     1      19.177  -2.583  37.177  1.00  0.00     0.003 A 
HETATM   28  C22 UNK     1      18.334  -1.471  37.119  1.00  0.00     0.001 A 
ENDBRANCH   3  18
TORSDOF 4
ENDMDL
MODEL 5
REMARK VINA RESULT:      -9.5      1.588      2.121
REMARK  4 active torsions:
REMARK  status: ('A' for Active; 'I' for Inactive)
REMARK       I    between atoms: C11_15  and  N1_4 
REMARK    1  A    between atoms: C7_11  and  N1_4 
REMARK    2  A    between atoms: C1_5  and  C7_11 
REMARK    3  A    between atoms: C2_6  and  C8_12 
REMARK    4  A    between atoms: C11_15  and  C15_19 
ROOT
HETATM    1  O1  UNK     1      21.455  -2.391  35.343  1.00  0.00    -0.267 OA
HETATM    2  N1  UNK     1      19.244  -3.132  35.404  1.00  0.00    -0.356 N 
HETATM    3  C11 UNK     1      20.315  -2.410  34.894  1.00  0.00     0.257 C 
HETATM    4  H13 UNK     1      18.330  -3.055  34.969  1.00  0.00     0.162 HD
ENDROOT
BRANCH   2   5
HETATM    5  C7  UNK     1      19.342  -3.973  36.558  1.00  0.00     0.127 C 
BRANCH   5   6
HETATM    6  C1  UNK     1      20.294  -5.142  36.304  1.00  0.00     0.003 C 
HETATM    7  C3  UNK     1      19.673  -6.139  35.318  1.00  0.00     0.007 C 
HETATM    8  C5  UNK     1      20.586  -7.343  35.082  1.00  0.00     0.010 C 
HETATM    9  C2  UNK     1      20.956  -8.036  36.403  1.00  0.00     0.018 C 
HETATM   10  C6  UNK     1      21.580  -7.035  37.392  1.00  0.00     0.010 C 
HETATM   11  C4  UNK     1      20.664  -5.834  37.623  1.00  0.00     0.007 C 
BRANCH   9  12
HETATM   12  C8  UNK     1      21.852  -9.240  36.178  1.00  0.00    -0.054 A 
HETATM   13  C10 UNK     1      21.368 -10.345  35.482  1.00  0.00     0.007 A 
HETATM   14  C13 UNK     1      22.192 -11.452  35.276  1.00  0.00     0.001 A 
HETATM   15  C14 UNK     1      23.497 -11.451  35.767  1.00  0.00     0.000 A 
HETATM   16  C12 UNK     1      23.979 -10.343  36.464  1.00  0.00     0.001 A 
HETATM   17  C9  UNK     1      23.156  -9.236  36.671  1.00  0.00     0.007 A 
ENDBRANCH   9  12
ENDBRANCH   5   6
ENDBRANCH   2   5
BRANCH   3  18
HETATM   18  C15 UNK     1      19.965  -1.621  33.699  1.00  0.00     0.108 A 
HETATM   19  C16 UNK     1      20.560  -1.983  32.556  1.00  0.00     0.037 A 
HETATM   20  C18 UNK     1      20.278  -1.264  31.323  1.00  0.00    -0.001 A 
HETATM   21  C19 UNK     1      19.384  -0.199  31.354  1.00  0.00     0.089 A 
HETATM   22  C20 UNK     1      20.877  -1.607  30.108  1.00  0.00     0.014 A 
HETATM   23  O2  UNK     1      18.761   0.177  32.560  1.00  0.00    -0.274 OA
HETATM   24  C21 UNK     1      19.072   0.531  30.209  1.00  0.00     0.038 A 
HETATM   25  C17 UNK     1      19.010  -0.491  33.755  1.00  0.00     0.304 A 
HETATM   26  O3  UNK     1      18.463  -0.157  34.800  1.00  0.00    -0.259 OA
HETATM   27  C23 UNK     1      19.672   0.182  29.002  1.00  0.00     0.003 A 
HETATM   28  C22 UNK     1      20.573  -0.884  28.950  1.00  0.00     0.001 A 
ENDBRANCH   3  18
TORSDOF 4
ENDMDL
MODEL 6
REMARK VINA RESULT:      -9.5      1.313      2.299
REMARK  4 active torsions:
REMARK  status: ('A' for Active; 'I' for Inactive)
REMARK       I    between atoms: C11_15  and  N1_4 
REMARK    1  A    between atoms: C7_11  and  N1_4 
REMARK    2  A    between atoms: C1_5  and  C7_11 
REMARK    3  A    between atoms: C2_6  and  C8_12 
REMARK    4  A    between atoms: C11_15  and  C15_19 
ROOT
HETATM    1  O1  UNK     1      18.177  -1.091  35.346  1.00  0.00    -0.267 OA
HETATM    2  N1  UNK     1      20.132  -2.314  35.703  1.00  0.00    -0.356 N 
HETATM    3  C11 UNK     1      19.206  -1.618  34.938  1.00  0.00     0.257 C 
HETATM    4  H13 UNK     1      20.941  -2.736  35.258  1.00  0.00     0.162 HD
ENDROOT
BRANCH   2   5
HETATM    5  C7  UNK     1      19.995  -2.509  37.114  1.00  0.00     0.127 C 
BRANCH   5   6
HETATM    6  C1  UNK     1      19.889  -3.996  37.453  1.00  0.00     0.003 C 
HETATM    7  C3  UNK     1      21.283  -4.615  37.610  1.00  0.00     0.007 C 
HETATM    8  C5  UNK     1      21.206  -6.114  37.905  1.00  0.00     0.010 C 
HETATM    9  C2  UNK     1      20.393  -6.856  36.831  1.00  0.00     0.018 C 
HETATM   10  C6  UNK     1      18.994  -6.236  36.674  1.00  0.00     0.010 C 
HETATM   11  C4  UNK     1      19.078  -4.738  36.382  1.00  0.00     0.007 C 
BRANCH   9  12
HETATM   12  C8  UNK     1      20.321  -8.347  37.107  1.00  0.00    -0.054 A 
HETATM   13  C10 UNK     1      19.289  -8.860  37.888  1.00  0.00     0.007 A 
HETATM   14  C13 UNK     1      19.223 -10.230  38.142  1.00  0.00     0.001 A 
HETATM   15  C14 UNK     1      20.191 -11.084  37.614  1.00  0.00     0.000 A 
HETATM   16  C12 UNK     1      21.225 -10.568  36.832  1.00  0.00     0.001 A 
HETATM   17  C9  UNK     1      21.290  -9.198  36.578  1.00  0.00     0.007 A 
ENDBRANCH   9  12
ENDBRANCH   5   6
ENDBRANCH   2   5
BRANCH   3  18
HETATM   18  C15 UNK     1      19.570  -1.549  33.510  1.00  0.00     0.108 A 
HETATM   19  C16 UNK     1      19.116  -0.486  32.835  1.00  0.00     0.037 A 
HETATM   20  C18 UNK     1      19.423  -0.331  31.421  1.00  0.00    -0.001 A 
HETATM   21  C19 UNK     1      20.190  -1.303  30.788  1.00  0.00     0.089 A 
HETATM   22  C20 UNK     1      18.970   0.762  30.678  1.00  0.00     0.014 A 
HETATM   23  O2  UNK     1      20.665  -2.418  31.504  1.00  0.00    -0.274 OA
HETATM   24  C21 UNK     1      20.519  -1.213  29.437  1.00  0.00     0.038 A 
HETATM   25  C17 UNK     1      20.389  -2.595  32.857  1.00  0.00     0.304 A 
HETATM   26  O3  UNK     1      20.805  -3.570  33.472  1.00  0.00    -0.259 OA
HETATM   27  C23 UNK     1      20.064  -0.120  28.703  1.00  0.00     0.003 A 
HETATM   28  C22 UNK     1      19.291   0.866  29.321  1.00  0.00     0.001 A 
ENDBRANCH   3  18
TORSDOF 4
ENDMDL
MODEL 7
REMARK VINA RESULT:      -9.3     27.489     29.701
REMARK  4 active torsions:
REMARK  status: ('A' for Active; 'I' for Inactive)
REMARK       I    between atoms: C11_15  and  N1_4 
REMARK    1  A    between atoms: C7_11  and  N1_4 
REMARK    2  A    between atoms: C1_5  and  C7_11 
REMARK    3  A    between atoms: C2_6  and  C8_12 
REMARK    4  A    between atoms: C11_15  and  C15_19 
ROOT
HETATM    1  O1  UNK     1       7.404   7.216   7.382  1.00  0.00    -0.267 OA
HETATM    2  N1  UNK     1       9.232   5.824   7.787  1.00  0.00    -0.356 N 
HETATM    3  C11 UNK     1       7.997   6.392   8.069  1.00  0.00     0.257 C 
HETATM    4  H13 UNK     1       9.648   5.169   8.441  1.00  0.00     0.162 HD
ENDROOT
BRANCH   2   5
HETATM    5  C7  UNK     1       9.993   6.141   6.618  1.00  0.00     0.127 C 
BRANCH   5   6
HETATM    6  C1  UNK     1      11.405   6.594   6.989  1.00  0.00     0.003 C 
HETATM    7  C3  UNK     1      12.210   5.427   7.573  1.00  0.00     0.007 C 
HETATM    8  C5  UNK     1      13.613   5.864   7.996  1.00  0.00     0.010 C 
HETATM    9  C2  UNK     1      13.561   7.043   8.982  1.00  0.00     0.018 C 
HETATM   10  C6  UNK     1      12.754   8.214   8.395  1.00  0.00     0.010 C 
HETATM   11  C4  UNK     1      11.354   7.771   7.972  1.00  0.00     0.007 C 
BRANCH   9  12
HETATM   12  C8  UNK     1      14.949   7.477   9.418  1.00  0.00    -0.054 A 
HETATM   13  C10 UNK     1      15.888   6.521   9.797  1.00  0.00     0.007 A 
HETATM   14  C13 UNK     1      17.163   6.920  10.198  1.00  0.00     0.001 A 
HETATM   15  C14 UNK     1      17.496   8.274  10.219  1.00  0.00     0.000 A 
HETATM   16  C12 UNK     1      16.553   9.230   9.839  1.00  0.00     0.001 A 
HETATM   17  C9  UNK     1      15.278   8.831   9.438  1.00  0.00     0.007 A 
ENDBRANCH   9  12
ENDBRANCH   5   6
ENDBRANCH   2   5
BRANCH   3  18
HETATM   18  C15 UNK     1       7.409   5.904   9.331  1.00  0.00     0.108 A 
HETATM   19  C16 UNK     1       7.127   6.834  10.251  1.00  0.00     0.037 A 
HETATM   20  C18 UNK     1       6.545   6.449  11.528  1.00  0.00    -0.001 A 
HETATM   21  C19 UNK     1       6.290   5.104  11.773  1.00  0.00     0.089 A 
HETATM   22  C20 UNK     1       6.235   7.387  12.516  1.00  0.00     0.014 A 
HETATM   23  O2  UNK     1       6.589   4.131  10.801  1.00  0.00    -0.274 OA
HETATM   24  C21 UNK     1       5.735   4.670  12.975  1.00  0.00     0.038 A 
HETATM   25  C17 UNK     1       7.146   4.467   9.570  1.00  0.00     0.304 A 
HETATM   26  O3  UNK     1       7.404   3.612   8.730  1.00  0.00    -0.259 OA
HETATM   27  C23 UNK     1       5.428   5.610  13.955  1.00  0.00     0.003 A 
HETATM   28  C22 UNK     1       5.677   6.966  13.727  1.00  0.00     0.001 A 
ENDBRANCH   3  18
TORSDOF 4
ENDMDL
MODEL 8
REMARK VINA RESULT:      -9.3      2.266      9.519
REMARK  4 active torsions:
REMARK  status: ('A' for Active; 'I' for Inactive)
REMARK       I    between atoms: C11_15  and  N1_4 
REMARK    1  A    between atoms: C7_11  and  N1_4 
REMARK    2  A    between atoms: C1_5  and  C7_11 
REMARK    3  A    between atoms: C2_6  and  C8_12 
REMARK    4  A    between atoms: C11_15  and  C15_19 
ROOT
HETATM    1  O1  UNK     1      20.676  -2.923  37.613  1.00  0.00    -0.267 OA
HETATM    2  N1  UNK     1      18.526  -3.171  36.743  1.00  0.00    -0.356 N 
HETATM    3  C11 UNK     1      19.771  -3.617  37.165  1.00  0.00     0.257 C 
HETATM    4  H13 UNK     1      17.856  -3.831  36.361  1.00  0.00     0.162 HD
ENDROOT
BRANCH   2   5
HETATM    5  C7  UNK     1      18.131  -1.797  36.780  1.00  0.00     0.127 C 
BRANCH   5   6
HETATM    6  C1  UNK     1      17.976  -1.233  35.367  1.00  0.00     0.003 C 
HETATM    7  C3  UNK     1      19.090  -1.757  34.452  1.00  0.00     0.007 C 
HETATM    8  C5  UNK     1      18.986  -1.172  33.043  1.00  0.00     0.010 C 
HETATM    9  C2  UNK     1      18.977   0.365  33.072  1.00  0.00     0.018 C 
HETATM   10  C6  UNK     1      17.859   0.891  33.989  1.00  0.00     0.010 C 
HETATM   11  C4  UNK     1      17.967   0.301  35.395  1.00  0.00     0.007 C 
BRANCH   9  12
HETATM   12  C8  UNK     1      18.887   0.956  31.677  1.00  0.00    -0.054 A 
HETATM   13  C10 UNK     1      19.428   0.266  30.594  1.00  0.00     0.007 A 
HETATM   14  C13 UNK     1      19.345   0.810  29.313  1.00  0.00     0.001 A 
HETATM   15  C14 UNK     1      18.722   2.042  29.116  1.00  0.00     0.000 A 
HETATM   16  C12 UNK     1      18.182   2.731  30.203  1.00  0.00     0.001 A 
HETATM   17  C9  UNK     1      18.264   2.188  31.484  1.00  0.00     0.007 A 
ENDBRANCH   9  12
ENDBRANCH   5   6
ENDBRANCH   2   5
BRANCH   3  18
HETATM   18  C15 UNK     1      19.940  -5.076  37.032  1.00  0.00     0.108 A 
HETATM   19  C16 UNK     1      19.905  -5.782  38.169  1.00  0.00     0.037 A 
HETATM   20  C18 UNK     1      20.063  -7.228  38.139  1.00  0.00    -0.001 A 
HETATM   21  C19 UNK     1      20.250  -7.859  36.914  1.00  0.00     0.089 A 
HETATM   22  C20 UNK     1      20.034  -8.004  39.301  1.00  0.00     0.014 A 
HETATM   23  O2  UNK     1      20.284  -7.111  35.721  1.00  0.00    -0.274 OA
HETATM   24  C21 UNK     1      20.407  -9.240  36.816  1.00  0.00     0.038 A 
HETATM   25  C17 UNK     1      20.137  -5.727  35.717  1.00  0.00     0.304 A 
HETATM   26  O3  UNK     1      20.169  -5.084  34.674  1.00  0.00    -0.259 OA
HETATM   27  C23 UNK     1      20.377 -10.007  37.979  1.00  0.00     0.003 A 
HETATM   28  C22 UNK     1      20.191  -9.391  39.219  1.00  0.00     0.001 A 
ENDBRANCH   3  18
TORSDOF 4
ENDMDL
MODEL 9
REMARK VINA RESULT:      -9.1      7.254     13.579
REMARK  4 active torsions:
REMARK  status: ('A' for Active; 'I' for Inactive)
REMARK       I    between atoms: C11_15  and  N1_4 
REMARK    1  A    between atoms: C7_11  and  N1_4 
REMARK    2  A    between atoms: C1_5  and  C7_11 
REMARK    3  A    between atoms: C2_6  and  C8_12 
REMARK    4  A    between atoms: C11_15  and  C15_19 
ROOT
HETATM    1  O1  UNK     1      19.212   5.041  34.092  1.00  0.00    -0.267 OA
HETATM    2  N1  UNK     1      17.546   4.625  32.512  1.00  0.00    -0.356 N 
HETATM    3  C11 UNK     1      18.400   4.295  33.556  1.00  0.00     0.257 C 
HETATM    4  H13 UNK     1      16.930   3.919  32.122  1.00  0.00     0.162 HD
ENDROOT
BRANCH   2   5
HETATM    5  C7  UNK     1      17.507   5.922  31.911  1.00  0.00     0.127 C 
BRANCH   5   6
HETATM    6  C1  UNK     1      16.646   6.881  32.734  1.00  0.00     0.003 C 
HETATM    7  C3  UNK     1      15.265   7.055  32.090  1.00  0.00     0.007 C 
HETATM    8  C5  UNK     1      14.399   8.046  32.869  1.00  0.00     0.010 C 
HETATM    9  C2  UNK     1      15.104   9.402  33.030  1.00  0.00     0.018 C 
HETATM   10  C6  UNK     1      16.489   9.228  33.677  1.00  0.00     0.010 C 
HETATM   11  C4  UNK     1      17.349   8.235  32.896  1.00  0.00     0.007 C 
BRANCH   9  12
HETATM   12  C8  UNK     1      14.247  10.398  33.792  1.00  0.00    -0.054 A 
HETATM   13  C10 UNK     1      13.252  11.109  33.126  1.00  0.00     0.007 A 
HETATM   14  C13 UNK     1      12.465  12.023  33.825  1.00  0.00     0.001 A 
HETATM   15  C14 UNK     1      12.676  12.225  35.189  1.00  0.00     0.000 A 
HETATM   16  C12 UNK     1      13.674  11.512  35.854  1.00  0.00     0.001 A 
HETATM   17  C9  UNK     1      14.461  10.597  35.154  1.00  0.00     0.007 A 
ENDBRANCH   9  12
ENDBRANCH   5   6
ENDBRANCH   2   5
BRANCH   3  18
HETATM   18  C15 UNK     1      18.253   2.898  34.006  1.00  0.00     0.108 A 
HETATM   19  C16 UNK     1      18.153   2.710  35.328  1.00  0.00     0.037 A 
HETATM   20  C18 UNK     1      18.005   1.367  35.868  1.00  0.00    -0.001 A 
HETATM   21  C19 UNK     1      17.970   0.289  34.990  1.00  0.00     0.089 A 
HETATM   22  C20 UNK     1      17.898   1.125  37.240  1.00  0.00     0.014 A 
HETATM   23  O2  UNK     1      18.074   0.494  33.601  1.00  0.00    -0.274 OA
HETATM   24  C21 UNK     1      17.830  -1.021  35.442  1.00  0.00     0.038 A 
HETATM   25  C17 UNK     1      18.217   1.766  33.054  1.00  0.00     0.304 A 
HETATM   26  O3  UNK     1      18.308   1.934  31.843  1.00  0.00    -0.259 OA
HETATM   27  C23 UNK     1      17.723  -1.255  36.812  1.00  0.00     0.003 A 
HETATM   28  C22 UNK     1      17.757  -0.184  37.709  1.00  0.00     0.001 A 
ENDBRANCH   3  18
TORSDOF 4
ENDMDL
MODEL 10
REMARK VINA RESULT:      -9.1      3.665      5.569
REMARK  4 active torsions:
REMARK  status: ('A' for Active; 'I' for Inactive)
REMARK       I    between atoms: C11_15  and  N1_4 
REMARK    1  A    between atoms: C7_11  and  N1_4 
REMARK    2  A    between atoms: C1_5  and  C7_11 
REMARK    3  A    between atoms: C2_6  and  C8_12 
REMARK    4  A    between atoms: C11_15  and  C15_19 
ROOT
HETATM    1  O1  UNK     1      19.923  -5.290  35.522  1.00  0.00    -0.267 OA
HETATM    2  N1  UNK     1      20.013  -4.813  37.805  1.00  0.00    -0.356 N 
HETATM    3  C11 UNK     1      19.855  -4.504  36.461  1.00  0.00     0.257 C 
HETATM    4  H13 UNK     1      19.964  -4.078  38.502  1.00  0.00     0.162 HD
ENDROOT
BRANCH   2   5
HETATM    5  C7  UNK     1      20.284  -6.136  38.279  1.00  0.00     0.127 C 
BRANCH   5   6
HETATM    6  C1  UNK     1      21.736  -6.528  38.006  1.00  0.00     0.003 C 
HETATM    7  C3  UNK     1      21.831  -8.007  37.611  1.00  0.00     0.007 C 
HETATM    8  C5  UNK     1      23.279  -8.438  37.377  1.00  0.00     0.010 C 
HETATM    9  C2  UNK     1      24.159  -8.139  38.602  1.00  0.00     0.018 C 
HETATM   10  C6  UNK     1      24.065  -6.656  38.998  1.00  0.00     0.010 C 
HETATM   11  C4  UNK     1      22.616  -6.230  39.228  1.00  0.00     0.007 C 
BRANCH   9  12
HETATM   12  C8  UNK     1      25.597  -8.575  38.384  1.00  0.00    -0.054 A 
HETATM   13  C10 UNK     1      26.534  -8.412  39.402  1.00  0.00     0.007 A 
HETATM   14  C13 UNK     1      27.854  -8.812  39.202  1.00  0.00     0.001 A 
HETATM   15  C14 UNK     1      28.236  -9.375  37.984  1.00  0.00     0.000 A 
HETATM   16  C12 UNK     1      27.296  -9.536  36.966  1.00  0.00     0.001 A 
HETATM   17  C9  UNK     1      25.975  -9.136  37.166  1.00  0.00     0.007 A 
ENDBRANCH   9  12
ENDBRANCH   5   6
ENDBRANCH   2   5
BRANCH   3  18
HETATM   18  C15 UNK     1      19.580  -3.074  36.224  1.00  0.00     0.108 A 
HETATM   19  C16 UNK     1      18.823  -2.458  37.140  1.00  0.00     0.037 A 
HETATM   20  C18 UNK     1      18.497  -1.048  36.993  1.00  0.00    -0.001 A 
HETATM   21  C19 UNK     1      18.983  -0.356  35.889  1.00  0.00     0.089 A 
HETATM   22  C20 UNK     1      17.711  -0.365  37.925  1.00  0.00     0.014 A 
HETATM   23  O2  UNK     1      19.779  -1.010  34.929  1.00  0.00    -0.274 OA
HETATM   24  C21 UNK     1      18.707   0.995  35.689  1.00  0.00     0.038 A 
HETATM   25  C17 UNK     1      20.108  -2.358  35.041  1.00  0.00     0.304 A 
HETATM   26  O3  UNK     1      20.801  -2.919  34.199  1.00  0.00    -0.259 OA
HETATM   27  C23 UNK     1      17.923   1.668  36.623  1.00  0.00     0.003 A 
HETATM   28  C22 UNK     1      17.426   0.991  37.738  1.00  0.00     0.001 A 
ENDBRANCH   3  18
TORSDOF 4
ENDMDL
