MODEL 1
REMARK VINA RESULT:      -9.4      0.000      0.000
REMARK  4 active torsions:
REMARK  status: ('A' for Active; 'I' for Inactive)
REMARK    1  A    between atoms: C3_9  and  O1_1 
REMARK    2  A    between atoms: C8_14  and  O1_1 
REMARK       I    between atoms: C10_16  and  N1_5 
REMARK    3  A    between atoms: C12_18  and  N1_5 
REMARK    4  A    between atoms: C10_16  and  C8_14 
ROOT
HETATM    1  O1  UNK     1      19.549   4.356  30.716  1.00  0.00    -0.342 OA
ENDROOT
BRANCH   1   2
HETATM    2  C3  UNK     1      19.162   5.306  31.612  1.00  0.00     0.072 A 
HETATM    3  C4  UNK     1      17.809   5.503  31.879  1.00  0.00     0.075 A 
HETATM    4  C2  UNK     1      17.439   6.482  32.799  1.00  0.00     0.092 A 
HETATM    5  C1  UNK     1      18.383   7.264  33.457  1.00  0.00    -0.002 A 
HETATM    6  O2  UNK     1      16.062   6.657  33.048  1.00  0.00    -0.275 OA
HETATM    7  C5  UNK     1      19.738   7.060  33.183  1.00  0.00     0.017 A 
HETATM    8  C7  UNK     1      17.926   8.267  34.404  1.00  0.00     0.020 A 
HETATM    9  C6  UNK     1      20.124   6.082  32.262  1.00  0.00     0.038 A 
HETATM   10  C9  UNK     1      16.621   8.427  34.635  1.00  0.00     0.083 A 
HETATM   11  C11 UNK     1      15.601   7.610  33.951  1.00  0.00     0.288 A 
HETATM   12  O4  UNK     1      14.406   7.769  34.174  1.00  0.00    -0.260 OA
ENDBRANCH   1   2
BRANCH   1  13
HETATM   13  C8  UNK     1      18.595   3.968  29.729  1.00  0.00     0.278 C 
BRANCH  13  14
HETATM   14  C10 UNK     1      18.460   2.461  29.747  1.00  0.00     0.247 C 
HETATM   15  O3  UNK     1      17.439   1.922  29.328  1.00  0.00    -0.271 OA
HETATM   16  N1  UNK     1      19.594   1.852  30.268  1.00  0.00    -0.310 N 
HETATM   17  H8  UNK     1      20.361   2.447  30.573  1.00  0.00     0.170 HD
BRANCH  16  18
HETATM   18  C12 UNK     1      19.831   0.467  30.431  1.00  0.00     0.129 A 
HETATM   19  N2  UNK     1      19.586  -0.077  31.637  1.00  0.00    -0.243 NA
HETATM   20  C16 UNK     1      19.826  -1.403  31.744  1.00  0.00     0.119 A 
HETATM   21  C15 UNK     1      20.295  -2.193  30.707  1.00  0.00     0.019 A 
HETATM   22  C14 UNK     1      20.533  -1.582  29.480  1.00  0.00     0.005 A 
HETATM   23  C13 UNK     1      20.297  -0.220  29.330  1.00  0.00     0.050 A 
ENDBRANCH  16  18
ENDBRANCH  13  14
ENDBRANCH   1  13
TORSDOF 4
ENDMDL
MODEL 2
REMARK VINA RESULT:      -9.1      1.149      1.237
REMARK  4 active torsions:
REMARK  status: ('A' for Active; 'I' for Inactive)
REMARK    1  A    between atoms: C3_9  and  O1_1 
REMARK    2  A    between atoms: C8_14  and  O1_1 
REMARK       I    between atoms: C10_16  and  N1_5 
REMARK    3  A    between atoms: C12_18  and  N1_5 
REMARK    4  A    between atoms: C10_16  and  C8_14 
ROOT
HETATM    1  O1  UNK     1      17.837   4.207  31.714  1.00  0.00    -0.342 OA
ENDROOT
BRANCH   1   2
HETATM    2  C3  UNK     1      18.007   5.447  32.251  1.00  0.00     0.072 A 
HETATM    3  C4  UNK     1      16.921   6.312  32.367  1.00  0.00     0.075 A 
HETATM    4  C2  UNK     1      17.121   7.575  32.920  1.00  0.00     0.092 A 
HETATM    5  C1  UNK     1      18.374   7.993  33.359  1.00  0.00    -0.002 A 
HETATM    6  O2  UNK     1      16.003   8.427  33.024  1.00  0.00    -0.275 OA
HETATM    7  C5  UNK     1      19.457   7.119  33.240  1.00  0.00     0.017 A 
HETATM    8  C7  UNK     1      18.510   9.324  33.926  1.00  0.00     0.020 A 
HETATM    9  C6  UNK     1      19.272   5.849  32.687  1.00  0.00     0.038 A 
HETATM   10  C9  UNK     1      17.446  10.126  34.021  1.00  0.00     0.083 A 
HETATM   11  C11 UNK     1      16.109   9.706  33.563  1.00  0.00     0.288 A 
HETATM   12  O4  UNK     1      15.141  10.453  33.657  1.00  0.00    -0.260 OA
ENDBRANCH   1   2
BRANCH   1  13
HETATM   13  C8  UNK     1      18.594   3.898  30.545  1.00  0.00     0.278 C 
BRANCH  13  14
HETATM   14  C10 UNK     1      18.494   2.412  30.277  1.00  0.00     0.247 C 
HETATM   15  O3  UNK     1      17.503   1.944  29.723  1.00  0.00    -0.271 OA
HETATM   16  N1  UNK     1      19.622   1.735  30.722  1.00  0.00    -0.310 N 
HETATM   17  H8  UNK     1      20.363   2.275  31.164  1.00  0.00     0.170 HD
BRANCH  16  18
HETATM   18  C12 UNK     1      19.884   0.347  30.636  1.00  0.00     0.129 A 
HETATM   19  N2  UNK     1      19.696  -0.400  31.737  1.00  0.00    -0.243 NA
HETATM   20  C16 UNK     1      19.959  -1.719  31.606  1.00  0.00     0.119 A 
HETATM   21  C15 UNK     1      20.398  -2.310  30.431  1.00  0.00     0.019 A 
HETATM   22  C14 UNK     1      20.577  -1.493  29.321  1.00  0.00     0.005 A 
HETATM   23  C13 UNK     1      20.317  -0.130  29.416  1.00  0.00     0.050 A 
ENDBRANCH  16  18
ENDBRANCH  13  14
ENDBRANCH   1  13
TORSDOF 4
ENDMDL
MODEL 3
REMARK VINA RESULT:      -9.1      1.914      2.508
REMARK  4 active torsions:
REMARK  status: ('A' for Active; 'I' for Inactive)
REMARK    1  A    between atoms: C3_9  and  O1_1 
REMARK    2  A    between atoms: C8_14  and  O1_1 
REMARK       I    between atoms: C10_16  and  N1_5 
REMARK    3  A    between atoms: C12_18  and  N1_5 
REMARK    4  A    between atoms: C10_16  and  C8_14 
ROOT
HETATM    1  O1  UNK     1      17.851   4.153  31.905  1.00  0.00    -0.342 OA
ENDROOT
BRANCH   1   2
HETATM    2  C3  UNK     1      17.808   5.443  32.337  1.00  0.00     0.072 A 
HETATM    3  C4  UNK     1      18.951   6.040  32.866  1.00  0.00     0.075 A 
HETATM    4  C2  UNK     1      18.881   7.362  33.301  1.00  0.00     0.092 A 
HETATM    5  C1  UNK     1      17.703   8.099  33.221  1.00  0.00    -0.002 A 
HETATM    6  O2  UNK     1      20.053   7.939  33.831  1.00  0.00    -0.275 OA
HETATM    7  C5  UNK     1      16.562   7.493  32.689  1.00  0.00     0.017 A 
HETATM    8  C7  UNK     1      17.702   9.474  33.694  1.00  0.00     0.020 A 
HETATM    9  C6  UNK     1      16.617   6.168  32.249  1.00  0.00     0.038 A 
HETATM   10  C9  UNK     1      18.816  10.012  34.194  1.00  0.00     0.083 A 
HETATM   11  C11 UNK     1      20.076   9.253  34.289  1.00  0.00     0.288 A 
HETATM   12  O4  UNK     1      21.092   9.761  34.751  1.00  0.00    -0.260 OA
ENDBRANCH   1   2
BRANCH   1  13
HETATM   13  C8  UNK     1      18.550   3.899  30.687  1.00  0.00     0.278 C 
BRANCH  13  14
HETATM   14  C10 UNK     1      18.461   2.422  30.372  1.00  0.00     0.247 C 
HETATM   15  O3  UNK     1      17.476   1.965  29.800  1.00  0.00    -0.271 OA
HETATM   16  N1  UNK     1      19.592   1.739  30.801  1.00  0.00    -0.310 N 
HETATM   17  H8  UNK     1      20.327   2.269  31.263  1.00  0.00     0.170 HD
BRANCH  16  18
HETATM   18  C12 UNK     1      19.865   0.357  30.672  1.00  0.00     0.129 A 
HETATM   19  N2  UNK     1      19.684  -0.425  31.750  1.00  0.00    -0.243 NA
HETATM   20  C16 UNK     1      19.957  -1.738  31.578  1.00  0.00     0.119 A 
HETATM   21  C15 UNK     1      20.398  -2.289  30.385  1.00  0.00     0.019 A 
HETATM   22  C14 UNK     1      20.568  -1.437  29.300  1.00  0.00     0.005 A 
HETATM   23  C13 UNK     1      20.298  -0.080  29.437  1.00  0.00     0.050 A 
ENDBRANCH  16  18
ENDBRANCH  13  14
ENDBRANCH   1  13
TORSDOF 4
ENDMDL
MODEL 4
REMARK VINA RESULT:      -8.9      2.763      8.406
REMARK  4 active torsions:
REMARK  status: ('A' for Active; 'I' for Inactive)
REMARK    1  A    between atoms: C3_9  and  O1_1 
REMARK    2  A    between atoms: C8_14  and  O1_1 
REMARK       I    between atoms: C10_16  and  N1_5 
REMARK    3  A    between atoms: C12_18  and  N1_5 
REMARK    4  A    between atoms: C10_16  and  C8_14 
ROOT
HETATM    1  O1  UNK     1      18.163   2.725  30.254  1.00  0.00    -0.342 OA
ENDROOT
BRANCH   1   2
HETATM    2  C3  UNK     1      18.770   1.509  30.181  1.00  0.00     0.072 A 
HETATM    3  C4  UNK     1      19.079   0.813  31.347  1.00  0.00     0.075 A 
HETATM    4  C2  UNK     1      19.701  -0.430  31.246  1.00  0.00     0.092 A 
HETATM    5  C1  UNK     1      20.018  -0.993  30.013  1.00  0.00    -0.002 A 
HETATM    6  O2  UNK     1      20.001  -1.111  32.444  1.00  0.00    -0.275 OA
HETATM    7  C5  UNK     1      19.705  -0.288  28.849  1.00  0.00     0.017 A 
HETATM    8  C7  UNK     1      20.666  -2.294  29.982  1.00  0.00     0.020 A 
HETATM    9  C6  UNK     1      19.081   0.960  28.935  1.00  0.00     0.038 A 
HETATM   10  C9  UNK     1      20.947  -2.931  31.120  1.00  0.00     0.083 A 
HETATM   11  C11 UNK     1      20.620  -2.357  32.438  1.00  0.00     0.288 A 
HETATM   12  O4  UNK     1      20.884  -2.955  33.476  1.00  0.00    -0.260 OA
ENDBRANCH   1   2
BRANCH   1  13
HETATM   13  C8  UNK     1      19.008   3.864  30.414  1.00  0.00     0.278 C 
BRANCH  13  14
HETATM   14  C10 UNK     1      18.505   4.685  31.581  1.00  0.00     0.247 C 
HETATM   15  O3  UNK     1      17.728   4.197  32.397  1.00  0.00    -0.271 OA
HETATM   16  N1  UNK     1      19.036   5.968  31.569  1.00  0.00    -0.310 N 
HETATM   17  H8  UNK     1      19.672   6.218  30.817  1.00  0.00     0.170 HD
BRANCH  16  18
HETATM   18  C12 UNK     1      18.800   7.006  32.502  1.00  0.00     0.129 A 
HETATM   19  N2  UNK     1      17.649   7.695  32.400  1.00  0.00    -0.243 NA
HETATM   20  C16 UNK     1      17.469   8.676  33.312  1.00  0.00     0.119 A 
HETATM   21  C15 UNK     1      18.382   8.990  34.306  1.00  0.00     0.019 A 
HETATM   22  C14 UNK     1      19.556   8.247  34.368  1.00  0.00     0.005 A 
HETATM   23  C13 UNK     1      19.778   7.229  33.447  1.00  0.00     0.050 A 
ENDBRANCH  16  18
ENDBRANCH  13  14
ENDBRANCH   1  13
TORSDOF 4
ENDMDL
MODEL 5
REMARK VINA RESULT:      -8.9      7.551     11.858
REMARK  4 active torsions:
REMARK  status: ('A' for Active; 'I' for Inactive)
REMARK    1  A    between atoms: C3_9  and  O1_1 
REMARK    2  A    between atoms: C8_14  and  O1_1 
REMARK       I    between atoms: C10_16  and  N1_5 
REMARK    3  A    between atoms: C12_18  and  N1_5 
REMARK    4  A    between atoms: C10_16  and  C8_14 
ROOT
HETATM    1  O1  UNK     1      20.141  -4.576  35.012  1.00  0.00    -0.342 OA
ENDROOT
BRANCH   1   2
HETATM    2  C3  UNK     1      20.122  -5.437  36.067  1.00  0.00     0.072 A 
HETATM    3  C4  UNK     1      19.861  -6.790  35.858  1.00  0.00     0.075 A 
HETATM    4  C2  UNK     1      19.846  -7.650  36.954  1.00  0.00     0.092 A 
HETATM    5  C1  UNK     1      20.086  -7.195  38.247  1.00  0.00    -0.002 A 
HETATM    6  O2  UNK     1      19.580  -9.013  36.711  1.00  0.00    -0.275 OA
HETATM    7  C5  UNK     1      20.347  -5.837  38.447  1.00  0.00     0.017 A 
HETATM    8  C7  UNK     1      20.055  -8.148  39.344  1.00  0.00     0.020 A 
HETATM    9  C6  UNK     1      20.364  -4.962  37.358  1.00  0.00     0.038 A 
HETATM   10  C9  UNK     1      19.802  -9.437  39.106  1.00  0.00     0.083 A 
HETATM   11  C11 UNK     1      19.546  -9.944  37.745  1.00  0.00     0.288 A 
HETATM   12  O4  UNK     1      19.315 -11.131  37.542  1.00  0.00    -0.260 OA
ENDBRANCH   1   2
BRANCH   1  13
HETATM   13  C8  UNK     1      20.073  -3.182  35.311  1.00  0.00     0.278 C 
BRANCH  13  14
HETATM   14  C10 UNK     1      20.639  -2.405  34.143  1.00  0.00     0.247 C 
HETATM   15  O3  UNK     1      21.833  -2.124  34.101  1.00  0.00    -0.271 OA
HETATM   16  N1  UNK     1      19.657  -2.099  33.209  1.00  0.00    -0.310 N 
HETATM   17  H8  UNK     1      18.706  -2.407  33.394  1.00  0.00     0.170 HD
BRANCH  16  18
HETATM   18  C12 UNK     1      19.815  -1.393  31.993  1.00  0.00     0.129 A 
HETATM   19  N2  UNK     1      19.501  -0.085  31.978  1.00  0.00    -0.243 NA
HETATM   20  C16 UNK     1      19.668   0.546  30.794  1.00  0.00     0.119 A 
HETATM   21  C15 UNK     1      20.130  -0.072  29.643  1.00  0.00     0.019 A 
HETATM   22  C14 UNK     1      20.441  -1.426  29.713  1.00  0.00     0.005 A 
HETATM   23  C13 UNK     1      20.283  -2.111  30.913  1.00  0.00     0.050 A 
ENDBRANCH  16  18
ENDBRANCH  13  14
ENDBRANCH   1  13
TORSDOF 4
ENDMDL
MODEL 6
REMARK VINA RESULT:      -8.8      7.236     12.044
REMARK  4 active torsions:
REMARK  status: ('A' for Active; 'I' for Inactive)
REMARK    1  A    between atoms: C3_9  and  O1_1 
REMARK    2  A    between atoms: C8_14  and  O1_1 
REMARK       I    between atoms: C10_16  and  N1_5 
REMARK    3  A    between atoms: C12_18  and  N1_5 
REMARK    4  A    between atoms: C10_16  and  C8_14 
ROOT
HETATM    1  O1  UNK     1      19.331  -4.170  36.389  1.00  0.00    -0.342 OA
ENDROOT
BRANCH   1   2
HETATM    2  C3  UNK     1      20.080  -5.285  36.610  1.00  0.00     0.072 A 
HETATM    3  C4  UNK     1      20.130  -6.294  35.650  1.00  0.00     0.075 A 
HETATM    4  C2  UNK     1      20.904  -7.425  35.900  1.00  0.00     0.092 A 
HETATM    5  C1  UNK     1      21.627  -7.572  37.080  1.00  0.00    -0.002 A 
HETATM    6  O2  UNK     1      20.934  -8.429  34.910  1.00  0.00    -0.275 OA
HETATM    7  C5  UNK     1      21.572  -6.556  38.037  1.00  0.00     0.017 A 
HETATM    8  C7  UNK     1      22.414  -8.779  37.275  1.00  0.00     0.020 A 
HETATM    9  C6  UNK     1      20.800  -5.416  37.800  1.00  0.00     0.038 A 
HETATM   10  C9  UNK     1      22.437  -9.724  36.333  1.00  0.00     0.083 A 
HETATM   11  C11 UNK     1      21.680  -9.592  35.074  1.00  0.00     0.288 A 
HETATM   12  O4  UNK     1      21.712 -10.469  34.218  1.00  0.00    -0.260 OA
ENDBRANCH   1   2
BRANCH   1  13
HETATM   13  C8  UNK     1      19.924  -2.914  36.716  1.00  0.00     0.278 C 
BRANCH  13  14
HETATM   14  C10 UNK     1      20.488  -2.298  35.455  1.00  0.00     0.247 C 
HETATM   15  O3  UNK     1      21.653  -1.913  35.417  1.00  0.00    -0.271 OA
HETATM   16  N1  UNK     1      19.542  -2.254  34.439  1.00  0.00    -0.310 N 
HETATM   17  H8  UNK     1      18.612  -2.618  34.633  1.00  0.00     0.170 HD
BRANCH  16  18
HETATM   18  C12 UNK     1      19.710  -1.756  33.125  1.00  0.00     0.129 A 
HETATM   19  N2  UNK     1      19.120  -0.589  32.813  1.00  0.00    -0.243 NA
HETATM   20  C16 UNK     1      19.310  -0.154  31.548  1.00  0.00     0.119 A 
HETATM   21  C15 UNK     1      20.055  -0.833  30.597  1.00  0.00     0.019 A 
HETATM   22  C14 UNK     1      20.644  -2.036  30.970  1.00  0.00     0.005 A 
HETATM   23  C13 UNK     1      20.472  -2.517  32.264  1.00  0.00     0.050 A 
ENDBRANCH  16  18
ENDBRANCH  13  14
ENDBRANCH   1  13
TORSDOF 4
ENDMDL
MODEL 7
REMARK VINA RESULT:      -8.6      2.091      3.461
REMARK  4 active torsions:
REMARK  status: ('A' for Active; 'I' for Inactive)
REMARK    1  A    between atoms: C3_9  and  O1_1 
REMARK    2  A    between atoms: C8_14  and  O1_1 
REMARK       I    between atoms: C10_16  and  N1_5 
REMARK    3  A    between atoms: C12_18  and  N1_5 
REMARK    4  A    between atoms: C10_16  and  C8_14 
ROOT
HETATM    1  O1  UNK     1      17.962   1.528  30.034  1.00  0.00    -0.342 OA
ENDROOT
BRANCH   1   2
HETATM    2  C3  UNK     1      18.221   2.809  30.416  1.00  0.00     0.072 A 
HETATM    3  C4  UNK     1      17.727   3.289  31.628  1.00  0.00     0.075 A 
HETATM    4  C2  UNK     1      18.007   4.603  31.997  1.00  0.00     0.092 A 
HETATM    5  C1  UNK     1      18.765   5.446  31.189  1.00  0.00    -0.002 A 
HETATM    6  O2  UNK     1      17.493   5.060  33.227  1.00  0.00    -0.275 OA
HETATM    7  C5  UNK     1      19.257   4.956  29.977  1.00  0.00     0.017 A 
HETATM    8  C7  UNK     1      19.018   6.805  31.636  1.00  0.00     0.020 A 
HETATM    9  C6  UNK     1      18.985   3.640  29.593  1.00  0.00     0.038 A 
HETATM   10  C9  UNK     1      18.528   7.230  32.803  1.00  0.00     0.083 A 
HETATM   11  C11 UNK     1      17.723   6.357  33.677  1.00  0.00     0.288 A 
HETATM   12  O4  UNK     1      17.280   6.761  34.746  1.00  0.00    -0.260 OA
ENDBRANCH   1   2
BRANCH   1  13
HETATM   13  C8  UNK     1      19.078   0.726  29.651  1.00  0.00     0.278 C 
BRANCH  13  14
HETATM   14  C10 UNK     1      19.726   0.165  30.897  1.00  0.00     0.247 C 
HETATM   15  O3  UNK     1      20.944   0.219  31.044  1.00  0.00    -0.271 OA
HETATM   16  N1  UNK     1      18.784  -0.367  31.768  1.00  0.00    -0.310 N 
HETATM   17  H8  UNK     1      17.805  -0.333  31.496  1.00  0.00     0.170 HD
BRANCH  16  18
HETATM   18  C12 UNK     1      19.018  -0.968  33.028  1.00  0.00     0.129 A 
HETATM   19  N2  UNK     1      19.960  -1.924  33.105  1.00  0.00    -0.243 NA
HETATM   20  C16 UNK     1      20.148  -2.467  34.328  1.00  0.00     0.119 A 
HETATM   21  C15 UNK     1      19.439  -2.096  35.460  1.00  0.00     0.019 A 
HETATM   22  C14 UNK     1      18.476  -1.102  35.326  1.00  0.00     0.005 A 
HETATM   23  C13 UNK     1      18.254  -0.518  34.084  1.00  0.00     0.050 A 
ENDBRANCH  16  18
ENDBRANCH  13  14
ENDBRANCH   1  13
TORSDOF 4
ENDMDL
MODEL 8
REMARK VINA RESULT:      -8.5      5.289      8.698
REMARK  4 active torsions:
REMARK  status: ('A' for Active; 'I' for Inactive)
REMARK    1  A    between atoms: C3_9  and  O1_1 
REMARK    2  A    between atoms: C8_14  and  O1_1 
REMARK       I    between atoms: C10_16  and  N1_5 
REMARK    3  A    between atoms: C12_18  and  N1_5 
REMARK    4  A    between atoms: C10_16  and  C8_14 
ROOT
HETATM    1  O1  UNK     1      20.515  -2.947  33.728  1.00  0.00    -0.342 OA
ENDROOT
BRANCH   1   2
HETATM    2  C3  UNK     1      20.342  -2.318  32.533  1.00  0.00     0.072 A 
HETATM    3  C4  UNK     1      19.607  -1.136  32.467  1.00  0.00     0.075 A 
HETATM    4  C2  UNK     1      19.445  -0.511  31.232  1.00  0.00     0.092 A 
HETATM    5  C1  UNK     1      19.997  -1.035  30.067  1.00  0.00    -0.002 A 
HETATM    6  O2  UNK     1      18.696   0.683  31.197  1.00  0.00    -0.275 OA
HETATM    7  C5  UNK     1      20.732  -2.220  30.142  1.00  0.00     0.017 A 
HETATM    8  C7  UNK     1      19.787  -0.331  28.813  1.00  0.00     0.020 A 
HETATM    9  C6  UNK     1      20.904  -2.858  31.374  1.00  0.00     0.038 A 
HETATM   10  C9  UNK     1      19.078   0.799  28.788  1.00  0.00     0.083 A 
HETATM   11  C11 UNK     1      18.483   1.375  30.009  1.00  0.00     0.288 A 
HETATM   12  O4  UNK     1      17.834   2.415  29.971  1.00  0.00    -0.260 OA
ENDBRANCH   1   2
BRANCH   1  13
HETATM   13  C8  UNK     1      20.011  -2.287  34.888  1.00  0.00     0.278 C 
BRANCH  13  14
HETATM   14  C10 UNK     1      20.065  -3.245  36.058  1.00  0.00     0.247 C 
HETATM   15  O3  UNK     1      20.265  -2.829  37.195  1.00  0.00    -0.271 OA
HETATM   16  N1  UNK     1      19.859  -4.558  35.653  1.00  0.00    -0.310 N 
HETATM   17  H8  UNK     1      19.704  -4.737  34.664  1.00  0.00     0.170 HD
BRANCH  16  18
HETATM   18  C12 UNK     1      19.832  -5.716  36.466  1.00  0.00     0.129 A 
HETATM   19  N2  UNK     1      21.007  -6.257  36.830  1.00  0.00    -0.243 NA
HETATM   20  C16 UNK     1      20.931  -7.361  37.606  1.00  0.00     0.119 A 
HETATM   21  C15 UNK     1      19.741  -7.936  38.025  1.00  0.00     0.019 A 
HETATM   22  C14 UNK     1      18.553  -7.336  37.620  1.00  0.00     0.005 A 
HETATM   23  C13 UNK     1      18.590  -6.199  36.822  1.00  0.00     0.050 A 
ENDBRANCH  16  18
ENDBRANCH  13  14
ENDBRANCH   1  13
TORSDOF 4
ENDMDL
MODEL 9
REMARK VINA RESULT:      -8.5      7.585     11.563
REMARK  4 active torsions:
REMARK  status: ('A' for Active; 'I' for Inactive)
REMARK    1  A    between atoms: C3_9  and  O1_1 
REMARK    2  A    between atoms: C8_14  and  O1_1 
REMARK       I    between atoms: C10_16  and  N1_5 
REMARK    3  A    between atoms: C12_18  and  N1_5 
REMARK    4  A    between atoms: C10_16  and  C8_14 
ROOT
HETATM    1  O1  UNK     1      20.551  -3.106  36.530  1.00  0.00    -0.342 OA
ENDROOT
BRANCH   1   2
HETATM    2  C3  UNK     1      20.299  -4.356  37.008  1.00  0.00     0.072 A 
HETATM    3  C4  UNK     1      21.226  -4.987  37.835  1.00  0.00     0.075 A 
HETATM    4  C2  UNK     1      20.944  -6.266  38.311  1.00  0.00     0.092 A 
HETATM    5  C1  UNK     1      19.764  -6.927  37.983  1.00  0.00    -0.002 A 
HETATM    6  O2  UNK     1      21.901  -6.878  39.146  1.00  0.00    -0.275 OA
HETATM    7  C5  UNK     1      18.841  -6.287  37.153  1.00  0.00     0.017 A 
HETATM    8  C7  UNK     1      19.536  -8.260  38.515  1.00  0.00     0.020 A 
HETATM    9  C6  UNK     1      19.109  -5.004  36.668  1.00  0.00     0.038 A 
HETATM   10  C9  UNK     1      20.447  -8.833  39.305  1.00  0.00     0.083 A 
HETATM   11  C11 UNK     1      21.704  -8.153  39.668  1.00  0.00     0.288 A 
HETATM   12  O4  UNK     1      22.531  -8.692  40.395  1.00  0.00    -0.260 OA
ENDBRANCH   1   2
BRANCH   1  13
HETATM   13  C8  UNK     1      19.598  -2.553  35.624  1.00  0.00     0.278 C 
BRANCH  13  14
HETATM   14  C10 UNK     1      20.313  -2.133  34.359  1.00  0.00     0.247 C 
HETATM   15  O3  UNK     1      21.539  -2.148  34.302  1.00  0.00    -0.271 OA
HETATM   16  N1  UNK     1      19.417  -1.768  33.362  1.00  0.00    -0.310 N 
HETATM   17  H8  UNK     1      18.422  -1.812  33.571  1.00  0.00     0.170 HD
BRANCH  16  18
HETATM   18  C12 UNK     1      19.718  -1.330  32.051  1.00  0.00     0.129 A 
HETATM   19  N2  UNK     1      19.565  -0.024  31.771  1.00  0.00    -0.243 NA
HETATM   20  C16 UNK     1      19.865   0.346  30.506  1.00  0.00     0.119 A 
HETATM   21  C15 UNK     1      20.305  -0.529  29.525  1.00  0.00     0.019 A 
HETATM   22  C14 UNK     1      20.446  -1.869  29.866  1.00  0.00     0.005 A 
HETATM   23  C13 UNK     1      20.148  -2.289  31.158  1.00  0.00     0.050 A 
ENDBRANCH  16  18
ENDBRANCH  13  14
ENDBRANCH   1  13
TORSDOF 4
ENDMDL
MODEL 10
REMARK VINA RESULT:      -8.5      2.962      8.681
REMARK  4 active torsions:
REMARK  status: ('A' for Active; 'I' for Inactive)
REMARK    1  A    between atoms: C3_9  and  O1_1 
REMARK    2  A    between atoms: C8_14  and  O1_1 
REMARK       I    between atoms: C10_16  and  N1_5 
REMARK    3  A    between atoms: C12_18  and  N1_5 
REMARK    4  A    between atoms: C10_16  and  C8_14 
ROOT
HETATM    1  O1  UNK     1      17.654   3.630  31.647  1.00  0.00    -0.342 OA
ENDROOT
BRANCH   1   2
HETATM    2  C3  UNK     1      18.242   2.581  31.009  1.00  0.00     0.072 A 
HETATM    3  C4  UNK     1      18.773   1.525  31.747  1.00  0.00     0.075 A 
HETATM    4  C2  UNK     1      19.370   0.463  31.070  1.00  0.00     0.092 A 
HETATM    5  C1  UNK     1      19.447   0.430  29.681  1.00  0.00    -0.002 A 
HETATM    6  O2  UNK     1      19.899  -0.590  31.843  1.00  0.00    -0.275 OA
HETATM    7  C5  UNK     1      18.912   1.493  28.949  1.00  0.00     0.017 A 
HETATM    8  C7  UNK     1      20.084  -0.709  29.040  1.00  0.00     0.020 A 
HETATM    9  C6  UNK     1      18.310   2.565  29.614  1.00  0.00     0.038 A 
HETATM   10  C9  UNK     1      20.582  -1.702  29.780  1.00  0.00     0.083 A 
HETATM   11  C11 UNK     1      20.512  -1.691  31.253  1.00  0.00     0.288 A 
HETATM   12  O4  UNK     1      20.974  -2.612  31.918  1.00  0.00    -0.260 OA
ENDBRANCH   1   2
BRANCH   1  13
HETATM   13  C8  UNK     1      18.336   4.882  31.602  1.00  0.00     0.278 C 
BRANCH  13  14
HETATM   14  C10 UNK     1      17.796   5.774  32.698  1.00  0.00     0.247 C 
HETATM   15  O3  UNK     1      18.020   5.517  33.878  1.00  0.00    -0.271 OA
HETATM   16  N1  UNK     1      17.072   6.840  32.180  1.00  0.00    -0.310 N 
HETATM   17  H8  UNK     1      16.978   6.911  31.170  1.00  0.00     0.170 HD
BRANCH  16  18
HETATM   18  C12 UNK     1      16.429   7.876  32.899  1.00  0.00     0.129 A 
HETATM   19  N2  UNK     1      17.109   9.018  33.101  1.00  0.00    -0.243 NA
HETATM   20  C16 UNK     1      16.455   9.978  33.792  1.00  0.00     0.119 A 
HETATM   21  C15 UNK     1      15.165   9.839  34.281  1.00  0.00     0.019 A 
HETATM   22  C14 UNK     1      14.505   8.638  34.044  1.00  0.00     0.005 A 
HETATM   23  C13 UNK     1      15.146   7.627  33.336  1.00  0.00     0.050 A 
ENDBRANCH  16  18
ENDBRANCH  13  14
ENDBRANCH   1  13
TORSDOF 4
ENDMDL
