MODEL 1
REMARK VINA RESULT:      -8.4      0.000      0.000
REMARK  5 active torsions:
REMARK  status: ('A' for Active; 'I' for Inactive)
REMARK    1  A    between atoms: C21_27  and  O4_4 
REMARK    2  A    between atoms: C5_11  and  N1_5 
REMARK       I    between atoms: C7_13  and  N2_6 
REMARK    3  A    between atoms: C5_11  and  C6_12 
REMARK    4  A    between atoms: C6_12  and  C8_14 
REMARK    5  A    between atoms: C7_13  and  C9_15 
ROOT
HETATM    1  O1  UNK     1      30.236 -10.699  39.291  1.00  0.00    -0.267 OA
HETATM    2  N1  UNK     1      26.001  -8.109  38.791  1.00  0.00     0.091 N 
HETATM    3  N2  UNK     1      28.735  -8.993  38.787  1.00  0.00    -0.344 N 
HETATM    4  C1  UNK     1      26.372  -9.383  39.422  1.00  0.00     0.292 C 
HETATM    5  C2  UNK     1      26.860  -7.852  37.628  1.00  0.00     0.292 C 
HETATM    6  C3  UNK     1      27.829  -9.351  39.879  1.00  0.00     0.156 C 
HETATM    7  C4  UNK     1      28.337  -7.801  38.028  1.00  0.00     0.156 C 
HETATM    8  C7  UNK     1      29.927  -9.699  38.639  1.00  0.00     0.260 C 
ENDROOT
BRANCH   8   9
HETATM    9  C9  UNK     1      30.894  -9.212  37.635  1.00  0.00     0.108 A 
HETATM   10  C10 UNK     1      31.908  -8.474  38.102  1.00  0.00     0.037 A 
HETATM   11  C14 UNK     1      32.912  -7.948  37.189  1.00  0.00    -0.001 A 
HETATM   12  C15 UNK     1      32.798  -8.225  35.831  1.00  0.00     0.092 A 
HETATM   13  C18 UNK     1      33.987  -7.173  37.632  1.00  0.00     0.017 A 
HETATM   14  O2  UNK     1      31.729  -9.002  35.347  1.00  0.00    -0.274 OA
HETATM   15  C20 UNK     1      33.726  -7.752  34.905  1.00  0.00     0.075 A 
HETATM   16  C13 UNK     1      30.752  -9.520  36.195  1.00  0.00     0.304 A 
HETATM   17  O3  UNK     1      29.824 -10.194  35.764  1.00  0.00    -0.259 OA
HETATM   18  C21 UNK     1      34.795  -6.980  35.355  1.00  0.00     0.070 A 
HETATM   19  C22 UNK     1      34.926  -6.690  36.715  1.00  0.00     0.038 A 
BRANCH  18  20
HETATM   20  O4  UNK     1      35.713  -6.507  34.468  1.00  0.00    -0.356 OA
HETATM   21  C23 UNK     1      36.992  -7.139  34.458  1.00  0.00     0.210 C 
ENDBRANCH  18  20
ENDBRANCH   8   9
BRANCH   2  22
HETATM   22  C5  UNK     1      24.594  -8.123  38.398  1.00  0.00     0.277 C 
BRANCH  22  23
HETATM   23  C6  UNK     1      23.779  -7.141  39.241  1.00  0.00     0.068 C 
BRANCH  23  24
HETATM   24  C8  UNK     1      22.308  -7.469  39.209  1.00  0.00    -0.057 A 
HETATM   25  C11 UNK     1      21.385  -6.447  39.047  1.00  0.00     0.007 A 
HETATM   26  C16 UNK     1      20.024  -6.750  39.017  1.00  0.00     0.001 A 
HETATM   27  C19 UNK     1      19.602  -8.073  39.149  1.00  0.00     0.000 A 
HETATM   28  C17 UNK     1      20.541  -9.093  39.310  1.00  0.00     0.001 A 
HETATM   29  C12 UNK     1      21.902  -8.789  39.340  1.00  0.00     0.007 A 
ENDBRANCH  23  24
ENDBRANCH  22  23
ENDBRANCH   2  22
TORSDOF 5
ENDMDL
MODEL 2
REMARK VINA RESULT:      -8.4      4.695      7.618
REMARK  5 active torsions:
REMARK  status: ('A' for Active; 'I' for Inactive)
REMARK    1  A    between atoms: C21_27  and  O4_4 
REMARK    2  A    between atoms: C5_11  and  N1_5 
REMARK       I    between atoms: C7_13  and  N2_6 
REMARK    3  A    between atoms: C5_11  and  C6_12 
REMARK    4  A    between atoms: C6_12  and  C8_14 
REMARK    5  A    between atoms: C7_13  and  C9_15 
ROOT
HETATM    1  O1  UNK     1      36.486  -7.732  34.424  1.00  0.00    -0.267 OA
HETATM    2  N1  UNK     1      33.144  -5.234  37.159  1.00  0.00     0.091 N 
HETATM    3  N2  UNK     1      34.724  -6.337  35.028  1.00  0.00    -0.344 N 
HETATM    4  C1  UNK     1      34.326  -6.054  37.457  1.00  0.00     0.292 C 
HETATM    5  C2  UNK     1      32.499  -5.706  35.927  1.00  0.00     0.292 C 
HETATM    6  C3  UNK     1      35.332  -5.981  36.311  1.00  0.00     0.156 C 
HETATM    7  C4  UNK     1      33.461  -5.647  34.738  1.00  0.00     0.156 C 
HETATM    8  C7  UNK     1      35.425  -7.165  34.154  1.00  0.00     0.260 C 
ENDROOT
BRANCH   8   9
HETATM    9  C9  UNK     1      34.862  -7.373  32.805  1.00  0.00     0.108 A 
HETATM   10  C10 UNK     1      33.827  -8.218  32.722  1.00  0.00     0.037 A 
HETATM   11  C14 UNK     1      33.204  -8.488  31.435  1.00  0.00    -0.001 A 
HETATM   12  C15 UNK     1      33.701  -7.857  30.300  1.00  0.00     0.092 A 
HETATM   13  C18 UNK     1      32.122  -9.362  31.301  1.00  0.00     0.017 A 
HETATM   14  O2  UNK     1      34.791  -6.969  30.395  1.00  0.00    -0.274 OA
HETATM   15  C20 UNK     1      33.149  -8.072  29.039  1.00  0.00     0.075 A 
HETATM   16  C13 UNK     1      35.408  -6.690  31.612  1.00  0.00     0.304 A 
HETATM   17  O3  UNK     1      36.357  -5.917  31.684  1.00  0.00    -0.259 OA
HETATM   18  C21 UNK     1      32.071  -8.945  28.914  1.00  0.00     0.070 A 
HETATM   19  C22 UNK     1      31.558  -9.589  30.042  1.00  0.00     0.038 A 
BRANCH  18  20
HETATM   20  O4  UNK     1      31.516  -9.171  27.692  1.00  0.00    -0.356 OA
HETATM   21  C23 UNK     1      30.277  -9.877  27.661  1.00  0.00     0.210 C 
ENDBRANCH  18  20
ENDBRANCH   8   9
BRANCH   2  22
HETATM   22  C5  UNK     1      32.203  -5.265  38.277  1.00  0.00     0.277 C 
BRANCH  22  23
HETATM   23  C6  UNK     1      30.768  -5.057  37.791  1.00  0.00     0.068 C 
BRANCH  23  24
HETATM   24  C8  UNK     1      29.851  -6.146  38.287  1.00  0.00    -0.057 A 
HETATM   25  C11 UNK     1      28.757  -5.812  39.071  1.00  0.00     0.007 A 
HETATM   26  C16 UNK     1      27.909  -6.819  39.530  1.00  0.00     0.001 A 
HETATM   27  C19 UNK     1      28.163  -8.150  39.197  1.00  0.00     0.000 A 
HETATM   28  C17 UNK     1      29.266  -8.473  38.405  1.00  0.00     0.001 A 
HETATM   29  C12 UNK     1      30.114  -7.465  37.948  1.00  0.00     0.007 A 
ENDBRANCH  23  24
ENDBRANCH  22  23
ENDBRANCH   2  22
TORSDOF 5
ENDMDL
MODEL 3
REMARK VINA RESULT:      -8.4      2.961     10.088
REMARK  5 active torsions:
REMARK  status: ('A' for Active; 'I' for Inactive)
REMARK    1  A    between atoms: C21_27  and  O4_4 
REMARK    2  A    between atoms: C5_11  and  N1_5 
REMARK       I    between atoms: C7_13  and  N2_6 
REMARK    3  A    between atoms: C5_11  and  C6_12 
REMARK    4  A    between atoms: C6_12  and  C8_14 
REMARK    5  A    between atoms: C7_13  and  C9_15 
ROOT
HETATM    1  O1  UNK     1      27.882 -10.118  39.136  1.00  0.00    -0.267 OA
HETATM    2  N1  UNK     1      30.349  -6.094  37.522  1.00  0.00     0.091 N 
HETATM    3  N2  UNK     1      28.467  -8.230  37.908  1.00  0.00    -0.344 N 
HETATM    4  C1  UNK     1      30.625  -7.162  38.493  1.00  0.00     0.292 C 
HETATM    5  C2  UNK     1      28.906  -5.829  37.458  1.00  0.00     0.292 C 
HETATM    6  C3  UNK     1      29.902  -8.447  38.096  1.00  0.00     0.156 C 
HETATM    7  C4  UNK     1      28.128  -7.084  37.055  1.00  0.00     0.156 C 
HETATM    8  C7  UNK     1      27.570  -9.165  38.421  1.00  0.00     0.260 C 
ENDROOT
BRANCH   8   9
HETATM    9  C9  UNK     1      26.142  -9.006  38.076  1.00  0.00     0.108 A 
HETATM   10  C10 UNK     1      25.435  -8.180  38.858  1.00  0.00     0.037 A 
HETATM   11  C14 UNK     1      24.021  -7.959  38.598  1.00  0.00    -0.001 A 
HETATM   12  C15 UNK     1      23.421  -8.618  37.531  1.00  0.00     0.092 A 
HETATM   13  C18 UNK     1      23.244  -7.107  39.387  1.00  0.00     0.017 A 
HETATM   14  O2  UNK     1      24.171  -9.486  36.713  1.00  0.00    -0.274 OA
HETATM   15  C20 UNK     1      22.071  -8.449  37.229  1.00  0.00     0.075 A 
HETATM   16  C13 UNK     1      25.526  -9.717  36.935  1.00  0.00     0.304 A 
HETATM   17  O3  UNK     1      26.170 -10.475  36.218  1.00  0.00    -0.259 OA
HETATM   18  C21 UNK     1      21.304  -7.598  38.021  1.00  0.00     0.070 A 
HETATM   19  C22 UNK     1      21.888  -6.928  39.097  1.00  0.00     0.038 A 
BRANCH  18  20
HETATM   20  O4  UNK     1      19.983  -7.418  37.744  1.00  0.00    -0.356 OA
HETATM   21  C23 UNK     1      19.072  -8.380  38.273  1.00  0.00     0.210 C 
ENDBRANCH  18  20
ENDBRANCH   8   9
BRANCH   2  22
HETATM   22  C5  UNK     1      31.080  -4.878  37.876  1.00  0.00     0.277 C 
BRANCH  22  23
HETATM   23  C6  UNK     1      32.527  -5.198  38.253  1.00  0.00     0.068 C 
BRANCH  23  24
HETATM   24  C8  UNK     1      33.419  -5.244  37.037  1.00  0.00    -0.057 A 
HETATM   25  C11 UNK     1      33.162  -4.396  35.971  1.00  0.00     0.007 A 
HETATM   26  C16 UNK     1      33.987  -4.439  34.847  1.00  0.00     0.001 A 
HETATM   27  C19 UNK     1      35.060  -5.329  34.804  1.00  0.00     0.000 A 
HETATM   28  C17 UNK     1      35.309  -6.177  35.884  1.00  0.00     0.001 A 
HETATM   29  C12 UNK     1      34.483  -6.134  37.008  1.00  0.00     0.007 A 
ENDBRANCH  23  24
ENDBRANCH  22  23
ENDBRANCH   2  22
TORSDOF 5
ENDMDL
MODEL 4
REMARK VINA RESULT:      -8.3      6.134      9.382
REMARK  5 active torsions:
REMARK  status: ('A' for Active; 'I' for Inactive)
REMARK    1  A    between atoms: C21_27  and  O4_4 
REMARK    2  A    between atoms: C5_11  and  N1_5 
REMARK       I    between atoms: C7_13  and  N2_6 
REMARK    3  A    between atoms: C5_11  and  C6_12 
REMARK    4  A    between atoms: C6_12  and  C8_14 
REMARK    5  A    between atoms: C7_13  and  C9_15 
ROOT
HETATM    1  O1  UNK     1      36.920  -8.850  31.768  1.00  0.00    -0.267 OA
HETATM    2  N1  UNK     1      35.319  -5.993  35.532  1.00  0.00     0.091 N 
HETATM    3  N2  UNK     1      35.746  -7.249  32.983  1.00  0.00    -0.344 N 
HETATM    4  C1  UNK     1      36.406  -6.966  35.355  1.00  0.00     0.292 C 
HETATM    5  C2  UNK     1      34.176  -6.353  34.683  1.00  0.00     0.292 C 
HETATM    6  C3  UNK     1      36.862  -7.001  33.898  1.00  0.00     0.156 C 
HETATM    7  C4  UNK     1      34.572  -6.396  33.205  1.00  0.00     0.156 C 
HETATM    8  C7  UNK     1      35.922  -8.144  31.930  1.00  0.00     0.260 C 
ENDROOT
BRANCH   8   9
HETATM    9  C9  UNK     1      34.839  -8.251  30.932  1.00  0.00     0.108 A 
HETATM   10  C10 UNK     1      33.953  -9.235  31.126  1.00  0.00     0.037 A 
HETATM   11  C14 UNK     1      32.850  -9.421  30.196  1.00  0.00    -0.001 A 
HETATM   12  C15 UNK     1      32.734  -8.563  29.108  1.00  0.00     0.092 A 
HETATM   13  C18 UNK     1      31.902 -10.435  30.359  1.00  0.00     0.017 A 
HETATM   14  O2  UNK     1      33.670  -7.529  28.910  1.00  0.00    -0.274 OA
HETATM   15  C20 UNK     1      31.701  -8.687  28.182  1.00  0.00     0.075 A 
HETATM   16  C13 UNK     1      34.736  -7.325  29.783  1.00  0.00     0.304 A 
HETATM   17  O3  UNK     1      35.547  -6.424  29.601  1.00  0.00    -0.259 OA
HETATM   18  C21 UNK     1      30.760  -9.700  28.352  1.00  0.00     0.070 A 
HETATM   19  C22 UNK     1      30.860 -10.573  29.437  1.00  0.00     0.038 A 
BRANCH  18  20
HETATM   20  O4  UNK     1      29.742  -9.840  27.458  1.00  0.00    -0.356 OA
HETATM   21  C23 UNK     1      28.457 -10.171  27.984  1.00  0.00     0.210 C 
ENDBRANCH  18  20
ENDBRANCH   8   9
BRANCH   2  22
HETATM   22  C5  UNK     1      34.916  -5.925  36.935  1.00  0.00     0.277 C 
BRANCH  22  23
HETATM   23  C6  UNK     1      34.032  -7.115  37.311  1.00  0.00     0.068 C 
BRANCH  23  24
HETATM   24  C8  UNK     1      32.666  -6.669  37.767  1.00  0.00    -0.057 A 
HETATM   25  C11 UNK     1      32.445  -5.329  38.049  1.00  0.00     0.007 A 
HETATM   26  C16 UNK     1      31.182  -4.917  38.471  1.00  0.00     0.001 A 
HETATM   27  C19 UNK     1      30.152  -5.849  38.604  1.00  0.00     0.000 A 
HETATM   28  C17 UNK     1      30.387  -7.194  38.315  1.00  0.00     0.001 A 
HETATM   29  C12 UNK     1      31.651  -7.606  37.894  1.00  0.00     0.007 A 
ENDBRANCH  23  24
ENDBRANCH  22  23
ENDBRANCH   2  22
TORSDOF 5
ENDMDL
MODEL 5
REMARK VINA RESULT:      -8.3     17.274     21.443
REMARK  5 active torsions:
REMARK  status: ('A' for Active; 'I' for Inactive)
REMARK    1  A    between atoms: C21_27  and  O4_4 
REMARK    2  A    between atoms: C5_11  and  N1_5 
REMARK       I    between atoms: C7_13  and  N2_6 
REMARK    3  A    between atoms: C5_11  and  C6_12 
REMARK    4  A    between atoms: C6_12  and  C8_14 
REMARK    5  A    between atoms: C7_13  and  C9_15 
ROOT
HETATM    1  O1  UNK     1      16.454   8.470  30.521  1.00  0.00    -0.267 OA
HETATM    2  N1  UNK     1      18.646   4.336  32.251  1.00  0.00     0.091 N 
HETATM    3  N2  UNK     1      17.466   6.939  31.951  1.00  0.00    -0.344 N 
HETATM    4  C1  UNK     1      18.256   4.827  30.922  1.00  0.00     0.292 C 
HETATM    5  C2  UNK     1      17.725   4.853  33.272  1.00  0.00     0.292 C 
HETATM    6  C3  UNK     1      18.283   6.354  30.886  1.00  0.00     0.156 C 
HETATM    7  C4  UNK     1      17.715   6.384  33.287  1.00  0.00     0.156 C 
HETATM    8  C7  UNK     1      16.646   8.025  31.654  1.00  0.00     0.260 C 
ENDROOT
BRANCH   8   9
HETATM    9  C9  UNK     1      15.961   8.695  32.778  1.00  0.00     0.108 A 
HETATM   10  C10 UNK     1      16.515   9.835  33.210  1.00  0.00     0.037 A 
HETATM   11  C14 UNK     1      15.913  10.569  34.313  1.00  0.00    -0.001 A 
HETATM   12  C15 UNK     1      14.759  10.067  34.906  1.00  0.00     0.092 A 
HETATM   13  C18 UNK     1      16.456  11.762  34.798  1.00  0.00     0.017 A 
HETATM   14  O2  UNK     1      14.182   8.868  34.446  1.00  0.00    -0.274 OA
HETATM   15  C20 UNK     1      14.134  10.722  35.965  1.00  0.00     0.075 A 
HETATM   16  C13 UNK     1      14.734   8.143  33.392  1.00  0.00     0.304 A 
HETATM   17  O3  UNK     1      14.225   7.099  32.999  1.00  0.00    -0.259 OA
HETATM   18  C21 UNK     1      14.682  11.911  36.442  1.00  0.00     0.070 A 
HETATM   19  C22 UNK     1      15.840  12.430  35.860  1.00  0.00     0.038 A 
BRANCH  18  20
HETATM   20  O4  UNK     1      14.088  12.567  37.476  1.00  0.00    -0.356 OA
HETATM   21  C23 UNK     1      13.407  11.771  38.445  1.00  0.00     0.210 C 
ENDBRANCH  18  20
ENDBRANCH   8   9
BRANCH   2  22
HETATM   22  C5  UNK     1      18.667   2.875  32.271  1.00  0.00     0.277 C 
BRANCH  22  23
HETATM   23  C6  UNK     1      18.310   2.302  30.899  1.00  0.00     0.068 C 
BRANCH  23  24
HETATM   24  C8  UNK     1      19.073   1.034  30.611  1.00  0.00    -0.057 A 
HETATM   25  C11 UNK     1      19.268   0.110  31.628  1.00  0.00     0.007 A 
HETATM   26  C16 UNK     1      19.974  -1.063  31.362  1.00  0.00     0.001 A 
HETATM   27  C19 UNK     1      20.475  -1.300  30.082  1.00  0.00     0.000 A 
HETATM   28  C17 UNK     1      20.270  -0.363  29.068  1.00  0.00     0.001 A 
HETATM   29  C12 UNK     1      19.565   0.810  29.334  1.00  0.00     0.007 A 
ENDBRANCH  23  24
ENDBRANCH  22  23
ENDBRANCH   2  22
TORSDOF 5
ENDMDL
MODEL 6
REMARK VINA RESULT:      -8.3     36.082     37.575
REMARK  5 active torsions:
REMARK  status: ('A' for Active; 'I' for Inactive)
REMARK    1  A    between atoms: C21_27  and  O4_4 
REMARK    2  A    between atoms: C5_11  and  N1_5 
REMARK       I    between atoms: C7_13  and  N2_6 
REMARK    3  A    between atoms: C5_11  and  C6_12 
REMARK    4  A    between atoms: C6_12  and  C8_14 
REMARK    5  A    between atoms: C7_13  and  C9_15 
ROOT
HETATM    1  O1  UNK     1      15.312  11.596  11.117  1.00  0.00    -0.267 OA
HETATM    2  N1  UNK     1      13.000   7.506   9.442  1.00  0.00     0.091 N 
HETATM    3  N2  UNK     1      14.464   9.965   9.690  1.00  0.00    -0.344 N 
HETATM    4  C1  UNK     1      13.114   8.175  10.745  1.00  0.00     0.292 C 
HETATM    5  C2  UNK     1      14.219   7.724   8.652  1.00  0.00     0.292 C 
HETATM    6  C3  UNK     1      13.322   9.676  10.560  1.00  0.00     0.156 C 
HETATM    7  C4  UNK     1      14.475   9.217   8.428  1.00  0.00     0.156 C 
HETATM    8  C7  UNK     1      15.345  10.984  10.048  1.00  0.00     0.260 C 
ENDROOT
BRANCH   8   9
HETATM    9  C9  UNK     1      16.389  11.362   9.074  1.00  0.00     0.108 A 
HETATM   10  C10 UNK     1      16.132  12.440   8.324  1.00  0.00     0.037 A 
HETATM   11  C14 UNK     1      17.100  12.891   7.335  1.00  0.00    -0.001 A 
HETATM   12  C15 UNK     1      18.290  12.185   7.187  1.00  0.00     0.092 A 
HETATM   13  C18 UNK     1      16.875  14.010   6.530  1.00  0.00     0.017 A 
HETATM   14  O2  UNK     1      18.553  11.052   7.981  1.00  0.00    -0.274 OA
HETATM   15  C20 UNK     1      19.258  12.566   6.260  1.00  0.00     0.075 A 
HETATM   16  C13 UNK     1      17.647  10.596   8.935  1.00  0.00     0.304 A 
HETATM   17  O3  UNK     1      17.884   9.608   9.620  1.00  0.00    -0.259 OA
HETATM   18  C21 UNK     1      19.025  13.683   5.460  1.00  0.00     0.070 A 
HETATM   19  C22 UNK     1      17.837  14.403   5.594  1.00  0.00     0.038 A 
BRANCH  18  20
HETATM   20  O4  UNK     1      19.957  14.072   4.547  1.00  0.00    -0.356 OA
HETATM   21  C23 UNK     1      21.325  14.007   4.948  1.00  0.00     0.210 C 
ENDBRANCH  18  20
ENDBRANCH   8   9
BRANCH   2  22
HETATM   22  C5  UNK     1      12.752   6.076   9.619  1.00  0.00     0.277 C 
BRANCH  22  23
HETATM   23  C6  UNK     1      12.563   5.381   8.270  1.00  0.00     0.068 C 
BRANCH  23  24
HETATM   24  C8  UNK     1      11.247   5.752   7.634  1.00  0.00    -0.057 A 
HETATM   25  C11 UNK     1      11.204   6.054   6.281  1.00  0.00     0.007 A 
HETATM   26  C16 UNK     1       9.987   6.397   5.693  1.00  0.00     0.001 A 
HETATM   27  C19 UNK     1       8.826   6.431   6.465  1.00  0.00     0.000 A 
HETATM   28  C17 UNK     1       8.881   6.123   7.825  1.00  0.00     0.001 A 
HETATM   29  C12 UNK     1      10.099   5.781   8.413  1.00  0.00     0.007 A 
ENDBRANCH  23  24
ENDBRANCH  22  23
ENDBRANCH   2  22
TORSDOF 5
ENDMDL
MODEL 7
REMARK VINA RESULT:      -8.2      4.145      5.556
REMARK  5 active torsions:
REMARK  status: ('A' for Active; 'I' for Inactive)
REMARK    1  A    between atoms: C21_27  and  O4_4 
REMARK    2  A    between atoms: C5_11  and  N1_5 
REMARK       I    between atoms: C7_13  and  N2_6 
REMARK    3  A    between atoms: C5_11  and  C6_12 
REMARK    4  A    between atoms: C6_12  and  C8_14 
REMARK    5  A    between atoms: C7_13  and  C9_15 
ROOT
HETATM    1  O1  UNK     1      34.518  -6.232  37.819  1.00  0.00    -0.267 OA
HETATM    2  N1  UNK     1      29.646  -5.162  37.774  1.00  0.00     0.091 N 
HETATM    3  N2  UNK     1      32.423  -5.500  37.119  1.00  0.00    -0.344 N 
HETATM    4  C1  UNK     1      30.600  -5.621  38.793  1.00  0.00     0.292 C 
HETATM    5  C2  UNK     1      30.038  -5.664  36.451  1.00  0.00     0.292 C 
HETATM    6  C3  UNK     1      32.007  -5.124  38.472  1.00  0.00     0.156 C 
HETATM    7  C4  UNK     1      31.444  -5.190  36.071  1.00  0.00     0.156 C 
HETATM    8  C7  UNK     1      33.715  -5.980  36.919  1.00  0.00     0.260 C 
ENDROOT
BRANCH   8   9
HETATM    9  C9  UNK     1      34.159  -6.195  35.526  1.00  0.00     0.108 A 
HETATM   10  C10 UNK     1      34.099  -7.455  35.077  1.00  0.00     0.037 A 
HETATM   11  C14 UNK     1      34.515  -7.767  33.718  1.00  0.00    -0.001 A 
HETATM   12  C15 UNK     1      34.973  -6.739  32.900  1.00  0.00     0.092 A 
HETATM   13  C18 UNK     1      34.471  -9.066  33.206  1.00  0.00     0.017 A 
HETATM   14  O2  UNK     1      35.032  -5.416  33.380  1.00  0.00    -0.274 OA
HETATM   15  C20 UNK     1      35.384  -6.971  31.590  1.00  0.00     0.075 A 
HETATM   16  C13 UNK     1      34.641  -5.085  34.675  1.00  0.00     0.304 A 
HETATM   17  O3  UNK     1      34.698  -3.931  35.085  1.00  0.00    -0.259 OA
HETATM   18  C21 UNK     1      35.337  -8.270  31.088  1.00  0.00     0.070 A 
HETATM   19  C22 UNK     1      34.882  -9.315  31.893  1.00  0.00     0.038 A 
BRANCH  18  20
HETATM   20  O4  UNK     1      35.735  -8.521  29.810  1.00  0.00    -0.356 OA
HETATM   21  C23 UNK     1      35.231  -7.657  28.792  1.00  0.00     0.210 C 
ENDBRANCH  18  20
ENDBRANCH   8   9
BRANCH   2  22
HETATM   22  C5  UNK     1      28.291  -5.596  38.108  1.00  0.00     0.277 C 
BRANCH  22  23
HETATM   23  C6  UNK     1      28.302  -6.569  39.287  1.00  0.00     0.068 C 
BRANCH  23  24
HETATM   24  C8  UNK     1      27.781  -7.928  38.891  1.00  0.00    -0.057 A 
HETATM   25  C11 UNK     1      27.655  -8.917  39.854  1.00  0.00     0.007 A 
HETATM   26  C16 UNK     1      27.174 -10.174  39.488  1.00  0.00     0.001 A 
HETATM   27  C19 UNK     1      26.823 -10.426  38.161  1.00  0.00     0.000 A 
HETATM   28  C17 UNK     1      26.953  -9.421  37.201  1.00  0.00     0.001 A 
HETATM   29  C12 UNK     1      27.435  -8.165  37.569  1.00  0.00     0.007 A 
ENDBRANCH  23  24
ENDBRANCH  22  23
ENDBRANCH   2  22
TORSDOF 5
ENDMDL
MODEL 8
REMARK VINA RESULT:      -8.2     34.428     37.509
REMARK  5 active torsions:
REMARK  status: ('A' for Active; 'I' for Inactive)
REMARK    1  A    between atoms: C21_27  and  O4_4 
REMARK    2  A    between atoms: C5_11  and  N1_5 
REMARK       I    between atoms: C7_13  and  N2_6 
REMARK    3  A    between atoms: C5_11  and  C6_12 
REMARK    4  A    between atoms: C6_12  and  C8_14 
REMARK    5  A    between atoms: C7_13  and  C9_15 
ROOT
HETATM    1  O1  UNK     1       9.684   5.794   6.738  1.00  0.00    -0.267 OA
HETATM    2  N1  UNK     1      14.117   6.676   8.849  1.00  0.00     0.091 N 
HETATM    3  N2  UNK     1      11.315   6.496   8.243  1.00  0.00    -0.344 N 
HETATM    4  C1  UNK     1      13.670   6.178   7.542  1.00  0.00     0.292 C 
HETATM    5  C2  UNK     1      13.158   6.291   9.893  1.00  0.00     0.292 C 
HETATM    6  C3  UNK     1      12.299   6.751   7.190  1.00  0.00     0.156 C 
HETATM    7  C4  UNK     1      11.762   6.847   9.596  1.00  0.00     0.156 C 
HETATM    8  C7  UNK     1      10.033   6.083   7.884  1.00  0.00     0.260 C 
ENDROOT
BRANCH   8   9
HETATM    9  C9  UNK     1       9.017   5.992   8.952  1.00  0.00     0.108 A 
HETATM   10  C10 UNK     1       8.147   7.006   9.027  1.00  0.00     0.037 A 
HETATM   11  C14 UNK     1       7.108   7.007  10.046  1.00  0.00    -0.001 A 
HETATM   12  C15 UNK     1       7.038   5.941  10.936  1.00  0.00     0.092 A 
HETATM   13  C18 UNK     1       6.179   8.044  10.161  1.00  0.00     0.017 A 
HETATM   14  O2  UNK     1       7.957   4.877  10.852  1.00  0.00    -0.274 OA
HETATM   15  C20 UNK     1       6.068   5.880  11.934  1.00  0.00     0.075 A 
HETATM   16  C13 UNK     1       8.962   4.847   9.888  1.00  0.00     0.304 A 
HETATM   17  O3  UNK     1       9.758   3.917   9.823  1.00  0.00    -0.259 OA
HETATM   18  C21 UNK     1       5.145   6.919  12.042  1.00  0.00     0.070 A 
HETATM   19  C22 UNK     1       5.200   7.998  11.159  1.00  0.00     0.038 A 
BRANCH  18  20
HETATM   20  O4  UNK     1       4.189   6.881  13.010  1.00  0.00    -0.356 OA
HETATM   21  C23 UNK     1       4.232   5.786  13.924  1.00  0.00     0.210 C 
ENDBRANCH  18  20
ENDBRANCH   8   9
BRANCH   2  22
HETATM   22  C5  UNK     1      15.450   6.166   9.164  1.00  0.00     0.277 C 
BRANCH  22  23
HETATM   23  C6  UNK     1      15.916   6.657  10.535  1.00  0.00     0.068 C 
BRANCH  23  24
HETATM   24  C8  UNK     1      16.123   8.151  10.548  1.00  0.00    -0.057 A 
HETATM   25  C11 UNK     1      15.285   8.948  11.313  1.00  0.00     0.007 A 
HETATM   26  C16 UNK     1      15.475  10.330  11.325  1.00  0.00     0.001 A 
HETATM   27  C19 UNK     1      16.504  10.898  10.573  1.00  0.00     0.000 A 
HETATM   28  C17 UNK     1      17.341  10.084   9.809  1.00  0.00     0.001 A 
HETATM   29  C12 UNK     1      17.149   8.703   9.797  1.00  0.00     0.007 A 
ENDBRANCH  23  24
ENDBRANCH  22  23
ENDBRANCH   2  22
TORSDOF 5
ENDMDL
MODEL 9
REMARK VINA RESULT:      -8.1     18.092     21.519
REMARK  5 active torsions:
REMARK  status: ('A' for Active; 'I' for Inactive)
REMARK    1  A    between atoms: C21_27  and  O4_4 
REMARK    2  A    between atoms: C5_11  and  N1_5 
REMARK       I    between atoms: C7_13  and  N2_6 
REMARK    3  A    between atoms: C5_11  and  C6_12 
REMARK    4  A    between atoms: C6_12  and  C8_14 
REMARK    5  A    between atoms: C7_13  and  C9_15 
ROOT
HETATM    1  O1  UNK     1      19.776   9.294  34.387  1.00  0.00    -0.267 OA
HETATM    2  N1  UNK     1      15.490  11.845  34.294  1.00  0.00     0.091 N 
HETATM    3  N2  UNK     1      17.623   9.978  33.827  1.00  0.00    -0.344 N 
HETATM    4  C1  UNK     1      16.793  12.027  34.947  1.00  0.00     0.292 C 
HETATM    5  C2  UNK     1      15.199  10.414  34.135  1.00  0.00     0.292 C 
HETATM    6  C3  UNK     1      17.903  11.385  34.117  1.00  0.00     0.156 C 
HETATM    7  C4  UNK     1      16.278   9.717  33.301  1.00  0.00     0.156 C 
HETATM    8  C7  UNK     1      18.654   9.047  33.940  1.00  0.00     0.260 C 
ENDROOT
BRANCH   8   9
HETATM    9  C9  UNK     1      18.386   7.668  33.486  1.00  0.00     0.108 A 
HETATM   10  C10 UNK     1      18.977   7.298  32.343  1.00  0.00     0.037 A 
HETATM   11  C14 UNK     1      18.773   5.958  31.814  1.00  0.00    -0.001 A 
HETATM   12  C15 UNK     1      17.959   5.074  32.514  1.00  0.00     0.092 A 
HETATM   13  C18 UNK     1      19.369   5.528  30.626  1.00  0.00     0.017 A 
HETATM   14  O2  UNK     1      17.341   5.470  33.716  1.00  0.00    -0.274 OA
HETATM   15  C20 UNK     1      17.725   3.777  32.062  1.00  0.00     0.075 A 
HETATM   16  C13 UNK     1      17.516   6.745  34.248  1.00  0.00     0.304 A 
HETATM   17  O3  UNK     1      16.973   7.081  35.295  1.00  0.00    -0.259 OA
HETATM   18  C21 UNK     1      18.322   3.357  30.876  1.00  0.00     0.070 A 
HETATM   19  C22 UNK     1      19.142   4.230  30.159  1.00  0.00     0.038 A 
BRANCH  18  20
HETATM   20  O4  UNK     1      18.106   2.094  30.415  1.00  0.00    -0.356 OA
HETATM   21  C23 UNK     1      18.068   1.917  29.000  1.00  0.00     0.210 C 
ENDBRANCH  18  20
ENDBRANCH   8   9
BRANCH   2  22
HETATM   22  C5  UNK     1      14.435  12.500  35.065  1.00  0.00     0.277 C 
BRANCH  22  23
HETATM   23  C6  UNK     1      13.771  11.519  36.031  1.00  0.00     0.068 C 
BRANCH  23  24
HETATM   24  C8  UNK     1      13.995  11.919  37.468  1.00  0.00    -0.057 A 
HETATM   25  C11 UNK     1      14.695  13.082  37.751  1.00  0.00     0.007 A 
HETATM   26  C16 UNK     1      14.902  13.452  39.079  1.00  0.00     0.001 A 
HETATM   27  C19 UNK     1      14.404  12.655  40.110  1.00  0.00     0.000 A 
HETATM   28  C17 UNK     1      13.700  11.487  39.813  1.00  0.00     0.001 A 
HETATM   29  C12 UNK     1      13.494  11.117  38.484  1.00  0.00     0.007 A 
ENDBRANCH  23  24
ENDBRANCH  22  23
ENDBRANCH   2  22
TORSDOF 5
ENDMDL
MODEL 10
REMARK VINA RESULT:      -8.1     17.225     21.317
REMARK  5 active torsions:
REMARK  status: ('A' for Active; 'I' for Inactive)
REMARK    1  A    between atoms: C21_27  and  O4_4 
REMARK    2  A    between atoms: C5_11  and  N1_5 
REMARK       I    between atoms: C7_13  and  N2_6 
REMARK    3  A    between atoms: C5_11  and  C6_12 
REMARK    4  A    between atoms: C6_12  and  C8_14 
REMARK    5  A    between atoms: C7_13  and  C9_15 
ROOT
HETATM    1  O1  UNK     1      16.190   8.494  31.008  1.00  0.00    -0.267 OA
HETATM    2  N1  UNK     1      18.386   4.598  33.219  1.00  0.00     0.091 N 
HETATM    3  N2  UNK     1      17.275   7.171  32.586  1.00  0.00    -0.344 N 
HETATM    4  C1  UNK     1      17.894   4.883  31.864  1.00  0.00     0.292 C 
HETATM    5  C2  UNK     1      17.581   5.321  34.212  1.00  0.00     0.292 C 
HETATM    6  C3  UNK     1      17.970   6.379  31.569  1.00  0.00     0.156 C 
HETATM    7  C4  UNK     1      17.626   6.832  33.970  1.00  0.00     0.156 C 
HETATM    8  C7  UNK     1      16.469   8.232  32.180  1.00  0.00     0.260 C 
ENDROOT
BRANCH   8   9
HETATM    9  C9  UNK     1      15.913   9.112  33.228  1.00  0.00     0.108 A 
HETATM   10  C10 UNK     1      16.634  10.199  33.530  1.00  0.00     0.037 A 
HETATM   11  C14 UNK     1      16.170  11.126  34.550  1.00  0.00    -0.001 A 
HETATM   12  C15 UNK     1      14.970  10.863  35.202  1.00  0.00     0.092 A 
HETATM   13  C18 UNK     1      16.889  12.272  34.897  1.00  0.00     0.017 A 
HETATM   14  O2  UNK     1      14.216   9.718  34.880  1.00  0.00    -0.274 OA
HETATM   15  C20 UNK     1      14.469  11.712  36.188  1.00  0.00     0.075 A 
HETATM   16  C13 UNK     1      14.634   8.812  33.908  1.00  0.00     0.304 A 
HETATM   17  O3  UNK     1      13.972   7.817  33.635  1.00  0.00    -0.259 OA
HETATM   18  C21 UNK     1      15.193  12.852  36.528  1.00  0.00     0.070 A 
HETATM   19  C22 UNK     1      16.400  13.132  35.885  1.00  0.00     0.038 A 
BRANCH  18  20
HETATM   20  O4  UNK     1      14.723  13.695  37.488  1.00  0.00    -0.356 OA
HETATM   21  C23 UNK     1      15.521  13.854  38.660  1.00  0.00     0.210 C 
ENDBRANCH  18  20
ENDBRANCH   8   9
BRANCH   2  22
HETATM   22  C5  UNK     1      18.359   3.161  33.483  1.00  0.00     0.277 C 
BRANCH  22  23
HETATM   23  C6  UNK     1      18.646   2.869  34.956  1.00  0.00     0.068 C 
BRANCH  23  24
HETATM   24  C8  UNK     1      18.111   1.521  35.369  1.00  0.00    -0.057 A 
HETATM   25  C11 UNK     1      17.903   1.253  36.714  1.00  0.00     0.007 A 
HETATM   26  C16 UNK     1      17.408   0.006  37.096  1.00  0.00     0.001 A 
HETATM   27  C19 UNK     1      17.126  -0.958  36.128  1.00  0.00     0.000 A 
HETATM   28  C17 UNK     1      17.338  -0.676  34.778  1.00  0.00     0.001 A 
HETATM   29  C12 UNK     1      17.833   0.571  34.397  1.00  0.00     0.007 A 
ENDBRANCH  23  24
ENDBRANCH  22  23
ENDBRANCH   2  22
TORSDOF 5
ENDMDL
