MODEL 1
REMARK VINA RESULT:      -9.5      0.000      0.000
REMARK  5 active torsions:
REMARK  status: ('A' for Active; 'I' for Inactive)
REMARK    1  A    between atoms: C5_12  and  N1_5 
REMARK    2  A    between atoms: C6_13  and  N2_6 
REMARK    3  A    between atoms: C5_12  and  C7_14 
REMARK    4  A    between atoms: C6_13  and  C8_15 
REMARK    5  A    between atoms: C14_21  and  C20_27 
ROOT
HETATM    1  N1  UNK     1      19.553  -3.116  35.910  1.00  0.00     0.096 N 
HETATM    2  N2  UNK     1      18.461  -0.663  34.840  1.00  0.00     0.097 N 
HETATM    3  C1  UNK     1      20.174  -2.441  34.764  1.00  0.00     0.303 C 
HETATM    4  C2  UNK     1      18.881  -2.141  36.776  1.00  0.00     0.303 C 
HETATM    5  C3  UNK     1      19.134  -1.638  33.975  1.00  0.00     0.303 C 
HETATM    6  C4  UNK     1      17.841  -1.337  35.988  1.00  0.00     0.303 C 
ENDROOT
BRANCH   1   7
HETATM    7  C5  UNK     1      20.546  -3.882  36.661  1.00  0.00     0.312 C 
BRANCH   7   8
HETATM    8  C7  UNK     1      20.142  -5.305  36.838  1.00  0.00    -0.011 A 
HETATM    9  C10 UNK     1      19.124  -5.829  36.141  1.00  0.00     0.092 A 
HETATM   10  C15 UNK     1      18.689  -7.229  36.283  1.00  0.00     0.288 A 
HETATM   11  O2  UNK     1      19.390  -8.010  37.187  1.00  0.00    -0.275 OA
HETATM   12  O3  UNK     1      17.754  -7.673  35.627  1.00  0.00    -0.260 OA
HETATM   13  C12 UNK     1      20.466  -7.487  37.934  1.00  0.00     0.090 A 
HETATM   14  C9  UNK     1      20.866  -6.157  37.790  1.00  0.00     0.006 A 
HETATM   15  C16 UNK     1      21.099  -8.364  38.816  1.00  0.00     0.045 A 
HETATM   16  C13 UNK     1      21.943  -5.715  38.569  1.00  0.00     0.015 A 
HETATM   17  C19 UNK     1      22.588  -6.583  39.458  1.00  0.00     0.007 A 
HETATM   18  C18 UNK     1      22.166  -7.906  39.581  1.00  0.00    -0.059 A 
HETATM   19  C21 UNK     1      22.858  -8.825  40.529  1.00  0.00     0.048 C 
ENDBRANCH   7   8
ENDBRANCH   1   7
BRANCH   2  20
HETATM   20  C6  UNK     1      17.467   0.101  34.088  1.00  0.00     0.334 C 
BRANCH  20  21
HETATM   21  C8  UNK     1      17.887   1.534  34.027  1.00  0.00     0.095 A 
HETATM   22  C11 UNK     1      18.398   2.327  35.024  1.00  0.00     0.078 A 
HETATM   23  O1  UNK     1      18.633   3.562  34.498  1.00  0.00    -0.293 OA
HETATM   24  C17 UNK     1      18.722   2.133  36.441  1.00  0.00     0.079 C 
HETATM   25  C14 UNK     1      18.244   3.433  33.200  1.00  0.00     0.187 A 
HETATM   26  N3  UNK     1      17.790   2.248  32.861  1.00  0.00    -0.224 NA
BRANCH  25  27
HETATM   27  C20 UNK     1      18.321   4.509  32.277  1.00  0.00     0.058 A 
HETATM   28  S1  UNK     1      17.546   6.000  32.605  1.00  0.00    -0.098 SA
HETATM   29  C24 UNK     1      18.089   6.670  31.126  1.00  0.00     0.050 A 
HETATM   30  C23 UNK     1      18.845   5.775  30.400  1.00  0.00     0.009 A 
HETATM   31  C22 UNK     1      18.978   4.524  31.066  1.00  0.00     0.024 A 
ENDBRANCH  25  27
ENDBRANCH  20  21
ENDBRANCH   2  20
TORSDOF 5
ENDMDL
MODEL 2
REMARK VINA RESULT:      -9.5      4.642     12.428
REMARK  5 active torsions:
REMARK  status: ('A' for Active; 'I' for Inactive)
REMARK    1  A    between atoms: C5_12  and  N1_5 
REMARK    2  A    between atoms: C6_13  and  N2_6 
REMARK    3  A    between atoms: C5_12  and  C7_14 
REMARK    4  A    between atoms: C6_13  and  C8_15 
REMARK    5  A    between atoms: C14_21  and  C20_27 
ROOT
HETATM    1  N1  UNK     1      18.127   5.505  31.632  1.00  0.00     0.096 N 
HETATM    2  N2  UNK     1      19.031   2.861  30.893  1.00  0.00     0.097 N 
HETATM    3  C1  UNK     1      18.141   4.405  32.604  1.00  0.00     0.303 C 
HETATM    4  C2  UNK     1      19.178   5.313  30.625  1.00  0.00     0.303 C 
HETATM    5  C3  UNK     1      17.981   3.054  31.899  1.00  0.00     0.303 C 
HETATM    6  C4  UNK     1      19.017   3.961  29.921  1.00  0.00     0.303 C 
ENDROOT
BRANCH   1   7
HETATM    7  C5  UNK     1      18.280   6.793  32.304  1.00  0.00     0.312 C 
BRANCH   7   8
HETATM    8  C7  UNK     1      16.972   7.471  32.526  1.00  0.00    -0.011 A 
HETATM    9  C10 UNK     1      15.821   6.894  32.154  1.00  0.00     0.092 A 
HETATM   10  C15 UNK     1      14.505   7.526  32.353  1.00  0.00     0.288 A 
HETATM   11  O2  UNK     1      14.498   8.774  32.955  1.00  0.00    -0.275 OA
HETATM   12  O3  UNK     1      13.472   6.967  32.000  1.00  0.00    -0.260 OA
HETATM   13  C12 UNK     1      15.692   9.405  33.356  1.00  0.00     0.090 A 
HETATM   14  C9  UNK     1      16.932   8.794  33.161  1.00  0.00     0.006 A 
HETATM   15  C16 UNK     1      15.565  10.661  33.953  1.00  0.00     0.045 A 
HETATM   16  C13 UNK     1      18.072   9.488  33.588  1.00  0.00     0.015 A 
HETATM   17  C19 UNK     1      17.961  10.748  34.187  1.00  0.00     0.007 A 
HETATM   18  C18 UNK     1      16.709  11.334  34.369  1.00  0.00    -0.059 A 
HETATM   19  C21 UNK     1      16.597  12.675  35.009  1.00  0.00     0.048 C 
ENDBRANCH   7   8
ENDBRANCH   1   7
BRANCH   2  20
HETATM   20  C6  UNK     1      18.875   1.572  30.219  1.00  0.00     0.334 C 
BRANCH  20  21
HETATM   21  C8  UNK     1      19.156   0.471  31.190  1.00  0.00     0.095 A 
HETATM   22  C11 UNK     1      19.949  -0.638  31.032  1.00  0.00     0.078 A 
HETATM   23  O1  UNK     1      19.898  -1.358  32.188  1.00  0.00    -0.293 OA
HETATM   24  C17 UNK     1      20.783  -1.171  29.950  1.00  0.00     0.079 C 
HETATM   25  C14 UNK     1      19.067  -0.627  32.980  1.00  0.00     0.187 A 
HETATM   26  N3  UNK     1      18.593   0.473  32.440  1.00  0.00    -0.224 NA
BRANCH  25  27
HETATM   27  C20 UNK     1      18.733  -1.029  34.300  1.00  0.00     0.058 A 
HETATM   28  S1  UNK     1      17.185  -0.694  34.951  1.00  0.00    -0.098 SA
HETATM   29  C24 UNK     1      17.588  -1.445  36.436  1.00  0.00     0.050 A 
HETATM   30  C23 UNK     1      18.873  -1.939  36.434  1.00  0.00     0.009 A 
HETATM   31  C22 UNK     1      19.537  -1.697  35.197  1.00  0.00     0.024 A 
ENDBRANCH  25  27
ENDBRANCH  20  21
ENDBRANCH   2  20
TORSDOF 5
ENDMDL
MODEL 3
REMARK VINA RESULT:      -9.1     13.309     17.060
REMARK  5 active torsions:
REMARK  status: ('A' for Active; 'I' for Inactive)
REMARK    1  A    between atoms: C5_12  and  N1_5 
REMARK    2  A    between atoms: C6_13  and  N2_6 
REMARK    3  A    between atoms: C5_12  and  C7_14 
REMARK    4  A    between atoms: C6_13  and  C8_15 
REMARK    5  A    between atoms: C14_21  and  C20_27 
ROOT
HETATM    1  N1  UNK     1      31.817  -5.864  35.768  1.00  0.00     0.096 N 
HETATM    2  N2  UNK     1      34.379  -6.403  34.542  1.00  0.00     0.097 N 
HETATM    3  C1  UNK     1      32.386  -4.960  34.762  1.00  0.00     0.303 C 
HETATM    4  C2  UNK     1      32.278  -7.239  35.541  1.00  0.00     0.303 C 
HETATM    5  C3  UNK     1      33.917  -5.030  34.770  1.00  0.00     0.303 C 
HETATM    6  C4  UNK     1      33.809  -7.309  35.548  1.00  0.00     0.303 C 
ENDROOT
BRANCH   1   7
HETATM    7  C5  UNK     1      30.357  -5.797  35.760  1.00  0.00     0.312 C 
BRANCH   7   8
HETATM    8  C7  UNK     1      29.789  -5.732  37.136  1.00  0.00    -0.011 A 
HETATM    9  C10 UNK     1      29.892  -4.619  37.876  1.00  0.00     0.092 A 
HETATM   10  C15 UNK     1      29.347  -4.508  39.240  1.00  0.00     0.288 A 
HETATM   11  O2  UNK     1      28.704  -5.627  39.746  1.00  0.00    -0.275 OA
HETATM   12  O3  UNK     1      29.460  -3.473  39.887  1.00  0.00    -0.260 OA
HETATM   13  C12 UNK     1      28.580  -6.810  38.991  1.00  0.00     0.090 A 
HETATM   14  C9  UNK     1      29.103  -6.901  37.700  1.00  0.00     0.006 A 
HETATM   15  C16 UNK     1      27.914  -7.874  39.602  1.00  0.00     0.045 A 
HETATM   16  C13 UNK     1      28.938  -8.113  37.016  1.00  0.00     0.015 A 
HETATM   17  C19 UNK     1      28.272  -9.188  37.615  1.00  0.00     0.007 A 
HETATM   18  C18 UNK     1      27.761  -9.069  38.906  1.00  0.00    -0.059 A 
HETATM   19  C21 UNK     1      27.052 -10.218  39.539  1.00  0.00     0.048 C 
ENDBRANCH   7   8
ENDBRANCH   1   7
BRANCH   2  20
HETATM   20  C6  UNK     1      35.839  -6.469  34.554  1.00  0.00     0.334 C 
BRANCH  20  21
HETATM   21  C8  UNK     1      36.293  -7.520  33.592  1.00  0.00     0.095 A 
HETATM   22  C11 UNK     1      36.022  -7.640  32.252  1.00  0.00     0.078 A 
HETATM   23  O1  UNK     1      36.652  -8.758  31.795  1.00  0.00    -0.293 OA
HETATM   24  C17 UNK     1      35.246  -6.866  31.278  1.00  0.00     0.079 C 
HETATM   25  C14 UNK     1      37.273  -9.248  32.903  1.00  0.00     0.187 A 
HETATM   26  N3  UNK     1      37.096  -8.553  34.004  1.00  0.00    -0.224 NA
BRANCH  25  27
HETATM   27  C20 UNK     1      38.058 -10.430  32.870  1.00  0.00     0.058 A 
HETATM   28  S1  UNK     1      37.673 -11.763  33.875  1.00  0.00    -0.098 SA
HETATM   29  C24 UNK     1      38.990 -12.672  33.265  1.00  0.00     0.050 A 
HETATM   30  C23 UNK     1      39.706 -11.973  32.317  1.00  0.00     0.009 A 
HETATM   31  C22 UNK     1      39.166 -10.675  32.090  1.00  0.00     0.024 A 
ENDBRANCH  25  27
ENDBRANCH  20  21
ENDBRANCH   2  20
TORSDOF 5
ENDMDL
MODEL 4
REMARK VINA RESULT:      -9.0      5.059     10.905
REMARK  5 active torsions:
REMARK  status: ('A' for Active; 'I' for Inactive)
REMARK    1  A    between atoms: C5_12  and  N1_5 
REMARK    2  A    between atoms: C6_13  and  N2_6 
REMARK    3  A    between atoms: C5_12  and  C7_14 
REMARK    4  A    between atoms: C6_13  and  C8_15 
REMARK    5  A    between atoms: C14_21  and  C20_27 
ROOT
HETATM    1  N1  UNK     1      19.973  -3.826  36.717  1.00  0.00     0.096 N 
HETATM    2  N2  UNK     1      20.883  -6.570  36.692  1.00  0.00     0.097 N 
HETATM    3  C1  UNK     1      20.902  -4.330  37.735  1.00  0.00     0.303 C 
HETATM    4  C2  UNK     1      20.145  -4.559  35.458  1.00  0.00     0.303 C 
HETATM    5  C3  UNK     1      20.711  -5.835  37.951  1.00  0.00     0.303 C 
HETATM    6  C4  UNK     1      19.954  -6.065  35.673  1.00  0.00     0.303 C 
ENDROOT
BRANCH   1   7
HETATM    7  C5  UNK     1      20.156  -2.391  36.513  1.00  0.00     0.312 C 
BRANCH   7   8
HETATM    8  C7  UNK     1      19.189  -1.836  35.525  1.00  0.00    -0.011 A 
HETATM    9  C10 UNK     1      18.001  -1.353  35.914  1.00  0.00     0.092 A 
HETATM   10  C15 UNK     1      17.013  -0.795  34.974  1.00  0.00     0.288 A 
HETATM   11  O2  UNK     1      17.365  -0.785  33.634  1.00  0.00    -0.275 OA
HETATM   12  O3  UNK     1      15.936  -0.361  35.368  1.00  0.00    -0.260 OA
HETATM   13  C12 UNK     1      18.608  -1.285  33.195  1.00  0.00     0.090 A 
HETATM   14  C9  UNK     1      19.534  -1.812  34.097  1.00  0.00     0.006 A 
HETATM   15  C16 UNK     1      18.856  -1.225  31.823  1.00  0.00     0.045 A 
HETATM   16  C13 UNK     1      20.745  -2.290  33.581  1.00  0.00     0.015 A 
HETATM   17  C19 UNK     1      21.008  -2.236  32.207  1.00  0.00     0.007 A 
HETATM   18  C18 UNK     1      20.065  -1.705  31.329  1.00  0.00    -0.059 A 
HETATM   19  C21 UNK     1      20.351  -1.650  29.867  1.00  0.00     0.048 C 
ENDBRANCH   7   8
ENDBRANCH   1   7
BRANCH   2  20
HETATM   20  C6  UNK     1      20.696  -8.005  36.898  1.00  0.00     0.334 C 
BRANCH  20  21
HETATM   21  C8  UNK     1      22.020  -8.694  36.798  1.00  0.00     0.095 A 
HETATM   22  C11 UNK     1      22.361  -9.808  36.073  1.00  0.00     0.078 A 
HETATM   23  O1  UNK     1      23.681 -10.065  36.295  1.00  0.00    -0.293 OA
HETATM   24  C17 UNK     1      21.647 -10.717  35.171  1.00  0.00     0.079 C 
HETATM   25  C14 UNK     1      24.057  -9.075  37.150  1.00  0.00     0.187 A 
HETATM   26  N3  UNK     1      23.110  -8.228  37.486  1.00  0.00    -0.224 NA
BRANCH  25  27
HETATM   27  C20 UNK     1      25.382  -8.967  37.647  1.00  0.00     0.058 A 
HETATM   28  S1  UNK     1      26.672  -9.797  36.884  1.00  0.00    -0.098 SA
HETATM   29  C24 UNK     1      27.805  -9.180  38.010  1.00  0.00     0.050 A 
HETATM   30  C23 UNK     1      27.212  -8.360  38.945  1.00  0.00     0.009 A 
HETATM   31  C22 UNK     1      25.809  -8.238  38.735  1.00  0.00     0.024 A 
ENDBRANCH  25  27
ENDBRANCH  20  21
ENDBRANCH   2  20
TORSDOF 5
ENDMDL
MODEL 5
REMARK VINA RESULT:      -8.8     27.890     30.095
REMARK  5 active torsions:
REMARK  status: ('A' for Active; 'I' for Inactive)
REMARK    1  A    between atoms: C5_12  and  N1_5 
REMARK    2  A    between atoms: C6_13  and  N2_6 
REMARK    3  A    between atoms: C5_12  and  C7_14 
REMARK    4  A    between atoms: C6_13  and  C8_15 
REMARK    5  A    between atoms: C14_21  and  C20_27 
ROOT
HETATM    1  N1  UNK     1      10.903   6.162   8.798  1.00  0.00     0.096 N 
HETATM    2  N2  UNK     1       8.454   4.740   9.380  1.00  0.00     0.097 N 
HETATM    3  C1  UNK     1      10.918   4.750   9.199  1.00  0.00     0.303 C 
HETATM    4  C2  UNK     1       9.652   6.483   8.101  1.00  0.00     0.303 C 
HETATM    5  C3  UNK     1       9.705   4.419  10.076  1.00  0.00     0.303 C 
HETATM    6  C4  UNK     1       8.439   6.152   8.977  1.00  0.00     0.303 C 
ENDROOT
BRANCH   1   7
HETATM    7  C5  UNK     1      12.060   6.476   7.963  1.00  0.00     0.312 C 
BRANCH   7   8
HETATM    8  C7  UNK     1      13.339   6.406   8.723  1.00  0.00    -0.011 A 
HETATM    9  C10 UNK     1      13.981   5.242   8.893  1.00  0.00     0.092 A 
HETATM   10  C15 UNK     1      15.247   5.123   9.637  1.00  0.00     0.288 A 
HETATM   11  O2  UNK     1      15.767   6.292  10.170  1.00  0.00    -0.275 OA
HETATM   12  O3  UNK     1      15.807   4.041   9.771  1.00  0.00    -0.260 OA
HETATM   13  C12 UNK     1      15.114   7.530  10.008  1.00  0.00     0.090 A 
HETATM   14  C9  UNK     1      13.914   7.627   9.301  1.00  0.00     0.006 A 
HETATM   15  C16 UNK     1      15.729   8.641  10.588  1.00  0.00     0.045 A 
HETATM   16  C13 UNK     1      13.329   8.894   9.185  1.00  0.00     0.015 A 
HETATM   17  C19 UNK     1      13.933  10.017   9.762  1.00  0.00     0.007 A 
HETATM   18  C18 UNK     1      15.131   9.891  10.462  1.00  0.00    -0.059 A 
HETATM   19  C21 UNK     1      15.770  11.091  11.073  1.00  0.00     0.048 C 
ENDBRANCH   7   8
ENDBRANCH   1   7
BRANCH   2  20
HETATM   20  C6  UNK     1       7.298   4.428  10.218  1.00  0.00     0.334 C 
BRANCH  20  21
HETATM   21  C8  UNK     1       6.614   3.211   9.682  1.00  0.00     0.095 A 
HETATM   22  C11 UNK     1       5.752   2.354  10.318  1.00  0.00     0.078 A 
HETATM   23  O1  UNK     1       5.386   1.390   9.428  1.00  0.00    -0.293 OA
HETATM   24  C17 UNK     1       5.183   2.267  11.668  1.00  0.00     0.079 C 
HETATM   25  C14 UNK     1       6.058   1.733   8.295  1.00  0.00     0.187 A 
HETATM   26  N3  UNK     1       6.806   2.809   8.385  1.00  0.00    -0.224 NA
BRANCH  25  27
HETATM   27  C20 UNK     1       5.958   0.976   7.098  1.00  0.00     0.058 A 
HETATM   28  S1  UNK     1       7.108  -0.239   6.732  1.00  0.00    -0.098 SA
HETATM   29  C24 UNK     1       6.322  -0.615   5.259  1.00  0.00     0.050 A 
HETATM   30  C23 UNK     1       5.208   0.168   5.052  1.00  0.00     0.009 A 
HETATM   31  C22 UNK     1       4.998   1.091   6.116  1.00  0.00     0.024 A 
ENDBRANCH  25  27
ENDBRANCH  20  21
ENDBRANCH   2  20
TORSDOF 5
ENDMDL
MODEL 6
REMARK VINA RESULT:      -8.8      2.458      3.264
REMARK  5 active torsions:
REMARK  status: ('A' for Active; 'I' for Inactive)
REMARK    1  A    between atoms: C5_12  and  N1_5 
REMARK    2  A    between atoms: C6_13  and  N2_6 
REMARK    3  A    between atoms: C5_12  and  C7_14 
REMARK    4  A    between atoms: C6_13  and  C8_15 
REMARK    5  A    between atoms: C14_21  and  C20_27 
ROOT
HETATM    1  N1  UNK     1      19.456  -3.267  36.561  1.00  0.00     0.096 N 
HETATM    2  N2  UNK     1      18.558  -0.579  35.993  1.00  0.00     0.097 N 
HETATM    3  C1  UNK     1      20.168  -2.412  35.603  1.00  0.00     0.303 C 
HETATM    4  C2  UNK     1      18.801  -2.450  37.589  1.00  0.00     0.303 C 
HETATM    5  C3  UNK     1      19.214  -1.396  34.966  1.00  0.00     0.303 C 
HETATM    6  C4  UNK     1      17.847  -1.434  36.952  1.00  0.00     0.303 C 
ENDROOT
BRANCH   1   7
HETATM    7  C5  UNK     1      20.367  -4.235  37.168  1.00  0.00     0.312 C 
BRANCH   7   8
HETATM    8  C7  UNK     1      20.256  -5.582  36.540  1.00  0.00    -0.011 A 
HETATM    9  C10 UNK     1      20.322  -5.735  35.210  1.00  0.00     0.092 A 
HETATM   10  C15 UNK     1      20.216  -7.045  34.546  1.00  0.00     0.288 A 
HETATM   11  O2  UNK     1      20.043  -8.147  35.367  1.00  0.00    -0.275 OA
HETATM   12  O3  UNK     1      20.282  -7.146  33.326  1.00  0.00    -0.260 OA
HETATM   13  C12 UNK     1      19.971  -8.018  36.769  1.00  0.00     0.090 A 
HETATM   14  C9  UNK     1      20.071  -6.769  37.385  1.00  0.00     0.006 A 
HETATM   15  C16 UNK     1      19.795  -9.196  37.497  1.00  0.00     0.045 A 
HETATM   16  C13 UNK     1      19.989  -6.726  38.783  1.00  0.00     0.015 A 
HETATM   17  C19 UNK     1      19.813  -7.899  39.526  1.00  0.00     0.007 A 
HETATM   18  C18 UNK     1      19.715  -9.132  38.884  1.00  0.00    -0.059 A 
HETATM   19  C21 UNK     1      19.528 -10.377  39.681  1.00  0.00     0.048 C 
ENDBRANCH   7   8
ENDBRANCH   1   7
BRANCH   2  20
HETATM   20  C6  UNK     1      17.645   0.388  35.384  1.00  0.00     0.334 C 
BRANCH  20  21
HETATM   21  C8  UNK     1      18.163   0.774  34.036  1.00  0.00     0.095 A 
HETATM   22  C11 UNK     1      18.325   2.027  33.499  1.00  0.00     0.078 A 
HETATM   23  O1  UNK     1      18.828   1.882  32.241  1.00  0.00    -0.293 OA
HETATM   24  C17 UNK     1      18.084   3.395  33.968  1.00  0.00     0.079 C 
HETATM   25  C14 UNK     1      18.941   0.533  32.098  1.00  0.00     0.187 A 
HETATM   26  N3  UNK     1      18.559  -0.179  33.134  1.00  0.00    -0.224 NA
BRANCH  25  27
HETATM   27  C20 UNK     1      19.435  -0.062  30.907  1.00  0.00     0.058 A 
HETATM   28  S1  UNK     1      19.336   0.763  29.410  1.00  0.00    -0.098 SA
HETATM   29  C24 UNK     1      20.083  -0.536  28.583  1.00  0.00     0.050 A 
HETATM   30  C23 UNK     1      20.400  -1.575  29.430  1.00  0.00     0.009 A 
HETATM   31  C22 UNK     1      20.023  -1.301  30.777  1.00  0.00     0.024 A 
ENDBRANCH  25  27
ENDBRANCH  20  21
ENDBRANCH   2  20
TORSDOF 5
ENDMDL
MODEL 7
REMARK VINA RESULT:      -8.8      9.337     13.146
REMARK  5 active torsions:
REMARK  status: ('A' for Active; 'I' for Inactive)
REMARK    1  A    between atoms: C5_12  and  N1_5 
REMARK    2  A    between atoms: C6_13  and  N2_6 
REMARK    3  A    between atoms: C5_12  and  C7_14 
REMARK    4  A    between atoms: C6_13  and  C8_15 
REMARK    5  A    between atoms: C14_21  and  C20_27 
ROOT
HETATM    1  N1  UNK     1      30.035  -6.478  34.993  1.00  0.00     0.096 N 
HETATM    2  N2  UNK     1      28.822  -6.738  37.605  1.00  0.00     0.097 N 
HETATM    3  C1  UNK     1      30.828  -6.332  36.220  1.00  0.00     0.303 C 
HETATM    4  C2  UNK     1      28.903  -7.384  35.220  1.00  0.00     0.303 C 
HETATM    5  C3  UNK     1      29.955  -5.834  37.377  1.00  0.00     0.303 C 
HETATM    6  C4  UNK     1      28.030  -6.886  36.377  1.00  0.00     0.303 C 
ENDROOT
BRANCH   1   7
HETATM    7  C5  UNK     1      30.868  -6.953  33.891  1.00  0.00     0.312 C 
BRANCH   7   8
HETATM    8  C7  UNK     1      30.395  -6.451  32.571  1.00  0.00    -0.011 A 
HETATM    9  C10 UNK     1      30.398  -5.141  32.286  1.00  0.00     0.092 A 
HETATM   10  C15 UNK     1      29.939  -4.598  30.996  1.00  0.00     0.288 A 
HETATM   11  O2  UNK     1      29.492  -5.515  30.059  1.00  0.00    -0.275 OA
HETATM   12  O3  UNK     1      29.957  -3.393  30.772  1.00  0.00    -0.260 OA
HETATM   13  C12 UNK     1      29.478  -6.898  30.329  1.00  0.00     0.090 A 
HETATM   14  C9  UNK     1      29.915  -7.398  31.557  1.00  0.00     0.006 A 
HETATM   15  C16 UNK     1      29.007  -7.729  29.311  1.00  0.00     0.045 A 
HETATM   16  C13 UNK     1      29.868  -8.785  31.747  1.00  0.00     0.015 A 
HETATM   17  C19 UNK     1      29.398  -9.631  30.736  1.00  0.00     0.007 A 
HETATM   18  C18 UNK     1      28.968  -9.104  29.520  1.00  0.00    -0.059 A 
HETATM   19  C21 UNK     1      28.469 -10.010  28.446  1.00  0.00     0.048 C 
ENDBRANCH   7   8
ENDBRANCH   1   7
BRANCH   2  20
HETATM   20  C6  UNK     1      27.988  -6.260  38.706  1.00  0.00     0.334 C 
BRANCH  20  21
HETATM   21  C8  UNK     1      26.833  -7.192  38.890  1.00  0.00     0.095 A 
HETATM   22  C11 UNK     1      26.839  -8.509  39.276  1.00  0.00     0.078 A 
HETATM   23  O1  UNK     1      25.548  -8.943  39.304  1.00  0.00    -0.293 OA
HETATM   24  C17 UNK     1      27.878  -9.479  39.639  1.00  0.00     0.079 C 
HETATM   25  C14 UNK     1      24.836  -7.846  38.930  1.00  0.00     0.187 A 
HETATM   26  N3  UNK     1      25.547  -6.772  38.670  1.00  0.00    -0.224 NA
BRANCH  25  27
HETATM   27  C20 UNK     1      23.420  -7.862  38.825  1.00  0.00     0.058 A 
HETATM   28  S1  UNK     1      22.654  -8.499  37.432  1.00  0.00    -0.098 SA
HETATM   29  C24 UNK     1      21.100  -8.163  38.068  1.00  0.00     0.050 A 
HETATM   30  C23 UNK     1      21.166  -7.578  39.314  1.00  0.00     0.009 A 
HETATM   31  C22 UNK     1      22.510  -7.403  39.752  1.00  0.00     0.024 A 
ENDBRANCH  25  27
ENDBRANCH  20  21
ENDBRANCH   2  20
TORSDOF 5
ENDMDL
MODEL 8
REMARK VINA RESULT:      -8.8      5.664     14.254
REMARK  5 active torsions:
REMARK  status: ('A' for Active; 'I' for Inactive)
REMARK    1  A    between atoms: C5_12  and  N1_5 
REMARK    2  A    between atoms: C6_13  and  N2_6 
REMARK    3  A    between atoms: C5_12  and  C7_14 
REMARK    4  A    between atoms: C6_13  and  C8_15 
REMARK    5  A    between atoms: C14_21  and  C20_27 
ROOT
HETATM    1  N1  UNK     1      16.562   8.468  33.837  1.00  0.00     0.096 N 
HETATM    2  N2  UNK     1      17.672   6.081  32.643  1.00  0.00     0.097 N 
HETATM    3  C1  UNK     1      15.710   7.326  33.486  1.00  0.00     0.303 C 
HETATM    4  C2  UNK     1      17.920   8.015  34.162  1.00  0.00     0.303 C 
HETATM    5  C3  UNK     1      16.314   6.534  32.320  1.00  0.00     0.303 C 
HETATM    6  C4  UNK     1      18.523   7.224  32.996  1.00  0.00     0.303 C 
ENDROOT
BRANCH   1   7
HETATM    7  C5  UNK     1      15.985   9.222  34.949  1.00  0.00     0.312 C 
BRANCH   7   8
HETATM    8  C7  UNK     1      15.308  10.468  34.492  1.00  0.00    -0.011 A 
HETATM    9  C10 UNK     1      13.979  10.515  34.330  1.00  0.00     0.092 A 
HETATM   10  C15 UNK     1      13.266  11.724  33.881  1.00  0.00     0.288 A 
HETATM   11  O2  UNK     1      14.041  12.844  33.625  1.00  0.00    -0.275 OA
HETATM   12  O3  UNK     1      12.048  11.729  33.745  1.00  0.00    -0.260 OA
HETATM   13  C12 UNK     1      15.441  12.824  33.787  1.00  0.00     0.090 A 
HETATM   14  C9  UNK     1      16.103  11.671  34.213  1.00  0.00     0.006 A 
HETATM   15  C16 UNK     1      16.119  14.010  33.500  1.00  0.00     0.045 A 
HETATM   16  C13 UNK     1      17.496  11.734  34.348  1.00  0.00     0.015 A 
HETATM   17  C19 UNK     1      18.190  12.916  34.064  1.00  0.00     0.007 A 
HETATM   18  C18 UNK     1      17.503  14.052  33.641  1.00  0.00    -0.059 A 
HETATM   19  C21 UNK     1      18.248  15.308  33.340  1.00  0.00     0.048 C 
ENDBRANCH   7   8
ENDBRANCH   1   7
BRANCH   2  20
HETATM   20  C6  UNK     1      18.248   5.330  31.529  1.00  0.00     0.334 C 
BRANCH  20  21
HETATM   21  C8  UNK     1      18.260   3.874  31.870  1.00  0.00     0.095 A 
HETATM   22  C11 UNK     1      18.348   2.792  31.031  1.00  0.00     0.078 A 
HETATM   23  O1  UNK     1      18.321   1.665  31.797  1.00  0.00    -0.293 OA
HETATM   24  C17 UNK     1      18.458   2.610  29.580  1.00  0.00     0.079 C 
HETATM   25  C14 UNK     1      18.218   2.146  33.066  1.00  0.00     0.187 A 
HETATM   26  N3  UNK     1      18.177   3.455  33.173  1.00  0.00    -0.224 NA
BRANCH  25  27
HETATM   27  C20 UNK     1      18.157   1.290  34.197  1.00  0.00     0.058 A 
HETATM   28  S1  UNK     1      18.123   1.937  35.782  1.00  0.00    -0.098 SA
HETATM   29  C24 UNK     1      18.057   0.373  36.477  1.00  0.00     0.050 A 
HETATM   30  C23 UNK     1      18.060  -0.618  35.520  1.00  0.00     0.009 A 
HETATM   31  C22 UNK     1      18.119  -0.087  34.200  1.00  0.00     0.024 A 
ENDBRANCH  25  27
ENDBRANCH  20  21
ENDBRANCH   2  20
TORSDOF 5
ENDMDL
MODEL 9
REMARK VINA RESULT:      -8.8      5.791     14.661
REMARK  5 active torsions:
REMARK  status: ('A' for Active; 'I' for Inactive)
REMARK    1  A    between atoms: C5_12  and  N1_5 
REMARK    2  A    between atoms: C6_13  and  N2_6 
REMARK    3  A    between atoms: C5_12  and  C7_14 
REMARK    4  A    between atoms: C6_13  and  C8_15 
REMARK    5  A    between atoms: C14_21  and  C20_27 
ROOT
HETATM    1  N1  UNK     1      16.761   8.712  33.597  1.00  0.00     0.096 N 
HETATM    2  N2  UNK     1      17.688   6.179  32.558  1.00  0.00     0.097 N 
HETATM    3  C1  UNK     1      15.820   7.640  33.252  1.00  0.00     0.303 C 
HETATM    4  C2  UNK     1      18.053   8.148  34.006  1.00  0.00     0.303 C 
HETATM    5  C3  UNK     1      16.396   6.743  32.151  1.00  0.00     0.303 C 
HETATM    6  C4  UNK     1      18.629   7.251  32.905  1.00  0.00     0.303 C 
ENDROOT
BRANCH   1   7
HETATM    7  C5  UNK     1      16.211   9.566  34.647  1.00  0.00     0.312 C 
BRANCH   7   8
HETATM    8  C7  UNK     1      16.226  11.007  34.266  1.00  0.00    -0.011 A 
HETATM    9  C10 UNK     1      17.372  11.702  34.233  1.00  0.00     0.092 A 
HETATM   10  C15 UNK     1      17.436  13.127  33.863  1.00  0.00     0.288 A 
HETATM   11  O2  UNK     1      16.237  13.741  33.540  1.00  0.00    -0.275 OA
HETATM   12  O3  UNK     1      18.503  13.730  33.844  1.00  0.00    -0.260 OA
HETATM   13  C12 UNK     1      15.017  13.035  33.566  1.00  0.00     0.090 A 
HETATM   14  C9  UNK     1      14.971  11.685  33.920  1.00  0.00     0.006 A 
HETATM   15  C16 UNK     1      13.871  13.755  33.222  1.00  0.00     0.045 A 
HETATM   16  C13 UNK     1      13.719  11.056  33.921  1.00  0.00     0.015 A 
HETATM   17  C19 UNK     1      12.562  11.765  33.579  1.00  0.00     0.007 A 
HETATM   18  C18 UNK     1      12.638  13.112  33.230  1.00  0.00    -0.059 A 
HETATM   19  C21 UNK     1      11.401  13.861  32.866  1.00  0.00     0.048 C 
ENDBRANCH   7   8
ENDBRANCH   1   7
BRANCH   2  20
HETATM   20  C6  UNK     1      18.238   5.327  31.505  1.00  0.00     0.334 C 
BRANCH  20  21
HETATM   21  C8  UNK     1      18.230   3.905  31.967  1.00  0.00     0.095 A 
HETATM   22  C11 UNK     1      18.315   2.755  31.223  1.00  0.00     0.078 A 
HETATM   23  O1  UNK     1      18.266   1.696  32.081  1.00  0.00    -0.293 OA
HETATM   24  C17 UNK     1      18.440   2.450  29.794  1.00  0.00     0.079 C 
HETATM   25  C14 UNK     1      18.154   2.284  33.303  1.00  0.00     0.187 A 
HETATM   26  N3  UNK     1      18.127   3.597  33.299  1.00  0.00    -0.224 NA
BRANCH  25  27
HETATM   27  C20 UNK     1      18.069   1.526  34.501  1.00  0.00     0.058 A 
HETATM   28  S1  UNK     1      17.923  -0.179  34.449  1.00  0.00    -0.098 SA
HETATM   29  C24 UNK     1      17.886  -0.281  36.158  1.00  0.00     0.050 A 
HETATM   30  C23 UNK     1      17.983   0.957  36.753  1.00  0.00     0.009 A 
HETATM   31  C22 UNK     1      18.089   2.004  35.793  1.00  0.00     0.024 A 
ENDBRANCH  25  27
ENDBRANCH  20  21
ENDBRANCH   2  20
TORSDOF 5
ENDMDL
MODEL 10
REMARK VINA RESULT:      -8.7      7.392     10.608
REMARK  5 active torsions:
REMARK  status: ('A' for Active; 'I' for Inactive)
REMARK    1  A    between atoms: C5_12  and  N1_5 
REMARK    2  A    between atoms: C6_13  and  N2_6 
REMARK    3  A    between atoms: C5_12  and  C7_14 
REMARK    4  A    between atoms: C6_13  and  C8_15 
REMARK    5  A    between atoms: C14_21  and  C20_27 
ROOT
HETATM    1  N1  UNK     1      17.390   6.002  32.807  1.00  0.00     0.096 N 
HETATM    2  N2  UNK     1      16.412   8.516  33.847  1.00  0.00     0.097 N 
HETATM    3  C1  UNK     1      16.083   6.536  32.406  1.00  0.00     0.303 C 
HETATM    4  C2  UNK     1      18.309   7.095  33.144  1.00  0.00     0.303 C 
HETATM    5  C3  UNK     1      15.494   7.422  33.509  1.00  0.00     0.303 C 
HETATM    6  C4  UNK     1      17.720   7.982  34.247  1.00  0.00     0.303 C 
ENDROOT
BRANCH   1   7
HETATM    7  C5  UNK     1      17.950   5.157  31.754  1.00  0.00     0.312 C 
BRANCH   7   8
HETATM    8  C7  UNK     1      18.194   3.764  32.222  1.00  0.00    -0.011 A 
HETATM    9  C10 UNK     1      18.098   3.441  33.519  1.00  0.00     0.092 A 
HETATM   10  C15 UNK     1      18.330   2.078  34.027  1.00  0.00     0.288 A 
HETATM   11  O2  UNK     1      18.660   1.112  33.090  1.00  0.00    -0.275 OA
HETATM   12  O3  UNK     1      18.232   1.820  35.222  1.00  0.00    -0.260 OA
HETATM   13  C12 UNK     1      18.768   1.422  31.719  1.00  0.00     0.090 A 
HETATM   14  C9  UNK     1      18.546   2.719  31.252  1.00  0.00     0.006 A 
HETATM   15  C16 UNK     1      19.106   0.370  30.866  1.00  0.00     0.045 A 
HETATM   16  C13 UNK     1      18.673   2.944  29.875  1.00  0.00     0.015 A 
HETATM   17  C19 UNK     1      19.012   1.899  29.007  1.00  0.00     0.007 A 
HETATM   18  C18 UNK     1      19.229   0.614  29.502  1.00  0.00    -0.059 A 
HETATM   19  C21 UNK     1      19.588  -0.494  28.572  1.00  0.00     0.048 C 
ENDBRANCH   7   8
ENDBRANCH   1   7
BRANCH   2  20
HETATM   20  C6  UNK     1      15.851   9.358  34.902  1.00  0.00     0.334 C 
BRANCH  20  21
HETATM   21  C8  UNK     1      15.781  10.772  34.419  1.00  0.00     0.095 A 
HETATM   22  C11 UNK     1      14.771  11.402  33.737  1.00  0.00     0.078 A 
HETATM   23  O1  UNK     1      15.157  12.689  33.511  1.00  0.00    -0.293 OA
HETATM   24  C17 UNK     1      13.452  11.003  33.234  1.00  0.00     0.079 C 
HETATM   25  C14 UNK     1      16.391  12.755  34.081  1.00  0.00     0.187 A 
HETATM   26  N3  UNK     1      16.817  11.643  34.637  1.00  0.00    -0.224 NA
BRANCH  25  27
HETATM   27  C20 UNK     1      17.167  13.944  34.072  1.00  0.00     0.058 A 
HETATM   28  S1  UNK     1      16.459  15.452  34.466  1.00  0.00    -0.098 SA
HETATM   29  C24 UNK     1      17.945  16.271  34.231  1.00  0.00     0.050 A 
HETATM   30  C23 UNK     1      18.956  15.412  33.861  1.00  0.00     0.009 A 
HETATM   31  C22 UNK     1      18.505  14.064  33.768  1.00  0.00     0.024 A 
ENDBRANCH  25  27
ENDBRANCH  20  21
ENDBRANCH   2  20
TORSDOF 5
ENDMDL
