MODEL 1
REMARK VINA RESULT:     -10.3      0.000      0.000
REMARK  8 active torsions:
REMARK  status: ('A' for Active; 'I' for Inactive)
REMARK    1  A    between atoms: C8_16  and  O1_1 
REMARK    2  A    between atoms: C13_21  and  O2_2 
REMARK    3  A    between atoms: C16_24  and  O2_2 
REMARK       I    between atoms: C11_19  and  N2_8 
REMARK    4  A    between atoms: C3_11  and  N2_8 
REMARK    5  A    between atoms: C1_9  and  C2_10 
REMARK    6  A    between atoms: C1_9  and  C3_11 
REMARK    7  A    between atoms: C3_11  and  C8_16 
REMARK    8  A    between atoms: C11_19  and  C13_21 
ROOT
HETATM    1  O5  UNK     1      21.598  -2.179  35.552  1.00  0.00    -0.271 OA
HETATM    2  N2  UNK     1      19.321  -1.822  35.869  1.00  0.00    -0.345 N 
HETATM    3  C11 UNK     1      20.515  -2.509  36.028  1.00  0.00     0.242 C 
HETATM    4  H6  UNK     1      18.478  -2.195  36.297  1.00  0.00     0.163 HD
ENDROOT
BRANCH   2   5
HETATM    5  C3  UNK     1      19.208  -0.603  35.103  1.00  0.00     0.188 C 
BRANCH   5   6
HETATM    6  C1  UNK     1      18.239  -0.773  33.922  1.00  0.00     0.076 C 
BRANCH   6   7
HETATM    7  C2  UNK     1      18.638  -0.035  32.672  1.00  0.00    -0.028 A 
HETATM    8  C4  UNK     1      19.336  -0.586  31.583  1.00  0.00    -0.002 A 
HETATM    9  C5  UNK     1      19.488   0.447  30.655  1.00  0.00     0.042 A 
HETATM   10  C7  UNK     1      19.861  -1.857  31.274  1.00  0.00     0.014 A 
HETATM   11  N1  UNK     1      18.893   1.566  31.195  1.00  0.00    -0.365 N 
HETATM   12  C9  UNK     1      20.142   0.273  29.431  1.00  0.00     0.030 A 
HETATM   13  C6  UNK     1      18.372   1.276  32.428  1.00  0.00     0.096 A 
HETATM   14  H5  UNK     1      18.849   2.470  30.746  1.00  0.00     0.165 HD
HETATM   15  C12 UNK     1      20.655  -0.995  29.147  1.00  0.00     0.002 A 
HETATM   16  C10 UNK     1      20.517  -2.046  30.052  1.00  0.00     0.001 A 
ENDBRANCH   6   7
ENDBRANCH   5   6
BRANCH   5  17
HETATM   17  C8  UNK     1      18.846   0.595  35.971  1.00  0.00     0.281 C 
HETATM   18  O3  UNK     1      19.573   1.578  36.077  1.00  0.00    -0.263 OA
BRANCH  17  19
HETATM   19  O1  UNK     1      17.655   0.427  36.608  1.00  0.00    -0.325 OA
HETATM   20  C23 UNK     1      17.581   0.952  37.938  1.00  0.00     0.213 C 
ENDBRANCH  17  19
ENDBRANCH   5  17
ENDBRANCH   2   5
BRANCH   3  21
HETATM   21  C13 UNK     1      20.339  -3.749  36.877  1.00  0.00     0.278 C 
BRANCH  21  22
HETATM   22  O2  UNK     1      19.413  -4.649  36.268  1.00  0.00    -0.342 OA
BRANCH  22  23
HETATM   23  C16 UNK     1      19.566  -5.973  36.542  1.00  0.00     0.072 A 
HETATM   24  C18 UNK     1      20.382  -6.763  35.740  1.00  0.00     0.075 A 
HETATM   25  C15 UNK     1      20.524  -8.119  36.040  1.00  0.00     0.092 A 
HETATM   26  C14 UNK     1      19.875  -8.716  37.121  1.00  0.00     0.004 A 
HETATM   27  O4  UNK     1      21.365  -8.868  35.191  1.00  0.00    -0.275 OA
HETATM   28  C17 UNK     1      20.083 -10.151  37.363  1.00  0.00    -0.043 A 
HETATM   29  C19 UNK     1      19.057  -7.902  37.918  1.00  0.00     0.017 A 
HETATM   30  C21 UNK     1      20.886 -10.837  36.540  1.00  0.00     0.090 A 
HETATM   31  C22 UNK     1      19.398 -10.821  38.518  1.00  0.00     0.049 C 
HETATM   32  C24 UNK     1      21.579 -10.222  35.395  1.00  0.00     0.288 A 
HETATM   33  O6  UNK     1      22.308 -10.883  34.662  1.00  0.00    -0.260 OA
HETATM   34  C20 UNK     1      18.905  -6.542  37.630  1.00  0.00     0.038 A 
ENDBRANCH  22  23
ENDBRANCH  21  22
ENDBRANCH   3  21
TORSDOF 8
ENDMDL
MODEL 2
REMARK VINA RESULT:     -10.1      1.203      1.801
REMARK  8 active torsions:
REMARK  status: ('A' for Active; 'I' for Inactive)
REMARK    1  A    between atoms: C8_16  and  O1_1 
REMARK    2  A    between atoms: C13_21  and  O2_2 
REMARK    3  A    between atoms: C16_24  and  O2_2 
REMARK       I    between atoms: C11_19  and  N2_8 
REMARK    4  A    between atoms: C3_11  and  N2_8 
REMARK    5  A    between atoms: C1_9  and  C2_10 
REMARK    6  A    between atoms: C1_9  and  C3_11 
REMARK    7  A    between atoms: C3_11  and  C8_16 
REMARK    8  A    between atoms: C11_19  and  C13_21 
ROOT
HETATM    1  O5  UNK     1      21.344  -2.374  35.359  1.00  0.00    -0.271 OA
HETATM    2  N2  UNK     1      19.224  -1.674  36.012  1.00  0.00    -0.345 N 
HETATM    3  C11 UNK     1      20.322  -2.520  36.025  1.00  0.00     0.242 C 
HETATM    4  H6  UNK     1      18.422  -1.899  36.595  1.00  0.00     0.163 HD
ENDROOT
BRANCH   2   5
HETATM    5  C3  UNK     1      19.151  -0.488  35.192  1.00  0.00     0.188 C 
BRANCH   5   6
HETATM    6  C1  UNK     1      18.174  -0.678  34.021  1.00  0.00     0.076 C 
BRANCH   6   7
HETATM    7  C2  UNK     1      18.583   0.007  32.744  1.00  0.00    -0.028 A 
HETATM    8  C4  UNK     1      19.299  -0.586  31.689  1.00  0.00    -0.002 A 
HETATM    9  C5  UNK     1      19.455   0.406  30.719  1.00  0.00     0.042 A 
HETATM   10  C7  UNK     1      19.837  -1.865  31.443  1.00  0.00     0.014 A 
HETATM   11  N1  UNK     1      18.845   1.543  31.201  1.00  0.00    -0.365 N 
HETATM   12  C9  UNK     1      20.126   0.184  29.512  1.00  0.00     0.030 A 
HETATM   13  C6  UNK     1      18.311   1.304  32.439  1.00  0.00     0.096 A 
HETATM   14  H5  UNK     1      18.800   2.426  30.712  1.00  0.00     0.165 HD
HETATM   15  C12 UNK     1      20.652  -1.092  29.290  1.00  0.00     0.002 A 
HETATM   16  C10 UNK     1      20.510  -2.103  30.240  1.00  0.00     0.001 A 
ENDBRANCH   6   7
ENDBRANCH   5   6
BRANCH   5  17
HETATM   17  C8  UNK     1      18.833   0.760  36.004  1.00  0.00     0.281 C 
HETATM   18  O3  UNK     1      19.610   1.705  36.096  1.00  0.00    -0.263 OA
BRANCH  17  19
HETATM   19  O1  UNK     1      17.617   0.682  36.612  1.00  0.00    -0.325 OA
HETATM   20  C23 UNK     1      17.592   1.029  38.001  1.00  0.00     0.213 C 
ENDBRANCH  17  19
ENDBRANCH   5  17
ENDBRANCH   2   5
BRANCH   3  21
HETATM   21  C13 UNK     1      20.124  -3.681  36.976  1.00  0.00     0.278 C 
BRANCH  21  22
HETATM   22  O2  UNK     1      19.182  -4.612  36.444  1.00  0.00    -0.342 OA
BRANCH  22  23
HETATM   23  C16 UNK     1      19.566  -5.916  36.386  1.00  0.00     0.072 A 
HETATM   24  C18 UNK     1      19.188  -6.801  37.390  1.00  0.00     0.075 A 
HETATM   25  C15 UNK     1      19.593  -8.135  37.310  1.00  0.00     0.092 A 
HETATM   26  C14 UNK     1      20.368  -8.617  36.254  1.00  0.00     0.004 A 
HETATM   27  O4  UNK     1      19.179  -8.984  38.356  1.00  0.00    -0.275 OA
HETATM   28  C17 UNK     1      20.749 -10.037  36.251  1.00  0.00    -0.043 A 
HETATM   29  C19 UNK     1      20.738  -7.709  35.252  1.00  0.00     0.017 A 
HETATM   30  C21 UNK     1      20.341 -10.820  37.258  1.00  0.00     0.090 A 
HETATM   31  C22 UNK     1      21.582 -10.584  35.129  1.00  0.00     0.049 C 
HETATM   32  C24 UNK     1      19.523 -10.327  38.379  1.00  0.00     0.288 A 
HETATM   33  O6  UNK     1      19.168 -11.074  39.284  1.00  0.00    -0.260 OA
HETATM   34  C20 UNK     1      20.340  -6.369  35.319  1.00  0.00     0.038 A 
ENDBRANCH  22  23
ENDBRANCH  21  22
ENDBRANCH   3  21
TORSDOF 8
ENDMDL
MODEL 3
REMARK VINA RESULT:      -9.9      2.493      9.532
REMARK  8 active torsions:
REMARK  status: ('A' for Active; 'I' for Inactive)
REMARK    1  A    between atoms: C8_16  and  O1_1 
REMARK    2  A    between atoms: C13_21  and  O2_2 
REMARK    3  A    between atoms: C16_24  and  O2_2 
REMARK       I    between atoms: C11_19  and  N2_8 
REMARK    4  A    between atoms: C3_11  and  N2_8 
REMARK    5  A    between atoms: C1_9  and  C2_10 
REMARK    6  A    between atoms: C1_9  and  C3_11 
REMARK    7  A    between atoms: C3_11  and  C8_16 
REMARK    8  A    between atoms: C11_19  and  C13_21 
ROOT
HETATM    1  O5  UNK     1      19.370  -2.470  38.079  1.00  0.00    -0.271 OA
HETATM    2  N2  UNK     1      19.745  -3.723  36.156  1.00  0.00    -0.345 N 
HETATM    3  C11 UNK     1      19.570  -2.548  36.870  1.00  0.00     0.242 C 
HETATM    4  H6  UNK     1      19.890  -3.673  35.151  1.00  0.00     0.163 HD
ENDROOT
BRANCH   2   5
HETATM    5  C3  UNK     1      19.711  -5.031  36.768  1.00  0.00     0.188 C 
BRANCH   5   6
HETATM    6  C1  UNK     1      19.591  -6.140  35.710  1.00  0.00     0.076 C 
BRANCH   6   7
HETATM    7  C2  UNK     1      19.405  -7.525  36.270  1.00  0.00    -0.028 A 
HETATM    8  C4  UNK     1      20.333  -8.578  36.177  1.00  0.00    -0.002 A 
HETATM    9  C5  UNK     1      19.752  -9.667  36.829  1.00  0.00     0.042 A 
HETATM   10  C7  UNK     1      21.613  -8.732  35.609  1.00  0.00     0.014 A 
HETATM   11  N1  UNK     1      18.520  -9.255  37.287  1.00  0.00    -0.365 N 
HETATM   12  C9  UNK     1      20.388 -10.908  36.940  1.00  0.00     0.030 A 
HETATM   13  C6  UNK     1      18.304  -7.946  36.947  1.00  0.00     0.096 A 
HETATM   14  H5  UNK     1      17.870  -9.835  37.799  1.00  0.00     0.165 HD
HETATM   15  C12 UNK     1      21.657 -11.038  36.369  1.00  0.00     0.002 A 
HETATM   16  C10 UNK     1      22.262  -9.967  35.713  1.00  0.00     0.001 A 
ENDBRANCH   6   7
ENDBRANCH   5   6
BRANCH   5  17
HETATM   17  C8  UNK     1      20.887  -5.262  37.707  1.00  0.00     0.281 C 
HETATM   18  O3  UNK     1      22.034  -4.929  37.425  1.00  0.00    -0.263 OA
BRANCH  17  19
HETATM   19  O1  UNK     1      20.511  -5.884  38.859  1.00  0.00    -0.325 OA
HETATM   20  C23 UNK     1      21.415  -6.879  39.351  1.00  0.00     0.213 C 
ENDBRANCH  17  19
ENDBRANCH   5  17
ENDBRANCH   2   5
BRANCH   3  21
HETATM   21  C13 UNK     1      19.655  -1.331  35.974  1.00  0.00     0.278 C 
BRANCH  21  22
HETATM   22  O2  UNK     1      18.603  -1.342  35.010  1.00  0.00    -0.342 OA
BRANCH  22  23
HETATM   23  C16 UNK     1      18.936  -1.032  33.727  1.00  0.00     0.072 A 
HETATM   24  C18 UNK     1      18.523   0.173  33.170  1.00  0.00     0.075 A 
HETATM   25  C15 UNK     1      18.877   0.470  31.852  1.00  0.00     0.092 A 
HETATM   26  C14 UNK     1      19.633  -0.402  31.068  1.00  0.00     0.004 A 
HETATM   27  O4  UNK     1      18.430   1.706  31.343  1.00  0.00    -0.275 OA
HETATM   28  C17 UNK     1      19.960  -0.006  29.690  1.00  0.00    -0.043 A 
HETATM   29  C19 UNK     1      20.040  -1.611  31.649  1.00  0.00     0.017 A 
HETATM   30  C21 UNK     1      19.521   1.174  29.233  1.00  0.00     0.090 A 
HETATM   31  C22 UNK     1      20.771  -0.923  28.823  1.00  0.00     0.049 C 
HETATM   32  C24 UNK     1      18.723   2.105  30.048  1.00  0.00     0.288 A 
HETATM   33  O6  UNK     1      18.338   3.178  29.595  1.00  0.00    -0.260 OA
HETATM   34  C20 UNK     1      19.693  -1.923  32.967  1.00  0.00     0.038 A 
ENDBRANCH  22  23
ENDBRANCH  21  22
ENDBRANCH   3  21
TORSDOF 8
ENDMDL
MODEL 4
REMARK VINA RESULT:      -9.7      2.657      9.550
REMARK  8 active torsions:
REMARK  status: ('A' for Active; 'I' for Inactive)
REMARK    1  A    between atoms: C8_16  and  O1_1 
REMARK    2  A    between atoms: C13_21  and  O2_2 
REMARK    3  A    between atoms: C16_24  and  O2_2 
REMARK       I    between atoms: C11_19  and  N2_8 
REMARK    4  A    between atoms: C3_11  and  N2_8 
REMARK    5  A    between atoms: C1_9  and  C2_10 
REMARK    6  A    between atoms: C1_9  and  C3_11 
REMARK    7  A    between atoms: C3_11  and  C8_16 
REMARK    8  A    between atoms: C11_19  and  C13_21 
ROOT
HETATM    1  O5  UNK     1      19.465  -2.501  38.003  1.00  0.00    -0.271 OA
HETATM    2  N2  UNK     1      19.662  -3.873  36.135  1.00  0.00    -0.345 N 
HETATM    3  C11 UNK     1      19.607  -2.654  36.793  1.00  0.00     0.242 C 
HETATM    4  H6  UNK     1      19.768  -3.883  35.124  1.00  0.00     0.163 HD
ENDROOT
BRANCH   2   5
HETATM    5  C3  UNK     1      19.557  -5.143  36.816  1.00  0.00     0.188 C 
BRANCH   5   6
HETATM    6  C1  UNK     1      19.287  -6.287  35.825  1.00  0.00     0.076 C 
BRANCH   6   7
HETATM    7  C2  UNK     1      19.271  -7.661  36.441  1.00  0.00    -0.028 A 
HETATM    8  C4  UNK     1      20.228  -8.667  36.222  1.00  0.00    -0.002 A 
HETATM    9  C5  UNK     1      19.821  -9.763  36.987  1.00  0.00     0.042 A 
HETATM   10  C7  UNK     1      21.405  -8.775  35.455  1.00  0.00     0.014 A 
HETATM   11  N1  UNK     1      18.660  -9.398  37.630  1.00  0.00    -0.365 N 
HETATM   12  C9  UNK     1      20.535 -10.966  37.022  1.00  0.00     0.030 A 
HETATM   13  C6  UNK     1      18.320  -8.114  37.299  1.00  0.00     0.096 A 
HETATM   14  H5  UNK     1      18.135  -9.994  38.256  1.00  0.00     0.165 HD
HETATM   15  C12 UNK     1      21.699 -11.050  36.253  1.00  0.00     0.002 A 
HETATM   16  C10 UNK     1      22.130  -9.972  35.481  1.00  0.00     0.001 A 
ENDBRANCH   6   7
ENDBRANCH   5   6
BRANCH   5  17
HETATM   17  C8  UNK     1      20.762  -5.427  37.702  1.00  0.00     0.281 C 
HETATM   18  O3  UNK     1      21.914  -5.213  37.341  1.00  0.00    -0.263 OA
BRANCH  17  19
HETATM   19  O1  UNK     1      20.402  -5.951  38.907  1.00  0.00    -0.325 OA
HETATM   20  C23 UNK     1      21.263  -6.971  39.424  1.00  0.00     0.213 C 
ENDBRANCH  17  19
ENDBRANCH   5  17
ENDBRANCH   2   5
BRANCH   3  21
HETATM   21  C13 UNK     1      19.744  -1.493  35.831  1.00  0.00     0.278 C 
BRANCH  21  22
HETATM   22  O2  UNK     1      18.556  -1.339  35.055  1.00  0.00    -0.342 OA
BRANCH  22  23
HETATM   23  C16 UNK     1      18.639  -0.555  33.946  1.00  0.00     0.072 A 
HETATM   24  C18 UNK     1      19.122  -1.082  32.753  1.00  0.00     0.075 A 
HETATM   25  C15 UNK     1      19.198  -0.260  31.627  1.00  0.00     0.092 A 
HETATM   26  C14 UNK     1      18.805   1.079  31.653  1.00  0.00     0.004 A 
HETATM   27  O4  UNK     1      19.695  -0.850  30.447  1.00  0.00    -0.275 OA
HETATM   28  C17 UNK     1      18.919   1.870  30.420  1.00  0.00    -0.043 A 
HETATM   29  C19 UNK     1      18.320   1.590  32.865  1.00  0.00     0.017 A 
HETATM   30  C21 UNK     1      19.395   1.283  29.314  1.00  0.00     0.090 A 
HETATM   31  C22 UNK     1      18.504   3.313  30.417  1.00  0.00     0.049 C 
HETATM   32  C24 UNK     1      19.813  -0.128  29.270  1.00  0.00     0.288 A 
HETATM   33  O6  UNK     1      20.245  -0.632  28.238  1.00  0.00    -0.260 OA
HETATM   34  C20 UNK     1      18.239   0.779  34.002  1.00  0.00     0.038 A 
ENDBRANCH  22  23
ENDBRANCH  21  22
ENDBRANCH   3  21
TORSDOF 8
ENDMDL
MODEL 5
REMARK VINA RESULT:      -9.5      2.615     10.000
REMARK  8 active torsions:
REMARK  status: ('A' for Active; 'I' for Inactive)
REMARK    1  A    between atoms: C8_16  and  O1_1 
REMARK    2  A    between atoms: C13_21  and  O2_2 
REMARK    3  A    between atoms: C16_24  and  O2_2 
REMARK       I    between atoms: C11_19  and  N2_8 
REMARK    4  A    between atoms: C3_11  and  N2_8 
REMARK    5  A    between atoms: C1_9  and  C2_10 
REMARK    6  A    between atoms: C1_9  and  C3_11 
REMARK    7  A    between atoms: C3_11  and  C8_16 
REMARK    8  A    between atoms: C11_19  and  C13_21 
ROOT
HETATM    1  O5  UNK     1      19.298  -2.530  37.565  1.00  0.00    -0.271 OA
HETATM    2  N2  UNK     1      19.545  -4.315  36.094  1.00  0.00    -0.345 N 
HETATM    3  C11 UNK     1      19.491  -2.972  36.436  1.00  0.00     0.242 C 
HETATM    4  H6  UNK     1      19.697  -4.570  35.123  1.00  0.00     0.163 HD
ENDROOT
BRANCH   2   5
HETATM    5  C3  UNK     1      19.376  -5.381  37.054  1.00  0.00     0.188 C 
BRANCH   5   6
HETATM    6  C1  UNK     1      18.798  -6.642  36.392  1.00  0.00     0.076 C 
BRANCH   6   7
HETATM    7  C2  UNK     1      19.802  -7.469  35.633  1.00  0.00    -0.028 A 
HETATM    8  C4  UNK     1      20.345  -8.693  36.060  1.00  0.00    -0.002 A 
HETATM    9  C5  UNK     1      21.223  -9.101  35.054  1.00  0.00     0.042 A 
HETATM   10  C7  UNK     1      20.189  -9.511  37.197  1.00  0.00     0.014 A 
HETATM   11  N1  UNK     1      21.188  -8.138  34.071  1.00  0.00    -0.365 N 
HETATM   12  C9  UNK     1      21.958 -10.290  35.129  1.00  0.00     0.030 A 
HETATM   13  C6  UNK     1      20.321  -7.137  34.421  1.00  0.00     0.096 A 
HETATM   14  H5  UNK     1      21.726  -8.164  33.216  1.00  0.00     0.165 HD
HETATM   15  C12 UNK     1      21.788 -11.085  36.265  1.00  0.00     0.002 A 
HETATM   16  C10 UNK     1      20.917 -10.704  37.285  1.00  0.00     0.001 A 
ENDBRANCH   6   7
ENDBRANCH   5   6
BRANCH   5  17
HETATM   17  C8  UNK     1      20.656  -5.675  37.825  1.00  0.00     0.281 C 
HETATM   18  O3  UNK     1      21.762  -5.322  37.430  1.00  0.00    -0.263 OA
BRANCH  17  19
HETATM   19  O1  UNK     1      20.418  -6.377  38.968  1.00  0.00    -0.325 OA
HETATM   20  C23 UNK     1      21.523  -7.131  39.476  1.00  0.00     0.213 C 
ENDBRANCH  17  19
ENDBRANCH   5  17
ENDBRANCH   2   5
BRANCH   3  21
HETATM   21  C13 UNK     1      19.702  -2.080  35.232  1.00  0.00     0.278 C 
BRANCH  21  22
HETATM   22  O2  UNK     1      18.668  -1.100  35.144  1.00  0.00    -0.342 OA
BRANCH  22  23
HETATM   23  C16 UNK     1      18.661  -0.305  34.039  1.00  0.00     0.072 A 
HETATM   24  C18 UNK     1      18.345   1.044  34.152  1.00  0.00     0.075 A 
HETATM   25  C15 UNK     1      18.344   1.842  33.007  1.00  0.00     0.092 A 
HETATM   26  C14 UNK     1      18.650   1.333  31.743  1.00  0.00     0.004 A 
HETATM   27  O4  UNK     1      18.017   3.201  33.184  1.00  0.00    -0.275 OA
HETATM   28  C17 UNK     1      18.625   2.245  30.592  1.00  0.00    -0.043 A 
HETATM   29  C19 UNK     1      18.966  -0.030  31.651  1.00  0.00     0.017 A 
HETATM   30  C21 UNK     1      18.310   3.532  30.791  1.00  0.00     0.090 A 
HETATM   31  C22 UNK     1      18.949   1.728  29.221  1.00  0.00     0.049 C 
HETATM   32  C24 UNK     1      17.986   4.085  32.116  1.00  0.00     0.288 A 
HETATM   33  O6  UNK     1      17.702   5.269  32.260  1.00  0.00    -0.260 OA
HETATM   34  C20 UNK     1      18.971  -0.842  32.790  1.00  0.00     0.038 A 
ENDBRANCH  22  23
ENDBRANCH  21  22
ENDBRANCH   3  21
TORSDOF 8
ENDMDL
MODEL 6
REMARK VINA RESULT:      -9.5      5.023     11.743
REMARK  8 active torsions:
REMARK  status: ('A' for Active; 'I' for Inactive)
REMARK    1  A    between atoms: C8_16  and  O1_1 
REMARK    2  A    between atoms: C13_21  and  O2_2 
REMARK    3  A    between atoms: C16_24  and  O2_2 
REMARK       I    between atoms: C11_19  and  N2_8 
REMARK    4  A    between atoms: C3_11  and  N2_8 
REMARK    5  A    between atoms: C1_9  and  C2_10 
REMARK    6  A    between atoms: C1_9  and  C3_11 
REMARK    7  A    between atoms: C3_11  and  C8_16 
REMARK    8  A    between atoms: C11_19  and  C13_21 
ROOT
HETATM    1  O5  UNK     1      18.510   2.121  32.995  1.00  0.00    -0.271 OA
HETATM    2  N2  UNK     1      18.951   0.811  31.124  1.00  0.00    -0.345 N 
HETATM    3  C11 UNK     1      18.488   1.941  31.781  1.00  0.00     0.242 C 
HETATM    4  H6  UNK     1      18.870   0.761  30.112  1.00  0.00     0.163 HD
ENDROOT
BRANCH   2   5
HETATM    5  C3  UNK     1      19.532  -0.319  31.812  1.00  0.00     0.188 C 
BRANCH   5   6
HETATM    6  C1  UNK     1      18.462  -1.124  32.566  1.00  0.00     0.076 C 
BRANCH   6   7
HETATM    7  C2  UNK     1      18.669  -1.203  34.055  1.00  0.00    -0.028 A 
HETATM    8  C4  UNK     1      17.841  -0.616  35.029  1.00  0.00    -0.002 A 
HETATM    9  C5  UNK     1      18.405  -0.942  36.265  1.00  0.00     0.042 A 
HETATM   10  C7  UNK     1      16.666   0.160  35.003  1.00  0.00     0.014 A 
HETATM   11  N1  UNK     1      19.528  -1.696  36.011  1.00  0.00    -0.365 N 
HETATM   12  C9  UNK     1      17.850  -0.526  37.481  1.00  0.00     0.030 A 
HETATM   13  C6  UNK     1      19.694  -1.857  34.661  1.00  0.00     0.096 A 
HETATM   14  H5  UNK     1      20.142  -2.074  36.719  1.00  0.00     0.165 HD
HETATM   15  C12 UNK     1      16.685   0.243  37.430  1.00  0.00     0.002 A 
HETATM   16  C10 UNK     1      16.099   0.582  36.211  1.00  0.00     0.001 A 
ENDBRANCH   6   7
ENDBRANCH   5   6
BRANCH   5  17
HETATM   17  C8  UNK     1      20.362  -1.197  30.885  1.00  0.00     0.281 C 
HETATM   18  O3  UNK     1      20.612  -2.372  31.135  1.00  0.00    -0.263 OA
BRANCH  17  19
HETATM   19  O1  UNK     1      20.792  -0.521  29.784  1.00  0.00    -0.325 OA
HETATM   20  C23 UNK     1      20.125  -0.841  28.558  1.00  0.00     0.213 C 
ENDBRANCH  17  19
ENDBRANCH   5  17
ENDBRANCH   2   5
BRANCH   3  21
HETATM   21  C13 UNK     1      17.932   2.962  30.811  1.00  0.00     0.278 C 
BRANCH  21  22
HETATM   22  O2  UNK     1      18.893   3.986  30.554  1.00  0.00    -0.342 OA
BRANCH  22  23
HETATM   23  C16 UNK     1      18.896   5.057  31.393  1.00  0.00     0.072 A 
HETATM   24  C18 UNK     1      17.697   5.570  31.875  1.00  0.00     0.075 A 
HETATM   25  C15 UNK     1      17.723   6.669  32.736  1.00  0.00     0.092 A 
HETATM   26  C14 UNK     1      18.915   7.277  33.133  1.00  0.00     0.004 A 
HETATM   27  O4  UNK     1      16.476   7.143  33.192  1.00  0.00    -0.275 OA
HETATM   28  C17 UNK     1      18.849   8.430  34.042  1.00  0.00    -0.043 A 
HETATM   29  C19 UNK     1      20.113   6.744  32.636  1.00  0.00     0.017 A 
HETATM   30  C21 UNK     1      17.650   8.859  34.459  1.00  0.00     0.090 A 
HETATM   31  C22 UNK     1      20.113   9.104  34.487  1.00  0.00     0.049 C 
HETATM   32  C24 UNK     1      16.384   8.229  34.050  1.00  0.00     0.288 A 
HETATM   33  O6  UNK     1      15.304   8.650  34.452  1.00  0.00    -0.260 OA
HETATM   34  C20 UNK     1      20.102   5.643  31.773  1.00  0.00     0.038 A 
ENDBRANCH  22  23
ENDBRANCH  21  22
ENDBRANCH   3  21
TORSDOF 8
ENDMDL
MODEL 7
REMARK VINA RESULT:      -9.1     27.432     30.385
REMARK  8 active torsions:
REMARK  status: ('A' for Active; 'I' for Inactive)
REMARK    1  A    between atoms: C8_16  and  O1_1 
REMARK    2  A    between atoms: C13_21  and  O2_2 
REMARK    3  A    between atoms: C16_24  and  O2_2 
REMARK       I    between atoms: C11_19  and  N2_8 
REMARK    4  A    between atoms: C3_11  and  N2_8 
REMARK    5  A    between atoms: C1_9  and  C2_10 
REMARK    6  A    between atoms: C1_9  and  C3_11 
REMARK    7  A    between atoms: C3_11  and  C8_16 
REMARK    8  A    between atoms: C11_19  and  C13_21 
ROOT
HETATM    1  O5  UNK     1      12.964   7.955  11.103  1.00  0.00    -0.271 OA
HETATM    2  N2  UNK     1      14.261   7.298   9.288  1.00  0.00    -0.345 N 
HETATM    3  C11 UNK     1      13.586   8.216  10.077  1.00  0.00     0.242 C 
HETATM    4  H6  UNK     1      14.734   7.622   8.448  1.00  0.00     0.163 HD
ENDROOT
BRANCH   2   5
HETATM    5  C3  UNK     1      14.312   5.885   9.588  1.00  0.00     0.188 C 
BRANCH   5   6
HETATM    6  C1  UNK     1      13.530   5.065   8.551  1.00  0.00     0.076 C 
BRANCH   6   7
HETATM    7  C2  UNK     1      12.035   5.238   8.611  1.00  0.00    -0.028 A 
HETATM    8  C4  UNK     1      11.225   5.728   7.572  1.00  0.00    -0.002 A 
HETATM    9  C5  UNK     1       9.916   5.717   8.061  1.00  0.00     0.042 A 
HETATM   10  C7  UNK     1      11.453   6.183   6.258  1.00  0.00     0.014 A 
HETATM   11  N1  UNK     1       9.970   5.234   9.349  1.00  0.00    -0.365 N 
HETATM   12  C9  UNK     1       8.822   6.142   7.300  1.00  0.00     0.030 A 
HETATM   13  C6  UNK     1      11.264   4.940   9.690  1.00  0.00     0.096 A 
HETATM   14  H5  UNK     1       9.171   5.114   9.956  1.00  0.00     0.165 HD
HETATM   15  C12 UNK     1       9.073   6.590   6.001  1.00  0.00     0.002 A 
HETATM   16  C10 UNK     1      10.368   6.610   5.485  1.00  0.00     0.001 A 
ENDBRANCH   6   7
ENDBRANCH   5   6
BRANCH   5  17
HETATM   17  C8  UNK     1      15.739   5.381   9.758  1.00  0.00     0.281 C 
HETATM   18  O3  UNK     1      16.041   4.198   9.638  1.00  0.00    -0.263 OA
BRANCH  17  19
HETATM   19  O1  UNK     1      16.605   6.384  10.071  1.00  0.00    -0.325 OA
HETATM   20  C23 UNK     1      17.802   6.438   9.287  1.00  0.00     0.213 C 
ENDBRANCH  17  19
ENDBRANCH   5  17
ENDBRANCH   2   5
BRANCH   3  21
HETATM   21  C13 UNK     1      13.702   9.621   9.524  1.00  0.00     0.278 C 
BRANCH  21  22
HETATM   22  O2  UNK     1      14.485   9.629   8.332  1.00  0.00    -0.342 OA
BRANCH  22  23
HETATM   23  C16 UNK     1      15.544  10.483   8.293  1.00  0.00     0.072 A 
HETATM   24  C18 UNK     1      16.633  10.284   9.134  1.00  0.00     0.075 A 
HETATM   25  C15 UNK     1      17.709  11.171   9.077  1.00  0.00     0.092 A 
HETATM   26  C14 UNK     1      17.734  12.259   8.202  1.00  0.00     0.004 A 
HETATM   27  O4  UNK     1      18.783  10.918   9.954  1.00  0.00    -0.275 OA
HETATM   28  C17 UNK     1      18.908  13.142   8.209  1.00  0.00    -0.043 A 
HETATM   29  C19 UNK     1      16.626  12.441   7.362  1.00  0.00     0.017 A 
HETATM   30  C21 UNK     1      19.914  12.877   9.054  1.00  0.00     0.090 A 
HETATM   31  C22 UNK     1      18.963  14.319   7.280  1.00  0.00     0.049 C 
HETATM   32  C24 UNK     1      19.903  11.734   9.982  1.00  0.00     0.288 A 
HETATM   33  O6  UNK     1      20.843  11.523  10.742  1.00  0.00    -0.260 OA
HETATM   34  C20 UNK     1      15.541  11.560   7.407  1.00  0.00     0.038 A 
ENDBRANCH  22  23
ENDBRANCH  21  22
ENDBRANCH   3  21
TORSDOF 8
ENDMDL
MODEL 8
REMARK VINA RESULT:      -9.0      7.185     11.029
REMARK  8 active torsions:
REMARK  status: ('A' for Active; 'I' for Inactive)
REMARK    1  A    between atoms: C8_16  and  O1_1 
REMARK    2  A    between atoms: C13_21  and  O2_2 
REMARK    3  A    between atoms: C16_24  and  O2_2 
REMARK       I    between atoms: C11_19  and  N2_8 
REMARK    4  A    between atoms: C3_11  and  N2_8 
REMARK    5  A    between atoms: C1_9  and  C2_10 
REMARK    6  A    between atoms: C1_9  and  C3_11 
REMARK    7  A    between atoms: C3_11  and  C8_16 
REMARK    8  A    between atoms: C11_19  and  C13_21 
ROOT
HETATM    1  O5  UNK     1      18.869   6.905  32.388  1.00  0.00    -0.271 OA
HETATM    2  N2  UNK     1      16.762   6.283  33.151  1.00  0.00    -0.345 N 
HETATM    3  C11 UNK     1      18.087   6.058  32.810  1.00  0.00     0.242 C 
HETATM    4  H6  UNK     1      16.198   5.503  33.477  1.00  0.00     0.163 HD
ENDROOT
BRANCH   2   5
HETATM    5  C3  UNK     1      16.128   7.577  33.047  1.00  0.00     0.188 C 
BRANCH   5   6
HETATM    6  C1  UNK     1      17.032   8.687  33.606  1.00  0.00     0.076 C 
BRANCH   6   7
HETATM    7  C2  UNK     1      16.296   9.824  34.264  1.00  0.00    -0.028 A 
HETATM    8  C4  UNK     1      16.781  11.135  34.415  1.00  0.00    -0.002 A 
HETATM    9  C5  UNK     1      15.776  11.848  35.074  1.00  0.00     0.042 A 
HETATM   10  C7  UNK     1      17.968  11.807  34.061  1.00  0.00     0.014 A 
HETATM   11  N1  UNK     1      14.740  10.970  35.300  1.00  0.00    -0.365 N 
HETATM   12  C9  UNK     1      15.901  13.202  35.402  1.00  0.00     0.030 A 
HETATM   13  C6  UNK     1      15.053   9.731  34.807  1.00  0.00     0.096 A 
HETATM   14  H5  UNK     1      13.873  11.206  35.763  1.00  0.00     0.165 HD
HETATM   15  C12 UNK     1      17.088  13.847  35.042  1.00  0.00     0.002 A 
HETATM   16  C10 UNK     1      18.106  13.163  34.382  1.00  0.00     0.001 A 
ENDBRANCH   6   7
ENDBRANCH   5   6
BRANCH   5  17
HETATM   17  C8  UNK     1      15.659   7.881  31.631  1.00  0.00     0.281 C 
HETATM   18  O3  UNK     1      16.295   8.595  30.862  1.00  0.00    -0.263 OA
BRANCH  17  19
HETATM   19  O1  UNK     1      14.467   7.287  31.346  1.00  0.00    -0.325 OA
HETATM   20  C23 UNK     1      13.522   7.242  32.420  1.00  0.00     0.213 C 
ENDBRANCH  17  19
ENDBRANCH   5  17
ENDBRANCH   2   5
BRANCH   3  21
HETATM   21  C13 UNK     1      18.481   4.611  33.019  1.00  0.00     0.278 C 
BRANCH  21  22
HETATM   22  O2  UNK     1      17.663   3.748  32.231  1.00  0.00    -0.342 OA
BRANCH  22  23
HETATM   23  C16 UNK     1      18.254   2.635  31.717  1.00  0.00     0.072 A 
HETATM   24  C18 UNK     1      18.562   1.563  32.546  1.00  0.00     0.075 A 
HETATM   25  C15 UNK     1      19.168   0.430  31.999  1.00  0.00     0.092 A 
HETATM   26  C14 UNK     1      19.476   0.332  30.641  1.00  0.00     0.004 A 
HETATM   27  O4  UNK     1      19.456  -0.624  32.889  1.00  0.00    -0.275 OA
HETATM   28  C17 UNK     1      20.113  -0.898  30.150  1.00  0.00    -0.043 A 
HETATM   29  C19 UNK     1      19.156   1.424  29.822  1.00  0.00     0.017 A 
HETATM   30  C21 UNK     1      20.376  -1.883  31.019  1.00  0.00     0.090 A 
HETATM   31  C22 UNK     1      20.457  -1.033  28.696  1.00  0.00     0.049 C 
HETATM   32  C24 UNK     1      20.056  -1.796  32.454  1.00  0.00     0.288 A 
HETATM   33  O6  UNK     1      20.312  -2.719  33.220  1.00  0.00    -0.260 OA
HETATM   34  C20 UNK     1      18.550   2.566  30.356  1.00  0.00     0.038 A 
ENDBRANCH  22  23
ENDBRANCH  21  22
ENDBRANCH   3  21
TORSDOF 8
ENDMDL
MODEL 9
REMARK VINA RESULT:      -9.0      7.424     11.469
REMARK  8 active torsions:
REMARK  status: ('A' for Active; 'I' for Inactive)
REMARK    1  A    between atoms: C8_16  and  O1_1 
REMARK    2  A    between atoms: C13_21  and  O2_2 
REMARK    3  A    between atoms: C16_24  and  O2_2 
REMARK       I    between atoms: C11_19  and  N2_8 
REMARK    4  A    between atoms: C3_11  and  N2_8 
REMARK    5  A    between atoms: C1_9  and  C2_10 
REMARK    6  A    between atoms: C1_9  and  C3_11 
REMARK    7  A    between atoms: C3_11  and  C8_16 
REMARK    8  A    between atoms: C11_19  and  C13_21 
ROOT
HETATM    1  O5  UNK     1      17.698   6.989  31.198  1.00  0.00    -0.271 OA
HETATM    2  N2  UNK     1      17.774   7.241  33.509  1.00  0.00    -0.345 N 
HETATM    3  C11 UNK     1      17.909   6.540  32.321  1.00  0.00     0.242 C 
HETATM    4  H6  UNK     1      17.962   6.765  34.387  1.00  0.00     0.163 HD
ENDROOT
BRANCH   2   5
HETATM    5  C3  UNK     1      17.359   8.624  33.566  1.00  0.00     0.188 C 
BRANCH   5   6
HETATM    6  C1  UNK     1      16.180   8.813  34.534  1.00  0.00     0.076 C 
BRANCH   6   7
HETATM    7  C2  UNK     1      15.077   9.697  34.017  1.00  0.00    -0.028 A 
HETATM    8  C4  UNK     1      14.319  10.597  34.786  1.00  0.00    -0.002 A 
HETATM    9  C5  UNK     1      13.420  11.200  33.905  1.00  0.00     0.042 A 
HETATM   10  C7  UNK     1      14.294  10.973  36.144  1.00  0.00     0.014 A 
HETATM   11  N1  UNK     1      13.652  10.663  32.658  1.00  0.00    -0.365 N 
HETATM   12  C9  UNK     1      12.491  12.163  34.315  1.00  0.00     0.030 A 
HETATM   13  C6  UNK     1      14.665   9.742  32.722  1.00  0.00     0.096 A 
HETATM   14  H5  UNK     1      13.147  10.910  31.819  1.00  0.00     0.165 HD
HETATM   15  C12 UNK     1      12.484  12.521  35.666  1.00  0.00     0.002 A 
HETATM   16  C10 UNK     1      13.371  11.936  36.568  1.00  0.00     0.001 A 
ENDBRANCH   6   7
ENDBRANCH   5   6
BRANCH   5  17
HETATM   17  C8  UNK     1      18.515   9.563  33.882  1.00  0.00     0.281 C 
HETATM   18  O3  UNK     1      19.489   9.216  34.542  1.00  0.00    -0.263 OA
BRANCH  17  19
HETATM   19  O1  UNK     1      18.321  10.808  33.365  1.00  0.00    -0.325 OA
HETATM   20  C23 UNK     1      18.155  11.860  34.322  1.00  0.00     0.213 C 
ENDBRANCH  17  19
ENDBRANCH   5  17
ENDBRANCH   2   5
BRANCH   3  21
HETATM   21  C13 UNK     1      18.357   5.114  32.561  1.00  0.00     0.278 C 
BRANCH  21  22
HETATM   22  O2  UNK     1      17.554   4.201  31.814  1.00  0.00    -0.342 OA
BRANCH  22  23
HETATM   23  C16 UNK     1      18.148   3.048  31.400  1.00  0.00     0.072 A 
HETATM   24  C18 UNK     1      18.398   2.026  32.309  1.00  0.00     0.075 A 
HETATM   25  C15 UNK     1      19.008   0.852  31.862  1.00  0.00     0.092 A 
HETATM   26  C14 UNK     1      19.379   0.665  30.530  1.00  0.00     0.004 A 
HETATM   27  O4  UNK     1      19.235  -0.148  32.829  1.00  0.00    -0.275 OA
HETATM   28  C17 UNK     1      20.016  -0.603  30.148  1.00  0.00    -0.043 A 
HETATM   29  C19 UNK     1      19.118   1.708  29.630  1.00  0.00     0.017 A 
HETATM   30  C21 UNK     1      20.220  -1.536  31.088  1.00  0.00     0.090 A 
HETATM   31  C22 UNK     1      20.426  -0.834  28.723  1.00  0.00     0.049 C 
HETATM   32  C24 UNK     1      19.834  -1.354  32.497  1.00  0.00     0.288 A 
HETATM   33  O6  UNK     1      20.036  -2.230  33.331  1.00  0.00    -0.260 OA
HETATM   34  C20 UNK     1      18.507   2.890  30.063  1.00  0.00     0.038 A 
ENDBRANCH  22  23
ENDBRANCH  21  22
ENDBRANCH   3  21
TORSDOF 8
ENDMDL
MODEL 10
REMARK VINA RESULT:      -9.0      1.923      2.346
REMARK  8 active torsions:
REMARK  status: ('A' for Active; 'I' for Inactive)
REMARK    1  A    between atoms: C8_16  and  O1_1 
REMARK    2  A    between atoms: C13_21  and  O2_2 
REMARK    3  A    between atoms: C16_24  and  O2_2 
REMARK       I    between atoms: C11_19  and  N2_8 
REMARK    4  A    between atoms: C3_11  and  N2_8 
REMARK    5  A    between atoms: C1_9  and  C2_10 
REMARK    6  A    between atoms: C1_9  and  C3_11 
REMARK    7  A    between atoms: C3_11  and  C8_16 
REMARK    8  A    between atoms: C11_19  and  C13_21 
ROOT
HETATM    1  O5  UNK     1      21.524  -1.412  35.716  1.00  0.00    -0.271 OA
HETATM    2  N2  UNK     1      19.212  -1.180  35.830  1.00  0.00    -0.345 N 
HETATM    3  C11 UNK     1      20.424  -1.793  36.107  1.00  0.00     0.242 C 
HETATM    4  H6  UNK     1      18.357  -1.591  36.194  1.00  0.00     0.163 HD
ENDROOT
BRANCH   2   5
HETATM    5  C3  UNK     1      19.097   0.014  35.025  1.00  0.00     0.188 C 
BRANCH   5   6
HETATM    6  C1  UNK     1      18.345  -0.265  33.714  1.00  0.00     0.076 C 
BRANCH   6   7
HETATM    7  C2  UNK     1      19.175  -0.921  32.642  1.00  0.00    -0.028 A 
HETATM    8  C4  UNK     1      19.385  -0.416  31.347  1.00  0.00    -0.002 A 
HETATM    9  C5  UNK     1      20.209  -1.340  30.699  1.00  0.00     0.042 A 
HETATM   10  C7  UNK     1      18.969   0.731  30.642  1.00  0.00     0.014 A 
HETATM   11  N1  UNK     1      20.466  -2.352  31.597  1.00  0.00    -0.365 N 
HETATM   12  C9  UNK     1      20.636  -1.174  29.377  1.00  0.00     0.030 A 
HETATM   13  C6  UNK     1      19.835  -2.100  32.786  1.00  0.00     0.096 A 
HETATM   14  H5  UNK     1      21.038  -3.163  31.405  1.00  0.00     0.165 HD
HETATM   15  C12 UNK     1      20.210  -0.029  28.698  1.00  0.00     0.002 A 
HETATM   16  C10 UNK     1      19.389   0.911  29.320  1.00  0.00     0.001 A 
ENDBRANCH   6   7
ENDBRANCH   5   6
BRANCH   5  17
HETATM   17  C8  UNK     1      18.488   1.176  35.797  1.00  0.00     0.281 C 
HETATM   18  O3  UNK     1      19.085   2.232  35.984  1.00  0.00    -0.263 OA
BRANCH  17  19
HETATM   19  O1  UNK     1      17.237   0.891  36.254  1.00  0.00    -0.325 OA
HETATM   20  C23 UNK     1      16.911   1.420  37.544  1.00  0.00     0.213 C 
ENDBRANCH  17  19
ENDBRANCH   5  17
ENDBRANCH   2   5
BRANCH   3  21
HETATM   21  C13 UNK     1      20.244  -3.023  36.971  1.00  0.00     0.278 C 
BRANCH  21  22
HETATM   22  O2  UNK     1      19.704  -4.100  36.206  1.00  0.00    -0.342 OA
BRANCH  22  23
HETATM   23  C16 UNK     1      19.758  -5.342  36.762  1.00  0.00     0.072 A 
HETATM   24  C18 UNK     1      20.743  -5.647  37.694  1.00  0.00     0.075 A 
HETATM   25  C15 UNK     1      20.780  -6.927  38.251  1.00  0.00     0.092 A 
HETATM   26  C14 UNK     1      19.860  -7.918  37.906  1.00  0.00     0.004 A 
HETATM   27  O4  UNK     1      21.801  -7.177  39.190  1.00  0.00    -0.275 OA
HETATM   28  C17 UNK     1      19.973  -9.237  38.543  1.00  0.00    -0.043 A 
HETATM   29  C19 UNK     1      18.874  -7.589  36.965  1.00  0.00     0.017 A 
HETATM   30  C21 UNK     1      20.953  -9.446  39.432  1.00  0.00     0.090 A 
HETATM   31  C22 UNK     1      18.998 -10.322  38.192  1.00  0.00     0.049 C 
HETATM   32  C24 UNK     1      21.932  -8.412  39.807  1.00  0.00     0.288 A 
HETATM   33  O6  UNK     1      22.817  -8.640  40.625  1.00  0.00    -0.260 OA
HETATM   34  C20 UNK     1      18.825  -6.311  36.398  1.00  0.00     0.038 A 
ENDBRANCH  22  23
ENDBRANCH  21  22
ENDBRANCH   3  21
TORSDOF 8
ENDMDL
