MODEL 1
REMARK VINA RESULT:     -10.0      0.000      0.000
REMARK  2 active torsions:
REMARK  status: ('A' for Active; 'I' for Inactive)
REMARK       I    between atoms: C11_17  and  N1_4 
REMARK    1  A    between atoms: C2_8  and  N1_4 
REMARK    2  A    between atoms: C11_17  and  C6_12 
ROOT
HETATM    1  O2  UNK     1      21.526  -4.459  37.193  1.00  0.00    -0.267 OA
HETATM    2  N1  UNK     1      19.318  -5.274  37.281  1.00  0.00    -0.323 N 
HETATM    3  C11 UNK     1      20.314  -4.342  37.023  1.00  0.00     0.262 C 
HETATM    4  H5  UNK     1      18.357  -5.010  37.075  1.00  0.00     0.169 HD
ENDROOT
BRANCH   3   5
HETATM    5  C6  UNK     1      19.771  -3.090  36.482  1.00  0.00     0.108 A 
HETATM    6  C13 UNK     1      19.990  -2.681  35.076  1.00  0.00     0.304 A 
HETATM    7  O1  UNK     1      19.423  -1.472  34.681  1.00  0.00    -0.274 OA
HETATM    8  O3  UNK     1      20.636  -3.370  34.294  1.00  0.00    -0.259 OA
HETATM    9  C7  UNK     1      18.679  -0.674  35.571  1.00  0.00     0.089 A 
HETATM   10  C15 UNK     1      18.152   0.520  35.084  1.00  0.00     0.038 A 
HETATM   11  C5  UNK     1      18.486  -1.076  36.888  1.00  0.00    -0.001 A 
HETATM   12  C17 UNK     1      17.411   1.331  35.941  1.00  0.00     0.003 A 
HETATM   13  C16 UNK     1      17.207   0.943  37.267  1.00  0.00     0.001 A 
HETATM   14  C14 UNK     1      17.743  -0.257  37.741  1.00  0.00     0.014 A 
HETATM   15  C9  UNK     1      19.065  -2.335  37.332  1.00  0.00     0.037 A 
ENDBRANCH   3   5
BRANCH   2  16
HETATM   16  C2  UNK     1      19.475  -6.582  37.802  1.00  0.00     0.035 A 
HETATM   17  C4  UNK     1      19.194  -7.687  36.987  1.00  0.00     0.044 A 
HETATM   18  C1  UNK     1      19.356  -8.975  37.525  1.00  0.00     0.013 A 
HETATM   19  C3  UNK     1      19.786  -9.116  38.839  1.00  0.00     0.062 A 
HETATM   20  C12 UNK     1      19.190 -10.300  37.067  1.00  0.00     0.152 A 
HETATM   21  C10 UNK     1      20.072  -8.028  39.668  1.00  0.00     0.034 A 
HETATM   22  N2  UNK     1      19.842 -10.465  39.057  1.00  0.00    -0.278 N 
HETATM   23  C8  UNK     1      19.906  -6.753  39.120  1.00  0.00     0.032 A 
HETATM   24  H7  UNK     1      20.116 -10.944  39.906  1.00  0.00     0.189 HD
HETATM   25  N3  UNK     1      19.486 -11.210  37.997  1.00  0.00    -0.186 NA
ENDBRANCH   2  16
TORSDOF 2
ENDMDL
MODEL 2
REMARK VINA RESULT:     -10.0      9.036     12.856
REMARK  2 active torsions:
REMARK  status: ('A' for Active; 'I' for Inactive)
REMARK       I    between atoms: C11_17  and  N1_4 
REMARK    1  A    between atoms: C2_8  and  N1_4 
REMARK    2  A    between atoms: C11_17  and  C6_12 
ROOT
HETATM    1  O2  UNK     1      17.626   3.233  32.880  1.00  0.00    -0.267 OA
HETATM    2  N1  UNK     1      18.821   4.718  31.497  1.00  0.00    -0.323 N 
HETATM    3  C11 UNK     1      18.327   3.486  31.901  1.00  0.00     0.262 C 
HETATM    4  H5  UNK     1      19.387   4.746  30.651  1.00  0.00     0.169 HD
ENDROOT
BRANCH   3   5
HETATM    5  C6  UNK     1      18.734   2.403  30.997  1.00  0.00     0.108 A 
HETATM    6  C13 UNK     1      18.687   2.550  29.525  1.00  0.00     0.304 A 
HETATM    7  O1  UNK     1      19.101   1.452  28.774  1.00  0.00    -0.274 OA
HETATM    8  O3  UNK     1      18.306   3.584  28.988  1.00  0.00    -0.259 OA
HETATM    9  C7  UNK     1      19.541   0.260  29.381  1.00  0.00     0.089 A 
HETATM   10  C15 UNK     1      19.934  -0.784  28.546  1.00  0.00     0.038 A 
HETATM   11  C5  UNK     1      19.576   0.143  30.766  1.00  0.00    -0.001 A 
HETATM   12  C17 UNK     1      20.374  -1.977  29.117  1.00  0.00     0.003 A 
HETATM   13  C16 UNK     1      20.416  -2.112  30.506  1.00  0.00     0.001 A 
HETATM   14  C14 UNK     1      20.018  -1.056  31.331  1.00  0.00     0.014 A 
HETATM   15  C9  UNK     1      19.151   1.272  31.579  1.00  0.00     0.037 A 
ENDBRANCH   3   5
BRANCH   2  16
HETATM   16  C2  UNK     1      18.629   5.973  32.124  1.00  0.00     0.035 A 
HETATM   17  C4  UNK     1      17.409   6.643  31.965  1.00  0.00     0.044 A 
HETATM   18  C1  UNK     1      17.240   7.887  32.597  1.00  0.00     0.013 A 
HETATM   19  C3  UNK     1      18.280   8.414  33.354  1.00  0.00     0.062 A 
HETATM   20  C12 UNK     1      16.214   8.852  32.692  1.00  0.00     0.152 A 
HETATM   21  C10 UNK     1      19.504   7.763  33.524  1.00  0.00     0.034 A 
HETATM   22  N2  UNK     1      17.812   9.610  33.825  1.00  0.00    -0.278 N 
HETATM   23  C8  UNK     1      19.658   6.526  32.890  1.00  0.00     0.032 A 
HETATM   24  H7  UNK     1      18.297  10.274  34.416  1.00  0.00     0.189 HD
HETATM   25  N3  UNK     1      16.558   9.902  33.439  1.00  0.00    -0.186 NA
ENDBRANCH   2  16
TORSDOF 2
ENDMDL
MODEL 3
REMARK VINA RESULT:      -9.7      9.152     11.114
REMARK  2 active torsions:
REMARK  status: ('A' for Active; 'I' for Inactive)
REMARK       I    between atoms: C11_17  and  N1_4 
REMARK    1  A    between atoms: C2_8  and  N1_4 
REMARK    2  A    between atoms: C11_17  and  C6_12 
ROOT
HETATM    1  O2  UNK     1      19.774   5.337  30.188  1.00  0.00    -0.267 OA
HETATM    2  N1  UNK     1      18.337   3.756  31.178  1.00  0.00    -0.323 N 
HETATM    3  C11 UNK     1      18.917   5.005  31.005  1.00  0.00     0.262 C 
HETATM    4  H5  UNK     1      17.633   3.658  31.908  1.00  0.00     0.169 HD
ENDROOT
BRANCH   3   5
HETATM    5  C6  UNK     1      18.390   5.996  31.951  1.00  0.00     0.108 A 
HETATM    6  C13 UNK     1      19.272   6.765  32.858  1.00  0.00     0.304 A 
HETATM    7  O1  UNK     1      18.652   7.676  33.708  1.00  0.00    -0.274 OA
HETATM    8  O3  UNK     1      20.489   6.611  32.862  1.00  0.00    -0.259 OA
HETATM    9  C7  UNK     1      17.256   7.861  33.711  1.00  0.00     0.089 A 
HETATM   10  C15 UNK     1      16.729   8.796  34.598  1.00  0.00     0.038 A 
HETATM   11  C5  UNK     1      16.445   7.127  32.852  1.00  0.00    -0.001 A 
HETATM   12  C17 UNK     1      15.350   9.000  34.624  1.00  0.00     0.003 A 
HETATM   13  C16 UNK     1      14.520   8.272  33.769  1.00  0.00     0.001 A 
HETATM   14  C14 UNK     1      15.065   7.338  32.884  1.00  0.00     0.014 A 
HETATM   15  C9  UNK     1      17.062   6.167  31.950  1.00  0.00     0.037 A 
ENDBRANCH   3   5
BRANCH   2  16
HETATM   16  C2  UNK     1      18.601   2.572  30.447  1.00  0.00     0.035 A 
HETATM   17  C4  UNK     1      19.411   1.579  31.012  1.00  0.00     0.044 A 
HETATM   18  C1  UNK     1      19.660   0.413  30.268  1.00  0.00     0.013 A 
HETATM   19  C3  UNK     1      19.100   0.279  29.003  1.00  0.00     0.062 A 
HETATM   20  C12 UNK     1      20.388  -0.781  30.457  1.00  0.00     0.152 A 
HETATM   21  C10 UNK     1      18.289   1.258  28.421  1.00  0.00     0.034 A 
HETATM   22  N2  UNK     1      19.522  -0.940  28.549  1.00  0.00    -0.278 N 
HETATM   23  C8  UNK     1      18.051   2.412  29.173  1.00  0.00     0.032 A 
HETATM   24  H7  UNK     1      19.310  -1.377  27.661  1.00  0.00     0.189 HD
HETATM   25  N3  UNK     1      20.307  -1.608  29.413  1.00  0.00    -0.186 NA
ENDBRANCH   2  16
TORSDOF 2
ENDMDL
MODEL 4
REMARK VINA RESULT:      -9.7      9.062     11.219
REMARK  2 active torsions:
REMARK  status: ('A' for Active; 'I' for Inactive)
REMARK       I    between atoms: C11_17  and  N1_4 
REMARK    1  A    between atoms: C2_8  and  N1_4 
REMARK    2  A    between atoms: C11_17  and  C6_12 
ROOT
HETATM    1  O2  UNK     1      17.925   3.338  33.120  1.00  0.00    -0.267 OA
HETATM    2  N1  UNK     1      18.472   4.044  30.942  1.00  0.00    -0.323 N 
HETATM    3  C11 UNK     1      18.140   4.208  32.279  1.00  0.00     0.262 C 
HETATM    4  H5  UNK     1      18.620   4.883  30.384  1.00  0.00     0.169 HD
ENDROOT
BRANCH   3   5
HETATM    5  C6  UNK     1      18.056   5.624  32.658  1.00  0.00     0.108 A 
HETATM    6  C13 UNK     1      16.810   6.407  32.497  1.00  0.00     0.304 A 
HETATM    7  O1  UNK     1      16.855   7.741  32.894  1.00  0.00    -0.274 OA
HETATM    8  O3  UNK     1      15.786   5.911  32.039  1.00  0.00    -0.259 OA
HETATM    9  C7  UNK     1      18.025   8.321  33.422  1.00  0.00     0.089 A 
HETATM   10  C15 UNK     1      17.972   9.663  33.790  1.00  0.00     0.038 A 
HETATM   11  C5  UNK     1      19.185   7.567  33.563  1.00  0.00    -0.001 A 
HETATM   12  C17 UNK     1      19.114  10.265  34.315  1.00  0.00     0.003 A 
HETATM   13  C16 UNK     1      20.288   9.524  34.465  1.00  0.00     0.001 A 
HETATM   14  C14 UNK     1      20.325   8.178  34.090  1.00  0.00     0.014 A 
HETATM   15  C9  UNK     1      19.170   6.170  33.159  1.00  0.00     0.037 A 
ENDBRANCH   3   5
BRANCH   2  16
HETATM   16  C2  UNK     1      18.641   2.826  30.237  1.00  0.00     0.035 A 
HETATM   17  C4  UNK     1      19.517   1.856  30.739  1.00  0.00     0.044 A 
HETATM   18  C1  UNK     1      19.668   0.655  30.024  1.00  0.00     0.013 A 
HETATM   19  C3  UNK     1      18.951   0.468  28.848  1.00  0.00     0.062 A 
HETATM   20  C12 UNK     1      20.415  -0.533  30.172  1.00  0.00     0.152 A 
HETATM   21  C10 UNK     1      18.073   1.423  28.331  1.00  0.00     0.034 A 
HETATM   22  N2  UNK     1      19.313  -0.774  28.400  1.00  0.00    -0.278 N 
HETATM   23  C8  UNK     1      17.932   2.612  29.053  1.00  0.00     0.032 A 
HETATM   24  H7  UNK     1      18.988  -1.249  27.567  1.00  0.00     0.189 HD
HETATM   25  N3  UNK     1      20.201  -1.406  29.186  1.00  0.00    -0.186 NA
ENDBRANCH   2  16
TORSDOF 2
ENDMDL
MODEL 5
REMARK VINA RESULT:      -9.6      8.476     12.964
REMARK  2 active torsions:
REMARK  status: ('A' for Active; 'I' for Inactive)
REMARK       I    between atoms: C11_17  and  N1_4 
REMARK    1  A    between atoms: C2_8  and  N1_4 
REMARK    2  A    between atoms: C11_17  and  C6_12 
ROOT
HETATM    1  O2  UNK     1      18.653   4.731  30.207  1.00  0.00    -0.267 OA
HETATM    2  N1  UNK     1      17.765   4.651  32.386  1.00  0.00    -0.323 N 
HETATM    3  C11 UNK     1      18.366   4.138  31.246  1.00  0.00     0.262 C 
HETATM    4  H5  UNK     1      17.603   4.014  33.164  1.00  0.00     0.169 HD
ENDROOT
BRANCH   3   5
HETATM    5  C6  UNK     1      18.666   2.707  31.375  1.00  0.00     0.108 A 
HETATM    6  C13 UNK     1      18.378   1.953  32.616  1.00  0.00     0.304 A 
HETATM    7  O1  UNK     1      18.707   0.600  32.615  1.00  0.00    -0.274 OA
HETATM    8  O3  UNK     1      17.876   2.488  33.598  1.00  0.00    -0.259 OA
HETATM    9  C7  UNK     1      19.283  -0.025  31.493  1.00  0.00     0.089 A 
HETATM   10  C15 UNK     1      19.577  -1.383  31.587  1.00  0.00     0.038 A 
HETATM   11  C5  UNK     1      19.546   0.702  30.337  1.00  0.00    -0.001 A 
HETATM   12  C17 UNK     1      20.149  -2.029  30.493  1.00  0.00     0.003 A 
HETATM   13  C16 UNK     1      20.420  -1.315  29.324  1.00  0.00     0.001 A 
HETATM   14  C14 UNK     1      20.119   0.048  29.244  1.00  0.00     0.014 A 
HETATM   15  C9  UNK     1      19.214   2.118  30.305  1.00  0.00     0.037 A 
ENDBRANCH   3   5
BRANCH   2  16
HETATM   16  C2  UNK     1      17.343   5.984  32.615  1.00  0.00     0.035 A 
HETATM   17  C4  UNK     1      18.255   6.918  33.124  1.00  0.00     0.044 A 
HETATM   18  C1  UNK     1      17.814   8.234  33.342  1.00  0.00     0.013 A 
HETATM   19  C3  UNK     1      16.497   8.570  33.051  1.00  0.00     0.062 A 
HETATM   20  C12 UNK     1      18.383   9.434  33.821  1.00  0.00     0.152 A 
HETATM   21  C10 UNK     1      15.572   7.653  32.544  1.00  0.00     0.034 A 
HETATM   22  N2  UNK     1      16.385   9.896  33.368  1.00  0.00    -0.278 N 
HETATM   23  C8  UNK     1      16.025   6.348  32.331  1.00  0.00     0.032 A 
HETATM   24  H7  UNK     1      15.564  10.484  33.285  1.00  0.00     0.189 HD
HETATM   25  N3  UNK     1      17.516  10.448  33.838  1.00  0.00    -0.186 NA
ENDBRANCH   2  16
TORSDOF 2
ENDMDL
MODEL 6
REMARK VINA RESULT:      -9.4      2.642      8.053
REMARK  2 active torsions:
REMARK  status: ('A' for Active; 'I' for Inactive)
REMARK       I    between atoms: C11_17  and  N1_4 
REMARK    1  A    between atoms: C2_8  and  N1_4 
REMARK    2  A    between atoms: C11_17  and  C6_12 
ROOT
HETATM    1  O2  UNK     1      21.271  -3.521  36.802  1.00  0.00    -0.267 OA
HETATM    2  N1  UNK     1      18.918  -3.472  36.714  1.00  0.00    -0.323 N 
HETATM    3  C11 UNK     1      20.171  -4.068  36.764  1.00  0.00     0.262 C 
HETATM    4  H5  UNK     1      18.104  -4.083  36.691  1.00  0.00     0.169 HD
ENDROOT
BRANCH   3   5
HETATM    5  C6  UNK     1      20.085  -5.534  36.770  1.00  0.00     0.108 A 
HETATM    6  C13 UNK     1      20.104  -6.327  35.520  1.00  0.00     0.304 A 
HETATM    7  O1  UNK     1      20.017  -7.711  35.657  1.00  0.00    -0.274 OA
HETATM    8  O3  UNK     1      20.191  -5.798  34.418  1.00  0.00    -0.259 OA
HETATM    9  C7  UNK     1      19.917  -8.328  36.918  1.00  0.00     0.089 A 
HETATM   10  C15 UNK     1      19.835  -9.719  36.954  1.00  0.00     0.038 A 
HETATM   11  C5  UNK     1      19.900  -7.564  38.080  1.00  0.00    -0.001 A 
HETATM   12  C17 UNK     1      19.734 -10.358  38.187  1.00  0.00     0.003 A 
HETATM   13  C16 UNK     1      19.716  -9.607  39.364  1.00  0.00     0.001 A 
HETATM   14  C14 UNK     1      19.799  -8.213  39.313  1.00  0.00     0.014 A 
HETATM   15  C9  UNK     1      19.989  -6.116  37.971  1.00  0.00     0.037 A 
ENDBRANCH   3   5
BRANCH   2  16
HETATM   16  C2  UNK     1      18.622  -2.087  36.695  1.00  0.00     0.035 A 
HETATM   17  C4  UNK     1      18.802  -1.359  35.512  1.00  0.00     0.044 A 
HETATM   18  C1  UNK     1      18.502   0.014  35.518  1.00  0.00     0.013 A 
HETATM   19  C3  UNK     1      18.038   0.605  36.687  1.00  0.00     0.062 A 
HETATM   20  C12 UNK     1      18.539   1.070  34.582  1.00  0.00     0.152 A 
HETATM   21  C10 UNK     1      17.851  -0.103  37.877  1.00  0.00     0.034 A 
HETATM   22  N2  UNK     1      17.842   1.922  36.371  1.00  0.00    -0.278 N 
HETATM   23  C8  UNK     1      18.154  -1.467  37.857  1.00  0.00     0.032 A 
HETATM   24  H7  UNK     1      17.507   2.660  36.977  1.00  0.00     0.189 HD
HETATM   25  N3  UNK     1      18.138   2.233  35.097  1.00  0.00    -0.186 NA
ENDBRANCH   2  16
TORSDOF 2
ENDMDL
MODEL 7
REMARK VINA RESULT:      -9.2      7.669      9.878
REMARK  2 active torsions:
REMARK  status: ('A' for Active; 'I' for Inactive)
REMARK       I    between atoms: C11_17  and  N1_4 
REMARK    1  A    between atoms: C2_8  and  N1_4 
REMARK    2  A    between atoms: C11_17  and  C6_12 
ROOT
HETATM    1  O2  UNK     1      17.071   2.625  30.680  1.00  0.00    -0.267 OA
HETATM    2  N1  UNK     1      19.405   2.457  30.935  1.00  0.00    -0.323 N 
HETATM    3  C11 UNK     1      18.168   3.084  30.991  1.00  0.00     0.262 C 
HETATM    4  H5  UNK     1      20.219   2.989  31.238  1.00  0.00     0.169 HD
ENDROOT
BRANCH   3   5
HETATM    5  C6  UNK     1      18.268   4.460  31.493  1.00  0.00     0.108 A 
HETATM    6  C13 UNK     1      19.018   5.509  30.767  1.00  0.00     0.304 A 
HETATM    7  O1  UNK     1      19.038   6.776  31.345  1.00  0.00    -0.274 OA
HETATM    8  O3  UNK     1      19.593   5.280  29.709  1.00  0.00    -0.259 OA
HETATM    9  C7  UNK     1      18.380   7.050  32.559  1.00  0.00     0.089 A 
HETATM   10  C15 UNK     1      18.457   8.348  33.059  1.00  0.00     0.038 A 
HETATM   11  C5  UNK     1      17.681   6.049  33.226  1.00  0.00    -0.001 A 
HETATM   12  C17 UNK     1      17.816   8.649  34.259  1.00  0.00     0.003 A 
HETATM   13  C16 UNK     1      17.111   7.657  34.942  1.00  0.00     0.001 A 
HETATM   14  C14 UNK     1      17.042   6.359  34.428  1.00  0.00     0.014 A 
HETATM   15  C9  UNK     1      17.641   4.714  32.648  1.00  0.00     0.037 A 
ENDBRANCH   3   5
BRANCH   2  16
HETATM   16  C2  UNK     1      19.686   1.137  30.505  1.00  0.00     0.035 A 
HETATM   17  C4  UNK     1      20.077   0.175  31.445  1.00  0.00     0.044 A 
HETATM   18  C1  UNK     1      20.350  -1.129  30.996  1.00  0.00     0.013 A 
HETATM   19  C3  UNK     1      20.226  -1.424  29.644  1.00  0.00     0.062 A 
HETATM   20  C12 UNK     1      20.754  -2.346  31.584  1.00  0.00     0.152 A 
HETATM   21  C10 UNK     1      19.838  -0.479  28.690  1.00  0.00     0.034 A 
HETATM   22  N2  UNK     1      20.555  -2.747  29.532  1.00  0.00    -0.278 N 
HETATM   23  C8  UNK     1      19.570   0.813  29.151  1.00  0.00     0.032 A 
HETATM   24  H7  UNK     1      20.576  -3.310  28.690  1.00  0.00     0.189 HD
HETATM   25  N3  UNK     1      20.880  -3.334  30.696  1.00  0.00    -0.186 NA
ENDBRANCH   2  16
TORSDOF 2
ENDMDL
MODEL 8
REMARK VINA RESULT:      -9.2     19.550     22.242
REMARK  2 active torsions:
REMARK  status: ('A' for Active; 'I' for Inactive)
REMARK       I    between atoms: C11_17  and  N1_4 
REMARK    1  A    between atoms: C2_8  and  N1_4 
REMARK    2  A    between atoms: C11_17  and  C6_12 
ROOT
HETATM    1  O2  UNK     1      16.998  -2.028  16.845  1.00  0.00    -0.267 OA
HETATM    2  N1  UNK     1      19.062  -0.977  16.425  1.00  0.00    -0.323 N 
HETATM    3  C11 UNK     1      18.043  -1.894  16.212  1.00  0.00     0.262 C 
HETATM    4  H5  UNK     1      19.863  -1.004  15.797  1.00  0.00     0.169 HD
ENDROOT
BRANCH   3   5
HETATM    5  C6  UNK     1      18.323  -2.777  15.073  1.00  0.00     0.108 A 
HETATM    6  C13 UNK     1      18.772  -2.252  13.764  1.00  0.00     0.304 A 
HETATM    7  O1  UNK     1      19.006  -3.189  12.761  1.00  0.00    -0.274 OA
HETATM    8  O3  UNK     1      18.931  -1.052  13.567  1.00  0.00    -0.259 OA
HETATM    9  C7  UNK     1      18.827  -4.569  12.977  1.00  0.00     0.089 A 
HETATM   10  C15 UNK     1      19.086  -5.430  11.913  1.00  0.00     0.038 A 
HETATM   11  C5  UNK     1      18.404  -5.042  14.215  1.00  0.00    -0.001 A 
HETATM   12  C17 UNK     1      18.917  -6.801  12.096  1.00  0.00     0.003 A 
HETATM   13  C16 UNK     1      18.493  -7.293  13.332  1.00  0.00     0.001 A 
HETATM   14  C14 UNK     1      18.236  -6.417  14.390  1.00  0.00     0.014 A 
HETATM   15  C9  UNK     1      18.151  -4.087  15.284  1.00  0.00     0.037 A 
ENDBRANCH   3   5
BRANCH   2  16
HETATM   16  C2  UNK     1      19.129   0.022  17.427  1.00  0.00     0.035 A 
HETATM   17  C4  UNK     1      19.282  -0.355  18.767  1.00  0.00     0.044 A 
HETATM   18  C1  UNK     1      19.346   0.653  19.745  1.00  0.00     0.013 A 
HETATM   19  C3  UNK     1      19.256   1.985  19.357  1.00  0.00     0.062 A 
HETATM   20  C12 UNK     1      19.490   0.706  21.148  1.00  0.00     0.152 A 
HETATM   21  C10 UNK     1      19.103   2.382  18.026  1.00  0.00     0.034 A 
HETATM   22  N2  UNK     1      19.349   2.704  20.517  1.00  0.00    -0.278 N 
HETATM   23  C8  UNK     1      19.041   1.369  17.065  1.00  0.00     0.032 A 
HETATM   24  H7  UNK     1      19.323   3.711  20.623  1.00  0.00     0.189 HD
HETATM   25  N3  UNK     1      19.493   1.953  21.622  1.00  0.00    -0.186 NA
ENDBRANCH   2  16
TORSDOF 2
ENDMDL
MODEL 9
REMARK VINA RESULT:      -9.0     19.832     21.509
REMARK  2 active torsions:
REMARK  status: ('A' for Active; 'I' for Inactive)
REMARK       I    between atoms: C11_17  and  N1_4 
REMARK    1  A    between atoms: C2_8  and  N1_4 
REMARK    2  A    between atoms: C11_17  and  C6_12 
ROOT
HETATM    1  O2  UNK     1      20.332  -3.367  15.626  1.00  0.00    -0.267 OA
HETATM    2  N1  UNK     1      17.978  -3.346  15.634  1.00  0.00    -0.323 N 
HETATM    3  C11 UNK     1      19.248  -2.800  15.747  1.00  0.00     0.262 C 
HETATM    4  H5  UNK     1      17.182  -2.725  15.762  1.00  0.00     0.169 HD
ENDROOT
BRANCH   3   5
HETATM    5  C6  UNK     1      19.207  -1.364  16.049  1.00  0.00     0.108 A 
HETATM    6  C13 UNK     1      19.315  -0.335  14.989  1.00  0.00     0.304 A 
HETATM    7  O1  UNK     1      19.261   0.994  15.401  1.00  0.00    -0.274 OA
HETATM    8  O3  UNK     1      19.444  -0.633  13.807  1.00  0.00    -0.259 OA
HETATM    9  C7  UNK     1      19.112   1.348  16.756  1.00  0.00     0.089 A 
HETATM   10  C15 UNK     1      19.069   2.704  17.070  1.00  0.00     0.038 A 
HETATM   11  C5  UNK     1      19.014   0.365  17.735  1.00  0.00    -0.001 A 
HETATM   12  C17 UNK     1      18.923   3.085  18.403  1.00  0.00     0.003 A 
HETATM   13  C16 UNK     1      18.823   2.112  19.400  1.00  0.00     0.001 A 
HETATM   14  C14 UNK     1      18.867   0.755  19.069  1.00  0.00     0.014 A 
HETATM   15  C9  UNK     1      19.065  -1.033  17.338  1.00  0.00     0.037 A 
ENDBRANCH   3   5
BRANCH   2  16
HETATM   16  C2  UNK     1      17.639  -4.692  15.351  1.00  0.00     0.035 A 
HETATM   17  C4  UNK     1      17.999  -5.248  14.116  1.00  0.00     0.044 A 
HETATM   18  C1  UNK     1      17.653  -6.585  13.857  1.00  0.00     0.013 A 
HETATM   19  C3  UNK     1      16.968  -7.312  14.824  1.00  0.00     0.062 A 
HETATM   20  C12 UNK     1      17.818  -7.493  12.789  1.00  0.00     0.152 A 
HETATM   21  C10 UNK     1      16.599  -6.776  16.061  1.00  0.00     0.034 A 
HETATM   22  N2  UNK     1      16.783  -8.553  14.278  1.00  0.00    -0.278 N 
HETATM   23  C8  UNK     1      16.950  -5.446  16.305  1.00  0.00     0.032 A 
HETATM   24  H7  UNK     1      16.320  -9.350  14.697  1.00  0.00     0.189 HD
HETATM   25  N3  UNK     1      17.290  -8.692  13.041  1.00  0.00    -0.186 NA
ENDBRANCH   2  16
TORSDOF 2
ENDMDL
MODEL 10
REMARK VINA RESULT:      -8.9      2.894      8.197
REMARK  2 active torsions:
REMARK  status: ('A' for Active; 'I' for Inactive)
REMARK       I    between atoms: C11_17  and  N1_4 
REMARK    1  A    between atoms: C2_8  and  N1_4 
REMARK    2  A    between atoms: C11_17  and  C6_12 
ROOT
HETATM    1  O2  UNK     1      20.616  -3.538  35.635  1.00  0.00    -0.267 OA
HETATM    2  N1  UNK     1      18.847  -2.980  37.086  1.00  0.00    -0.323 N 
HETATM    3  C11 UNK     1      19.836  -3.794  36.550  1.00  0.00     0.262 C 
HETATM    4  H5  UNK     1      18.289  -3.354  37.851  1.00  0.00     0.169 HD
ENDROOT
BRANCH   3   5
HETATM    5  C6  UNK     1      19.892  -5.103  37.212  1.00  0.00     0.108 A 
HETATM    6  C13 UNK     1      18.782  -6.078  37.122  1.00  0.00     0.304 A 
HETATM    7  O1  UNK     1      18.956  -7.286  37.792  1.00  0.00    -0.274 OA
HETATM    8  O3  UNK     1      17.760  -5.839  36.488  1.00  0.00    -0.259 OA
HETATM    9  C7  UNK     1      20.126  -7.570  38.522  1.00  0.00     0.089 A 
HETATM   10  C15 UNK     1      20.208  -8.806  39.159  1.00  0.00     0.038 A 
HETATM   11  C5  UNK     1      21.157  -6.639  38.595  1.00  0.00    -0.001 A 
HETATM   12  C17 UNK     1      21.353  -9.116  39.890  1.00  0.00     0.003 A 
HETATM   13  C16 UNK     1      22.398  -8.193  39.974  1.00  0.00     0.001 A 
HETATM   14  C14 UNK     1      22.302  -6.957  39.328  1.00  0.00     0.014 A 
HETATM   15  C9  UNK     1      21.007  -5.368  37.904  1.00  0.00     0.037 A 
ENDBRANCH   3   5
BRANCH   2  16
HETATM   16  C2  UNK     1      18.511  -1.659  36.698  1.00  0.00     0.035 A 
HETATM   17  C4  UNK     1      18.651  -1.279  35.357  1.00  0.00     0.044 A 
HETATM   18  C1  UNK     1      18.312   0.036  34.994  1.00  0.00     0.013 A 
HETATM   19  C3  UNK     1      17.852   0.914  35.968  1.00  0.00     0.062 A 
HETATM   20  C12 UNK     1      18.303   0.796  33.805  1.00  0.00     0.152 A 
HETATM   21  C10 UNK     1      17.706   0.555  37.311  1.00  0.00     0.034 A 
HETATM   22  N2  UNK     1      17.614   2.090  35.309  1.00  0.00    -0.278 N 
HETATM   23  C8  UNK     1      18.047  -0.756  37.657  1.00  0.00     0.032 A 
HETATM   24  H7  UNK     1      17.268   2.958  35.700  1.00  0.00     0.189 HD
HETATM   25  N3  UNK     1      17.878   2.047  33.993  1.00  0.00    -0.186 NA
ENDBRANCH   2  16
TORSDOF 2
ENDMDL
