MODEL 1
REMARK VINA RESULT:     -10.3      0.000      0.000
REMARK  4 active torsions:
REMARK  status: ('A' for Active; 'I' for Inactive)
REMARK    1  A    between atoms: C10_17  and  O2_3 
REMARK       I    between atoms: C11_18  and  N1_7 
REMARK    2  A    between atoms: C4_11  and  N1_7 
REMARK    3  A    between atoms: C10_17  and  C2_9 
REMARK    4  A    between atoms: C11_18  and  C7_14 
ROOT
HETATM    1  S1  UNK     1      21.110  -4.670  37.631  1.00  0.00    -0.075 SA
HETATM    2  C1  UNK     1      20.408  -7.110  37.242  1.00  0.00     0.006 A 
HETATM    3  C2  UNK     1      19.953  -6.383  36.105  1.00  0.00     0.085 A 
HETATM    4  C3  UNK     1      21.053  -6.300  38.151  1.00  0.00    -0.007 A 
HETATM    5  C4  UNK     1      20.277  -5.080  36.217  1.00  0.00     0.094 A 
HETATM    6  C5  UNK     1      20.252  -8.522  37.490  1.00  0.00    -0.024 A 
HETATM    7  C6  UNK     1      21.671  -6.650  39.452  1.00  0.00     0.057 C 
HETATM    8  C8  UNK     1      21.227  -9.413  37.052  1.00  0.00     0.012 A 
HETATM    9  C9  UNK     1      19.127  -8.986  38.164  1.00  0.00     0.012 A 
HETATM   10  C15 UNK     1      21.077 -10.780  37.291  1.00  0.00     0.001 A 
HETATM   11  C16 UNK     1      18.975 -10.352  38.404  1.00  0.00     0.001 A 
HETATM   12  C19 UNK     1      19.951 -11.248  37.967  1.00  0.00     0.000 A 
ENDROOT
BRANCH   5  13
HETATM   13  N1  UNK     1      20.028  -4.004  35.331  1.00  0.00    -0.316 N 
HETATM   14  C11 UNK     1      19.612  -2.720  35.654  1.00  0.00     0.262 C 
HETATM   15  O4  UNK     1      19.377  -2.257  36.769  1.00  0.00    -0.267 OA
HETATM   16  H1  UNK     1      20.165  -4.245  34.353  1.00  0.00     0.169 HD
BRANCH  14  17
HETATM   17  C7  UNK     1      19.459  -1.872  34.467  1.00  0.00     0.108 A 
HETATM   18  C13 UNK     1      20.097  -2.278  33.363  1.00  0.00     0.037 A 
HETATM   19  C12 UNK     1      20.004  -1.503  32.135  1.00  0.00    -0.001 A 
HETATM   20  C14 UNK     1      19.245  -0.338  32.130  1.00  0.00     0.089 A 
HETATM   21  C18 UNK     1      20.654  -1.890  30.960  1.00  0.00     0.014 A 
HETATM   22  O1  UNK     1      18.575   0.085  33.296  1.00  0.00    -0.274 OA
HETATM   23  C20 UNK     1      19.116   0.450  30.988  1.00  0.00     0.038 A 
HETATM   24  C17 UNK     1      18.644  -0.636  34.484  1.00  0.00     0.304 A 
HETATM   25  O5  UNK     1      18.058  -0.260  35.494  1.00  0.00    -0.259 OA
HETATM   26  C22 UNK     1      19.768   0.058  29.820  1.00  0.00     0.003 A 
HETATM   27  C21 UNK     1      20.535  -1.110  29.806  1.00  0.00     0.001 A 
ENDBRANCH  14  17
ENDBRANCH   5  13
BRANCH   3  28
HETATM   28  C10 UNK     1      19.245  -6.940  34.978  1.00  0.00     0.296 C 
HETATM   29  O3  UNK     1      19.718  -7.021  33.836  1.00  0.00    -0.259 OA
BRANCH  28  30
HETATM   30  O2  UNK     1      17.975  -7.384  35.283  1.00  0.00    -0.322 OA
HETATM   31  C23 UNK     1      17.179  -6.537  36.119  1.00  0.00     0.213 C 
ENDBRANCH  28  30
ENDBRANCH   3  28
TORSDOF 4
ENDMDL
MODEL 2
REMARK VINA RESULT:     -10.0      2.060      3.393
REMARK  4 active torsions:
REMARK  status: ('A' for Active; 'I' for Inactive)
REMARK    1  A    between atoms: C10_17  and  O2_3 
REMARK       I    between atoms: C11_18  and  N1_7 
REMARK    2  A    between atoms: C4_11  and  N1_7 
REMARK    3  A    between atoms: C10_17  and  C2_9 
REMARK    4  A    between atoms: C11_18  and  C7_14 
ROOT
HETATM    1  S1  UNK     1      21.868  -5.324  38.153  1.00  0.00    -0.075 SA
HETATM    2  C1  UNK     1      20.537  -7.514  37.967  1.00  0.00     0.006 A 
HETATM    3  C2  UNK     1      19.715  -6.502  37.394  1.00  0.00     0.085 A 
HETATM    4  C3  UNK     1      21.737  -7.010  38.420  1.00  0.00    -0.007 A 
HETATM    5  C4  UNK     1      20.332  -5.306  37.445  1.00  0.00     0.094 A 
HETATM    6  C5  UNK     1      20.227  -8.916  38.097  1.00  0.00    -0.024 A 
HETATM    7  C6  UNK     1      22.866  -7.713  39.074  1.00  0.00     0.057 C 
HETATM    8  C8  UNK     1      20.573  -9.798  37.077  1.00  0.00     0.012 A 
HETATM    9  C9  UNK     1      19.582  -9.379  39.240  1.00  0.00     0.012 A 
HETATM   10  C15 UNK     1      20.273 -11.155  37.202  1.00  0.00     0.001 A 
HETATM   11  C16 UNK     1      19.282 -10.735  39.366  1.00  0.00     0.001 A 
HETATM   12  C19 UNK     1      19.627 -11.623  38.347  1.00  0.00     0.000 A 
ENDROOT
BRANCH   5  13
HETATM   13  N1  UNK     1      19.891  -4.037  36.996  1.00  0.00    -0.316 N 
HETATM   14  C11 UNK     1      19.934  -3.534  35.704  1.00  0.00     0.262 C 
HETATM   15  O4  UNK     1      20.360  -4.084  34.690  1.00  0.00    -0.267 OA
HETATM   16  H1  UNK     1      19.523  -3.450  37.740  1.00  0.00     0.169 HD
BRANCH  14  17
HETATM   17  C7  UNK     1      19.385  -2.176  35.619  1.00  0.00     0.108 A 
HETATM   18  C13 UNK     1      18.836  -1.689  36.737  1.00  0.00     0.037 A 
HETATM   19  C12 UNK     1      18.265  -0.350  36.751  1.00  0.00    -0.001 A 
HETATM   20  C14 UNK     1      18.301   0.409  35.587  1.00  0.00     0.089 A 
HETATM   21  C18 UNK     1      17.682   0.198  37.897  1.00  0.00     0.014 A 
HETATM   22  O1  UNK     1      18.881  -0.109  34.412  1.00  0.00    -0.274 OA
HETATM   23  C20 UNK     1      17.772   1.697  35.533  1.00  0.00     0.038 A 
HETATM   24  C17 UNK     1      19.436  -1.385  34.368  1.00  0.00     0.304 A 
HETATM   25  O5  UNK     1      19.938  -1.829  33.340  1.00  0.00    -0.259 OA
HETATM   26  C22 UNK     1      17.191   2.236  36.679  1.00  0.00     0.003 A 
HETATM   27  C21 UNK     1      17.146   1.489  37.858  1.00  0.00     0.001 A 
ENDBRANCH  14  17
ENDBRANCH   5  13
BRANCH   3  28
HETATM   28  C10 UNK     1      18.402  -6.704  36.830  1.00  0.00     0.296 C 
HETATM   29  O3  UNK     1      17.356  -6.290  37.350  1.00  0.00    -0.259 OA
BRANCH  28  30
HETATM   30  O2  UNK     1      18.407  -7.408  35.645  1.00  0.00    -0.322 OA
HETATM   31  C23 UNK     1      17.131  -7.703  35.064  1.00  0.00     0.213 C 
ENDBRANCH  28  30
ENDBRANCH   3  28
TORSDOF 4
ENDMDL
MODEL 3
REMARK VINA RESULT:      -9.8     16.615     20.493
REMARK  4 active torsions:
REMARK  status: ('A' for Active; 'I' for Inactive)
REMARK    1  A    between atoms: C10_17  and  O2_3 
REMARK       I    between atoms: C11_18  and  N1_7 
REMARK    2  A    between atoms: C4_11  and  N1_7 
REMARK    3  A    between atoms: C10_17  and  C2_9 
REMARK    4  A    between atoms: C11_18  and  C7_14 
ROOT
HETATM    1  S1  UNK     1      19.111  -2.064  12.728  1.00  0.00    -0.075 SA
HETATM    2  C1  UNK     1      19.544  -4.575  13.058  1.00  0.00     0.006 A 
HETATM    3  C2  UNK     1      19.668  -3.980  14.346  1.00  0.00     0.085 A 
HETATM    4  C3  UNK     1      19.242  -3.646  12.086  1.00  0.00    -0.007 A 
HETATM    5  C4  UNK     1      19.457  -2.652  14.276  1.00  0.00     0.094 A 
HETATM    6  C5  UNK     1      19.699  -5.970  12.726  1.00  0.00    -0.024 A 
HETATM    7  C6  UNK     1      19.029  -3.841  10.632  1.00  0.00     0.057 C 
HETATM    8  C8  UNK     1      18.594  -6.817  12.764  1.00  0.00     0.012 A 
HETATM    9  C9  UNK     1      20.951  -6.462  12.372  1.00  0.00     0.012 A 
HETATM   10  C15 UNK     1      18.744  -8.166  12.444  1.00  0.00     0.001 A 
HETATM   11  C16 UNK     1      21.101  -7.811  12.050  1.00  0.00     0.001 A 
HETATM   12  C19 UNK     1      19.997  -8.663  12.087  1.00  0.00     0.000 A 
ENDROOT
BRANCH   5  13
HETATM   13  N1  UNK     1      19.479  -1.674  15.299  1.00  0.00    -0.316 N 
HETATM   14  C11 UNK     1      18.518  -1.445  16.274  1.00  0.00     0.262 C 
HETATM   15  O4  UNK     1      17.457  -2.043  16.447  1.00  0.00    -0.267 OA
HETATM   16  H1  UNK     1      20.303  -1.078  15.273  1.00  0.00     0.169 HD
BRANCH  14  17
HETATM   17  C7  UNK     1      18.886  -0.342  17.168  1.00  0.00     0.108 A 
HETATM   18  C13 UNK     1      18.936  -0.629  18.474  1.00  0.00     0.037 A 
HETATM   19  C12 UNK     1      19.292   0.400  19.439  1.00  0.00    -0.001 A 
HETATM   20  C14 UNK     1      19.578   1.682  18.980  1.00  0.00     0.089 A 
HETATM   21  C18 UNK     1      19.356   0.144  20.811  1.00  0.00     0.014 A 
HETATM   22  O1  UNK     1      19.523   1.979  17.604  1.00  0.00    -0.274 OA
HETATM   23  C20 UNK     1      19.924   2.713  19.851  1.00  0.00     0.038 A 
HETATM   24  C17 UNK     1      19.187   1.015  16.658  1.00  0.00     0.304 A 
HETATM   25  O5  UNK     1      19.141   1.283  15.461  1.00  0.00    -0.259 OA
HETATM   26  C22 UNK     1      19.986   2.449  21.219  1.00  0.00     0.003 A 
HETATM   27  C21 UNK     1      19.702   1.168  21.697  1.00  0.00     0.001 A 
ENDBRANCH  14  17
ENDBRANCH   5  13
BRANCH   3  28
HETATM   28  C10 UNK     1      19.977  -4.680  15.570  1.00  0.00     0.296 C 
HETATM   29  O3  UNK     1      19.446  -5.748  15.907  1.00  0.00    -0.259 OA
BRANCH  28  30
HETATM   30  O2  UNK     1      20.927  -4.054  16.347  1.00  0.00    -0.322 OA
HETATM   31  C23 UNK     1      22.283  -4.121  15.888  1.00  0.00     0.213 C 
ENDBRANCH  28  30
ENDBRANCH   3  28
TORSDOF 4
ENDMDL
MODEL 4
REMARK VINA RESULT:      -9.7     10.983     15.209
REMARK  4 active torsions:
REMARK  status: ('A' for Active; 'I' for Inactive)
REMARK    1  A    between atoms: C10_17  and  O2_3 
REMARK       I    between atoms: C11_18  and  N1_7 
REMARK    2  A    between atoms: C4_11  and  N1_7 
REMARK    3  A    between atoms: C10_17  and  C2_9 
REMARK    4  A    between atoms: C11_18  and  C7_14 
ROOT
HETATM    1  S1  UNK     1      19.366   8.633  34.105  1.00  0.00    -0.075 SA
HETATM    2  C1  UNK     1      18.571   6.858  32.427  1.00  0.00     0.006 A 
HETATM    3  C2  UNK     1      17.513   7.807  32.529  1.00  0.00     0.085 A 
HETATM    4  C3  UNK     1      19.640   7.186  33.232  1.00  0.00    -0.007 A 
HETATM    5  C4  UNK     1      17.838   8.786  33.394  1.00  0.00     0.094 A 
HETATM    6  C5  UNK     1      18.599   5.673  31.606  1.00  0.00    -0.024 A 
HETATM    7  C6  UNK     1      20.928   6.478  33.422  1.00  0.00     0.057 C 
HETATM    8  C8  UNK     1      19.097   5.742  30.308  1.00  0.00     0.012 A 
HETATM    9  C9  UNK     1      18.128   4.467  32.116  1.00  0.00     0.012 A 
HETATM   10  C15 UNK     1      19.124   4.596  29.513  1.00  0.00     0.001 A 
HETATM   11  C16 UNK     1      18.155   3.320  31.322  1.00  0.00     0.001 A 
HETATM   12  C19 UNK     1      18.654   3.385  30.021  1.00  0.00     0.000 A 
ENDROOT
BRANCH   5  13
HETATM   13  N1  UNK     1      17.098   9.923  33.798  1.00  0.00    -0.316 N 
HETATM   14  C11 UNK     1      16.093   9.985  34.753  1.00  0.00     0.262 C 
HETATM   15  O4  UNK     1      15.643   9.069  35.440  1.00  0.00    -0.267 OA
HETATM   16  H1  UNK     1      17.350  10.770  33.294  1.00  0.00     0.169 HD
BRANCH  14  17
HETATM   17  C7  UNK     1      15.553  11.341  34.903  1.00  0.00     0.108 A 
HETATM   18  C13 UNK     1      14.221  11.443  34.977  1.00  0.00     0.037 A 
HETATM   19  C12 UNK     1      13.592  12.747  35.127  1.00  0.00    -0.001 A 
HETATM   20  C14 UNK     1      14.398  13.878  35.192  1.00  0.00     0.089 A 
HETATM   21  C18 UNK     1      12.205  12.899  35.208  1.00  0.00     0.014 A 
HETATM   22  O1  UNK     1      15.800  13.765  35.114  1.00  0.00    -0.274 OA
HETATM   23  C20 UNK     1      13.859  15.156  35.334  1.00  0.00     0.038 A 
HETATM   24  C17 UNK     1      16.430  12.532  34.971  1.00  0.00     0.304 A 
HETATM   25  O5  UNK     1      17.651  12.442  34.904  1.00  0.00    -0.259 OA
HETATM   26  C22 UNK     1      12.475  15.300  35.414  1.00  0.00     0.003 A 
HETATM   27  C21 UNK     1      11.650  14.174  35.350  1.00  0.00     0.001 A 
ENDBRANCH  14  17
ENDBRANCH   5  13
BRANCH   3  28
HETATM   28  C10 UNK     1      16.260   7.749  31.815  1.00  0.00     0.296 C 
HETATM   29  O3  UNK     1      16.017   8.406  30.794  1.00  0.00    -0.259 OA
BRANCH  28  30
HETATM   30  O2  UNK     1      15.341   6.887  32.373  1.00  0.00    -0.322 OA
HETATM   31  C23 UNK     1      13.967   7.289  32.324  1.00  0.00     0.213 C 
ENDBRANCH  28  30
ENDBRANCH   3  28
TORSDOF 4
ENDMDL
MODEL 5
REMARK VINA RESULT:      -9.7      8.165     11.004
REMARK  4 active torsions:
REMARK  status: ('A' for Active; 'I' for Inactive)
REMARK    1  A    between atoms: C10_17  and  O2_3 
REMARK       I    between atoms: C11_18  and  N1_7 
REMARK    2  A    between atoms: C4_11  and  N1_7 
REMARK    3  A    between atoms: C10_17  and  C2_9 
REMARK    4  A    between atoms: C11_18  and  C7_14 
ROOT
HETATM    1  S1  UNK     1      28.515  -9.332  36.542  1.00  0.00    -0.075 SA
HETATM    2  C1  UNK     1      30.543  -7.790  36.874  1.00  0.00     0.006 A 
HETATM    3  C2  UNK     1      29.422  -7.090  37.406  1.00  0.00     0.085 A 
HETATM    4  C3  UNK     1      30.191  -9.024  36.372  1.00  0.00    -0.007 A 
HETATM    5  C4  UNK     1      28.301  -7.824  37.277  1.00  0.00     0.094 A 
HETATM    6  C5  UNK     1      31.910  -7.335  36.829  1.00  0.00    -0.024 A 
HETATM    7  C6  UNK     1      31.040 -10.059  35.737  1.00  0.00     0.057 C 
HETATM    8  C8  UNK     1      32.768  -7.615  37.889  1.00  0.00     0.012 A 
HETATM    9  C9  UNK     1      32.365  -6.619  35.726  1.00  0.00     0.012 A 
HETATM   10  C15 UNK     1      34.091  -7.175  37.846  1.00  0.00     0.001 A 
HETATM   11  C16 UNK     1      33.688  -6.179  35.682  1.00  0.00     0.001 A 
HETATM   12  C19 UNK     1      34.551  -6.458  36.742  1.00  0.00     0.000 A 
ENDROOT
BRANCH   5  13
HETATM   13  N1  UNK     1      26.971  -7.526  37.663  1.00  0.00    -0.316 N 
HETATM   14  C11 UNK     1      26.284  -8.002  38.771  1.00  0.00     0.262 C 
HETATM   15  O4  UNK     1      26.687  -8.773  39.639  1.00  0.00    -0.267 OA
HETATM   16  H1  UNK     1      26.493  -6.902  37.018  1.00  0.00     0.169 HD
BRANCH  14  17
HETATM   17  C7  UNK     1      24.918  -7.472  38.845  1.00  0.00     0.108 A 
HETATM   18  C13 UNK     1      23.940  -8.375  38.980  1.00  0.00     0.037 A 
HETATM   19  C12 UNK     1      22.552  -7.946  39.063  1.00  0.00    -0.001 A 
HETATM   20  C14 UNK     1      22.262  -6.587  38.999  1.00  0.00     0.089 A 
HETATM   21  C18 UNK     1      21.499  -8.855  39.204  1.00  0.00     0.014 A 
HETATM   22  O1  UNK     1      23.296  -5.641  38.857  1.00  0.00    -0.274 OA
HETATM   23  C20 UNK     1      20.955  -6.111  39.071  1.00  0.00     0.038 A 
HETATM   24  C17 UNK     1      24.633  -6.021  38.776  1.00  0.00     0.304 A 
HETATM   25  O5  UNK     1      25.527  -5.190  38.652  1.00  0.00    -0.259 OA
HETATM   26  C22 UNK     1      19.911  -7.023  39.212  1.00  0.00     0.003 A 
HETATM   27  C21 UNK     1      20.182  -8.392  39.277  1.00  0.00     0.001 A 
ENDBRANCH  14  17
ENDBRANCH   5  13
BRANCH   3  28
HETATM   28  C10 UNK     1      29.458  -5.777  38.005  1.00  0.00     0.296 C 
HETATM   29  O3  UNK     1      29.225  -5.558  39.202  1.00  0.00    -0.259 OA
BRANCH  28  30
HETATM   30  O2  UNK     1      29.780  -4.770  37.121  1.00  0.00    -0.322 OA
HETATM   31  C23 UNK     1      30.730  -3.796  37.571  1.00  0.00     0.213 C 
ENDBRANCH  28  30
ENDBRANCH   3  28
TORSDOF 4
ENDMDL
MODEL 6
REMARK VINA RESULT:      -9.6      8.594     11.372
REMARK  4 active torsions:
REMARK  status: ('A' for Active; 'I' for Inactive)
REMARK    1  A    between atoms: C10_17  and  O2_3 
REMARK       I    between atoms: C11_18  and  N1_7 
REMARK    2  A    between atoms: C4_11  and  N1_7 
REMARK    3  A    between atoms: C10_17  and  C2_9 
REMARK    4  A    between atoms: C11_18  and  C7_14 
ROOT
HETATM    1  S1  UNK     1      29.226  -8.747  36.180  1.00  0.00    -0.075 SA
HETATM    2  C1  UNK     1      31.166  -7.083  36.445  1.00  0.00     0.006 A 
HETATM    3  C2  UNK     1      30.033  -6.469  37.053  1.00  0.00     0.085 A 
HETATM    4  C3  UNK     1      30.867  -8.326  35.930  1.00  0.00    -0.007 A 
HETATM    5  C4  UNK     1      28.955  -7.272  36.964  1.00  0.00     0.094 A 
HETATM    6  C5  UNK     1      32.497  -6.539  36.340  1.00  0.00    -0.024 A 
HETATM    7  C6  UNK     1      31.745  -9.289  35.226  1.00  0.00     0.057 C 
HETATM    8  C8  UNK     1      33.426  -6.786  37.346  1.00  0.00     0.012 A 
HETATM    9  C9  UNK     1      32.844  -5.770  35.234  1.00  0.00     0.012 A 
HETATM   10  C15 UNK     1      34.714  -6.259  37.245  1.00  0.00     0.001 A 
HETATM   11  C16 UNK     1      34.132  -5.244  35.131  1.00  0.00     0.001 A 
HETATM   12  C19 UNK     1      35.067  -5.489  36.137  1.00  0.00     0.000 A 
ENDROOT
BRANCH   5  13
HETATM   13  N1  UNK     1      27.632  -7.070  37.426  1.00  0.00    -0.316 N 
HETATM   14  C11 UNK     1      27.058  -7.560  38.591  1.00  0.00     0.262 C 
HETATM   15  O4  UNK     1      27.578  -8.264  39.455  1.00  0.00    -0.267 OA
HETATM   16  H1  UNK     1      27.063  -6.512  36.795  1.00  0.00     0.169 HD
BRANCH  14  17
HETATM   17  C7  UNK     1      25.659  -7.142  38.738  1.00  0.00     0.108 A 
HETATM   18  C13 UNK     1      24.756  -8.124  38.837  1.00  0.00     0.037 A 
HETATM   19  C12 UNK     1      23.343  -7.808  38.986  1.00  0.00    -0.001 A 
HETATM   20  C14 UNK     1      22.952  -6.473  39.023  1.00  0.00     0.089 A 
HETATM   21  C18 UNK     1      22.366  -8.801  39.093  1.00  0.00     0.014 A 
HETATM   22  O1  UNK     1      23.908  -5.444  38.918  1.00  0.00    -0.274 OA
HETATM   23  C20 UNK     1      21.616  -6.103  39.163  1.00  0.00     0.038 A 
HETATM   24  C17 UNK     1      25.266  -5.715  38.776  1.00  0.00     0.304 A 
HETATM   25  O5  UNK     1      26.092  -4.812  38.685  1.00  0.00    -0.259 OA
HETATM   26  C22 UNK     1      20.647  -7.100  39.268  1.00  0.00     0.003 A 
HETATM   27  C21 UNK     1      21.021  -8.445  39.233  1.00  0.00     0.001 A 
ENDBRANCH  14  17
ENDBRANCH   5  13
BRANCH   3  28
HETATM   28  C10 UNK     1      30.017  -5.171  37.682  1.00  0.00     0.296 C 
HETATM   29  O3  UNK     1      30.364  -4.125  37.116  1.00  0.00    -0.259 OA
BRANCH  28  30
HETATM   30  O2  UNK     1      29.575  -5.190  38.988  1.00  0.00    -0.322 OA
HETATM   31  C23 UNK     1      29.380  -3.920  39.622  1.00  0.00     0.213 C 
ENDBRANCH  28  30
ENDBRANCH   3  28
TORSDOF 4
ENDMDL
MODEL 7
REMARK VINA RESULT:      -9.3      1.607      2.406
REMARK  4 active torsions:
REMARK  status: ('A' for Active; 'I' for Inactive)
REMARK    1  A    between atoms: C10_17  and  O2_3 
REMARK       I    between atoms: C11_18  and  N1_7 
REMARK    2  A    between atoms: C4_11  and  N1_7 
REMARK    3  A    between atoms: C10_17  and  C2_9 
REMARK    4  A    between atoms: C11_18  and  C7_14 
ROOT
HETATM    1  S1  UNK     1      21.757  -5.020  37.992  1.00  0.00    -0.075 SA
HETATM    2  C1  UNK     1      20.670  -7.321  37.642  1.00  0.00     0.006 A 
HETATM    3  C2  UNK     1      20.010  -6.431  36.746  1.00  0.00     0.085 A 
HETATM    4  C3  UNK     1      21.643  -6.683  38.381  1.00  0.00    -0.007 A 
HETATM    5  C4  UNK     1      20.515  -5.187  36.857  1.00  0.00     0.094 A 
HETATM    6  C5  UNK     1      20.411  -8.728  37.816  1.00  0.00    -0.024 A 
HETATM    7  C6  UNK     1      22.552  -7.234  39.413  1.00  0.00     0.057 C 
HETATM    8  C8  UNK     1      21.102  -9.659  37.045  1.00  0.00     0.012 A 
HETATM    9  C9  UNK     1      19.472  -9.149  38.753  1.00  0.00     0.012 A 
HETATM   10  C15 UNK     1      20.852 -11.021  37.213  1.00  0.00     0.001 A 
HETATM   11  C16 UNK     1      19.222 -10.511  38.922  1.00  0.00     0.001 A 
HETATM   12  C19 UNK     1      19.912 -11.447  38.152  1.00  0.00     0.000 A 
ENDROOT
BRANCH   5  13
HETATM   13  N1  UNK     1      20.166  -4.001  36.167  1.00  0.00    -0.316 N 
HETATM   14  C11 UNK     1      19.721  -2.804  36.712  1.00  0.00     0.262 C 
HETATM   15  O4  UNK     1      19.541  -2.531  37.897  1.00  0.00    -0.267 OA
HETATM   16  H1  UNK     1      20.248  -4.081  35.157  1.00  0.00     0.169 HD
BRANCH  14  17
HETATM   17  C7  UNK     1      19.457  -1.792  35.683  1.00  0.00     0.108 A 
HETATM   18  C13 UNK     1      18.907  -0.648  36.107  1.00  0.00     0.037 A 
HETATM   19  C12 UNK     1      18.609   0.417  35.160  1.00  0.00    -0.001 A 
HETATM   20  C14 UNK     1      18.903   0.223  33.815  1.00  0.00     0.089 A 
HETATM   21  C18 UNK     1      18.035   1.627  35.559  1.00  0.00     0.014 A 
HETATM   22  O1  UNK     1      19.481  -0.984  33.375  1.00  0.00    -0.274 OA
HETATM   23  C20 UNK     1      18.640   1.201  32.858  1.00  0.00     0.038 A 
HETATM   24  C17 UNK     1      19.779  -2.019  34.256  1.00  0.00     0.304 A 
HETATM   25  O5  UNK     1      20.282  -3.067  33.864  1.00  0.00    -0.259 OA
HETATM   26  C22 UNK     1      18.068   2.406  33.263  1.00  0.00     0.003 A 
HETATM   27  C21 UNK     1      17.766   2.618  34.610  1.00  0.00     0.001 A 
ENDBRANCH  14  17
ENDBRANCH   5  13
BRANCH   3  28
HETATM   28  C10 UNK     1      18.947  -6.788  35.837  1.00  0.00     0.296 C 
HETATM   29  O3  UNK     1      19.106  -6.950  34.619  1.00  0.00    -0.259 OA
BRANCH  28  30
HETATM   30  O2  UNK     1      17.720  -6.937  36.446  1.00  0.00    -0.322 OA
HETATM   31  C23 UNK     1      16.573  -6.962  35.588  1.00  0.00     0.213 C 
ENDBRANCH  28  30
ENDBRANCH   3  28
TORSDOF 4
ENDMDL
MODEL 8
REMARK VINA RESULT:      -9.2      2.281      8.926
REMARK  4 active torsions:
REMARK  status: ('A' for Active; 'I' for Inactive)
REMARK    1  A    between atoms: C10_17  and  O2_3 
REMARK       I    between atoms: C11_18  and  N1_7 
REMARK    2  A    between atoms: C4_11  and  N1_7 
REMARK    3  A    between atoms: C10_17  and  C2_9 
REMARK    4  A    between atoms: C11_18  and  C7_14 
ROOT
HETATM    1  S1  UNK     1      17.226  -1.916  37.537  1.00  0.00    -0.075 SA
HETATM    2  C1  UNK     1      18.270  -0.156  35.984  1.00  0.00     0.006 A 
HETATM    3  C2  UNK     1      18.948  -1.378  35.708  1.00  0.00     0.085 A 
HETATM    4  C3  UNK     1      17.308  -0.307  36.959  1.00  0.00    -0.007 A 
HETATM    5  C4  UNK     1      18.467  -2.370  36.481  1.00  0.00     0.094 A 
HETATM    6  C5  UNK     1      18.501   1.126  35.364  1.00  0.00    -0.024 A 
HETATM    7  C6  UNK     1      16.386   0.701  37.536  1.00  0.00     0.057 C 
HETATM    8  C8  UNK     1      17.793   1.477  34.218  1.00  0.00     0.012 A 
HETATM    9  C9  UNK     1      19.430   2.003  35.914  1.00  0.00     0.012 A 
HETATM   10  C15 UNK     1      18.016   2.716  33.618  1.00  0.00     0.001 A 
HETATM   11  C16 UNK     1      19.653   3.243  35.315  1.00  0.00     0.001 A 
HETATM   12  C19 UNK     1      18.946   3.599  34.167  1.00  0.00     0.000 A 
ENDROOT
BRANCH   5  13
HETATM   13  N1  UNK     1      18.840  -3.735  36.542  1.00  0.00    -0.316 N 
HETATM   14  C11 UNK     1      19.958  -4.281  37.159  1.00  0.00     0.262 C 
HETATM   15  O4  UNK     1      20.846  -3.695  37.774  1.00  0.00    -0.267 OA
HETATM   16  H1  UNK     1      18.199  -4.352  36.052  1.00  0.00     0.169 HD
BRANCH  14  17
HETATM   17  C7  UNK     1      20.013  -5.740  37.015  1.00  0.00     0.108 A 
HETATM   18  C13 UNK     1      19.875  -6.451  38.140  1.00  0.00     0.037 A 
HETATM   19  C12 UNK     1      19.915  -7.905  38.098  1.00  0.00    -0.001 A 
HETATM   20  C14 UNK     1      20.099  -8.538  36.873  1.00  0.00     0.089 A 
HETATM   21  C18 UNK     1      19.775  -8.687  39.247  1.00  0.00     0.014 A 
HETATM   22  O1  UNK     1      20.244  -7.784  35.692  1.00  0.00    -0.274 OA
HETATM   23  C20 UNK     1      20.148  -9.926  36.764  1.00  0.00     0.038 A 
HETATM   24  C17 UNK     1      20.209  -6.392  35.700  1.00  0.00     0.304 A 
HETATM   25  O5  UNK     1      20.336  -5.744  34.667  1.00  0.00    -0.259 OA
HETATM   26  C22 UNK     1      20.008 -10.699  37.916  1.00  0.00     0.003 A 
HETATM   27  C21 UNK     1      19.822 -10.081  39.154  1.00  0.00     0.001 A 
ENDBRANCH  14  17
ENDBRANCH   5  13
BRANCH   3  28
HETATM   28  C10 UNK     1      20.005  -1.553  34.742  1.00  0.00     0.296 C 
HETATM   29  O3  UNK     1      21.175  -1.828  35.041  1.00  0.00    -0.259 OA
BRANCH  28  30
HETATM   30  O2  UNK     1      19.599  -1.386  33.435  1.00  0.00    -0.322 OA
HETATM   31  C23 UNK     1      20.318  -2.120  32.437  1.00  0.00     0.213 C 
ENDBRANCH  28  30
ENDBRANCH   3  28
TORSDOF 4
ENDMDL
MODEL 9
REMARK VINA RESULT:      -9.2      3.286      5.488
REMARK  4 active torsions:
REMARK  status: ('A' for Active; 'I' for Inactive)
REMARK    1  A    between atoms: C10_17  and  O2_3 
REMARK       I    between atoms: C11_18  and  N1_7 
REMARK    2  A    between atoms: C4_11  and  N1_7 
REMARK    3  A    between atoms: C10_17  and  C2_9 
REMARK    4  A    between atoms: C11_18  and  C7_14 
ROOT
HETATM    1  S1  UNK     1      18.281   0.013  36.719  1.00  0.00    -0.075 SA
HETATM    2  C1  UNK     1      19.300  -2.329  36.436  1.00  0.00     0.006 A 
HETATM    3  C2  UNK     1      19.481  -1.665  35.188  1.00  0.00     0.085 A 
HETATM    4  C3  UNK     1      18.660  -1.530  37.358  1.00  0.00    -0.007 A 
HETATM    5  C4  UNK     1      18.974  -0.419  35.237  1.00  0.00     0.094 A 
HETATM    6  C5  UNK     1      19.706  -3.670  36.774  1.00  0.00    -0.024 A 
HETATM    7  C6  UNK     1      18.281  -1.828  38.760  1.00  0.00     0.057 C 
HETATM    8  C8  UNK     1      20.970  -3.894  37.314  1.00  0.00     0.012 A 
HETATM    9  C9  UNK     1      18.834  -4.732  36.558  1.00  0.00     0.012 A 
HETATM   10  C15 UNK     1      21.364  -5.192  37.641  1.00  0.00     0.001 A 
HETATM   11  C16 UNK     1      19.227  -6.030  36.886  1.00  0.00     0.001 A 
HETATM   12  C19 UNK     1      20.492  -6.260  37.427  1.00  0.00     0.000 A 
ENDROOT
BRANCH   5  13
HETATM   13  N1  UNK     1      18.934   0.585  34.239  1.00  0.00    -0.316 N 
HETATM   14  C11 UNK     1      17.812   1.200  33.701  1.00  0.00     0.262 C 
HETATM   15  O4  UNK     1      16.631   1.000  33.978  1.00  0.00    -0.267 OA
HETATM   16  H1  UNK     1      19.853   0.846  33.891  1.00  0.00     0.169 HD
BRANCH  14  17
HETATM   17  C7  UNK     1      18.163   2.198  32.684  1.00  0.00     0.108 A 
HETATM   18  C13 UNK     1      18.097   3.479  33.065  1.00  0.00     0.037 A 
HETATM   19  C12 UNK     1      18.426   4.541  32.126  1.00  0.00    -0.001 A 
HETATM   20  C14 UNK     1      18.808   4.202  30.832  1.00  0.00     0.089 A 
HETATM   21  C18 UNK     1      18.372   5.892  32.481  1.00  0.00     0.014 A 
HETATM   22  O1  UNK     1      18.874   2.851  30.437  1.00  0.00    -0.274 OA
HETATM   23  C20 UNK     1      19.135   5.170  29.885  1.00  0.00     0.038 A 
HETATM   24  C17 UNK     1      18.567   1.813  31.312  1.00  0.00     0.304 A 
HETATM   25  O5  UNK     1      18.627   0.640  30.959  1.00  0.00    -0.259 OA
HETATM   26  C22 UNK     1      19.077   6.515  30.247  1.00  0.00     0.003 A 
HETATM   27  C21 UNK     1      18.697   6.875  31.542  1.00  0.00     0.001 A 
ENDBRANCH  14  17
ENDBRANCH   5  13
BRANCH   3  28
HETATM   28  C10 UNK     1      20.116  -2.228  34.021  1.00  0.00     0.296 C 
HETATM   29  O3  UNK     1      20.981  -3.114  34.065  1.00  0.00    -0.259 OA
BRANCH  28  30
HETATM   30  O2  UNK     1      19.672  -1.692  32.831  1.00  0.00    -0.322 OA
HETATM   31  C23 UNK     1      20.413  -2.031  31.654  1.00  0.00     0.213 C 
ENDBRANCH  28  30
ENDBRANCH   3  28
TORSDOF 4
ENDMDL
MODEL 10
REMARK VINA RESULT:      -9.1      6.697      9.417
REMARK  4 active torsions:
REMARK  status: ('A' for Active; 'I' for Inactive)
REMARK    1  A    between atoms: C10_17  and  O2_3 
REMARK       I    between atoms: C11_18  and  N1_7 
REMARK    2  A    between atoms: C4_11  and  N1_7 
REMARK    3  A    between atoms: C10_17  and  C2_9 
REMARK    4  A    between atoms: C11_18  and  C7_14 
ROOT
HETATM    1  S1  UNK     1      26.831 -10.068  39.733  1.00  0.00    -0.075 SA
HETATM    2  C1  UNK     1      28.762  -8.984  38.430  1.00  0.00     0.006 A 
HETATM    3  C2  UNK     1      27.567  -8.381  37.941  1.00  0.00     0.085 A 
HETATM    4  C3  UNK     1      28.506  -9.920  39.408  1.00  0.00    -0.007 A 
HETATM    5  C4  UNK     1      26.490  -8.889  38.570  1.00  0.00     0.094 A 
HETATM    6  C5  UNK     1      30.111  -8.706  38.006  1.00  0.00    -0.024 A 
HETATM    7  C6  UNK     1      29.453 -10.767  40.171  1.00  0.00     0.057 C 
HETATM    8  C8  UNK     1      30.847  -7.714  38.647  1.00  0.00     0.012 A 
HETATM    9  C9  UNK     1      30.671  -9.431  36.958  1.00  0.00     0.012 A 
HETATM   10  C15 UNK     1      32.153  -7.444  38.237  1.00  0.00     0.001 A 
HETATM   11  C16 UNK     1      31.977  -9.163  36.548  1.00  0.00     0.001 A 
HETATM   12  C19 UNK     1      32.718  -8.169  37.188  1.00  0.00     0.000 A 
ENDROOT
BRANCH   5  13
HETATM   13  N1  UNK     1      25.116  -8.586  38.406  1.00  0.00    -0.316 N 
HETATM   14  C11 UNK     1      24.241  -9.103  37.462  1.00  0.00     0.262 C 
HETATM   15  O4  UNK     1      24.477  -9.927  36.580  1.00  0.00    -0.267 OA
HETATM   16  H1  UNK     1      24.774  -7.891  39.065  1.00  0.00     0.169 HD
BRANCH  14  17
HETATM   17  C7  UNK     1      22.888  -8.552  37.600  1.00  0.00     0.108 A 
HETATM   18  C13 UNK     1      22.204  -8.373  36.464  1.00  0.00     0.037 A 
HETATM   19  C12 UNK     1      20.853  -7.831  36.499  1.00  0.00    -0.001 A 
HETATM   20  C14 UNK     1      20.291  -7.505  37.728  1.00  0.00     0.089 A 
HETATM   21  C18 UNK     1      20.103  -7.628  35.338  1.00  0.00     0.014 A 
HETATM   22  O1  UNK     1      21.016  -7.696  38.921  1.00  0.00    -0.274 OA
HETATM   23  C20 UNK     1      19.003  -6.982  37.831  1.00  0.00     0.038 A 
HETATM   24  C17 UNK     1      22.308  -8.213  38.920  1.00  0.00     0.304 A 
HETATM   25  O5  UNK     1      22.933  -8.375  39.963  1.00  0.00    -0.259 OA
HETATM   26  C22 UNK     1      18.261  -6.782  36.668  1.00  0.00     0.003 A 
HETATM   27  C21 UNK     1      18.810  -7.104  35.425  1.00  0.00     0.001 A 
ENDBRANCH  14  17
ENDBRANCH   5  13
BRANCH   3  28
HETATM   28  C10 UNK     1      27.495  -7.366  36.918  1.00  0.00     0.296 C 
HETATM   29  O3  UNK     1      27.829  -7.549  35.739  1.00  0.00    -0.259 OA
BRANCH  28  30
HETATM   30  O2  UNK     1      27.015  -6.155  37.367  1.00  0.00    -0.322 OA
HETATM   31  C23 UNK     1      27.797  -5.477  38.357  1.00  0.00     0.213 C 
ENDBRANCH  28  30
ENDBRANCH   3  28
TORSDOF 4
ENDMDL
