MODEL 1
REMARK VINA RESULT:      -9.3      0.000      0.000
REMARK  1 active torsions:
REMARK  status: ('A' for Active; 'I' for Inactive)
REMARK    1  A    between atoms: C11_16  and  C6_11 
ROOT
HETATM    1  O1  UNK     1      33.922 -11.600  30.361  1.00  0.00    -0.293 OA
HETATM    2  N1  UNK     1      34.277  -8.972  34.385  1.00  0.00    -0.357 N 
HETATM    3  N2  UNK     1      31.979 -10.824  33.815  1.00  0.00    -0.375 N 
HETATM    4  C1  UNK     1      36.865 -10.709  32.305  1.00  0.00    -0.036 C 
HETATM    5  C2  UNK     1      36.223  -9.551  33.085  1.00  0.00     0.067 C 
HETATM    6  C3  UNK     1      36.095 -10.891  30.999  1.00  0.00     0.092 C 
HETATM    7  C4  UNK     1      34.718  -9.671  33.277  1.00  0.00     0.022 C 
HETATM    8  C5  UNK     1      33.956 -10.365  32.406  1.00  0.00     0.037 C 
HETATM    9  C6  UNK     1      32.457 -10.492  32.484  1.00  0.00     0.160 C 
HETATM   10  C7  UNK     1      34.602 -11.016  31.208  1.00  0.00     0.160 C 
HETATM   11  C8  UNK     1      36.855 -12.010  33.133  1.00  0.00     0.015 C 
HETATM   12  C9  UNK     1      38.329 -10.357  31.988  1.00  0.00     0.015 C 
HETATM   13  C10 UNK     1      33.119  -9.103  35.174  1.00  0.00     0.059 A 
HETATM   14  C12 UNK     1      32.079 -10.018  34.937  1.00  0.00     0.056 A 
HETATM   15  C13 UNK     1      33.045  -8.279  36.323  1.00  0.00     0.039 A 
HETATM   16  C14 UNK     1      31.031 -10.103  35.883  1.00  0.00     0.038 A 
HETATM   17  C17 UNK     1      31.992  -8.368  37.231  1.00  0.00    -0.054 A 
HETATM   18  C18 UNK     1      30.985  -9.292  37.015  1.00  0.00    -0.054 A 
HETATM   19  C21 UNK     1      31.980  -7.471  38.425  1.00  0.00     0.049 C 
HETATM   20  C22 UNK     1      29.842  -9.427  37.964  1.00  0.00     0.049 C 
HETATM   21  H12 UNK     1      34.957  -8.314  34.756  1.00  0.00     0.166 HD
HETATM   22  H13 UNK     1      31.279 -11.560  33.859  1.00  0.00     0.160 HD
ENDROOT
BRANCH   9  23
HETATM   23  C11 UNK     1      31.744  -9.293  31.940  1.00  0.00     0.042 A 
HETATM   24  C15 UNK     1      30.262  -9.330  31.847  1.00  0.00     0.195 A 
HETATM   25  O3  UNK     1      29.613 -10.306  32.198  1.00  0.00    -0.287 OA
HETATM   26  C19 UNK     1      29.611  -8.123  31.304  1.00  0.00     0.049 A 
HETATM   27  C20 UNK     1      30.402  -7.040  30.919  1.00  0.00     0.089 A 
HETATM   28  C23 UNK     1      28.221  -8.061  31.176  1.00  0.00     0.025 A 
HETATM   29  O2  UNK     1      31.769  -7.048  31.022  1.00  0.00    -0.321 OA
HETATM   30  C24 UNK     1      29.806  -5.889  30.403  1.00  0.00     0.039 A 
HETATM   31  C16 UNK     1      32.362  -8.178  31.529  1.00  0.00     0.156 A 
HETATM   32  C26 UNK     1      28.418  -5.824  30.274  1.00  0.00     0.009 A 
HETATM   33  C25 UNK     1      27.627  -6.907  30.660  1.00  0.00    -0.061 A 
HETATM   34  C27 UNK     1      26.145  -6.832  30.520  1.00  0.00     0.048 C 
ENDBRANCH   9  23
TORSDOF 1
ENDMDL
MODEL 2
REMARK VINA RESULT:      -9.3      2.711      7.364
REMARK  1 active torsions:
REMARK  status: ('A' for Active; 'I' for Inactive)
REMARK    1  A    between atoms: C11_16  and  C6_11 
ROOT
HETATM    1  O1  UNK     1      31.797  -8.238  38.521  1.00  0.00    -0.293 OA
HETATM    2  N1  UNK     1      29.829  -5.812  34.852  1.00  0.00    -0.357 N 
HETATM    3  N2  UNK     1      30.028  -8.811  34.937  1.00  0.00    -0.375 N 
HETATM    4  C1  UNK     1      29.806  -5.194  38.546  1.00  0.00    -0.036 C 
HETATM    5  C2  UNK     1      29.976  -4.853  37.058  1.00  0.00     0.067 C 
HETATM    6  C3  UNK     1      30.991  -6.053  38.979  1.00  0.00     0.092 C 
HETATM    7  C4  UNK     1      30.219  -6.054  36.155  1.00  0.00     0.022 C 
HETATM    8  C5  UNK     1      30.790  -7.181  36.630  1.00  0.00     0.037 C 
HETATM    9  C6  UNK     1      31.118  -8.395  35.802  1.00  0.00     0.160 C 
HETATM   10  C7  UNK     1      31.215  -7.245  38.077  1.00  0.00     0.160 C 
HETATM   11  C8  UNK     1      28.474  -5.929  38.800  1.00  0.00     0.015 C 
HETATM   12  C9  UNK     1      29.795  -3.891  39.367  1.00  0.00     0.015 C 
HETATM   13  C10 UNK     1      29.483  -6.684  33.801  1.00  0.00     0.059 A 
HETATM   14  C12 UNK     1      29.516  -8.087  33.872  1.00  0.00     0.056 A 
HETATM   15  C13 UNK     1      29.013  -6.078  32.611  1.00  0.00     0.039 A 
HETATM   16  C14 UNK     1      29.036  -8.827  32.767  1.00  0.00     0.038 A 
HETATM   17  C17 UNK     1      28.562  -6.828  31.528  1.00  0.00    -0.054 A 
HETATM   18  C18 UNK     1      28.564  -8.210  31.610  1.00  0.00    -0.054 A 
HETATM   19  C21 UNK     1      28.074  -6.124  30.305  1.00  0.00     0.049 C 
HETATM   20  C22 UNK     1      28.083  -9.054  30.477  1.00  0.00     0.049 C 
HETATM   21  H12 UNK     1      29.665  -4.831  34.644  1.00  0.00     0.166 HD
HETATM   22  H13 UNK     1      29.826  -9.807  34.933  1.00  0.00     0.160 HD
ENDROOT
BRANCH   9  23
HETATM   23  C11 UNK     1      32.391  -8.242  35.027  1.00  0.00     0.042 A 
HETATM   24  C15 UNK     1      32.983  -9.446  34.390  1.00  0.00     0.195 A 
HETATM   25  O3  UNK     1      32.465 -10.550  34.480  1.00  0.00    -0.287 OA
HETATM   26  C19 UNK     1      34.236  -9.239  33.639  1.00  0.00     0.049 A 
HETATM   27  C20 UNK     1      34.782  -7.957  33.571  1.00  0.00     0.089 A 
HETATM   28  C23 UNK     1      34.870 -10.309  33.005  1.00  0.00     0.025 A 
HETATM   29  O2  UNK     1      34.202  -6.871  34.175  1.00  0.00    -0.321 OA
HETATM   30  C24 UNK     1      35.966  -7.739  32.866  1.00  0.00     0.039 A 
HETATM   31  C16 UNK     1      33.035  -7.078  34.871  1.00  0.00     0.156 A 
HETATM   32  C26 UNK     1      36.602  -8.806  32.231  1.00  0.00     0.009 A 
HETATM   33  C25 UNK     1      36.055 -10.089  32.300  1.00  0.00    -0.061 A 
HETATM   34  C27 UNK     1      36.739 -11.225  31.619  1.00  0.00     0.048 C 
ENDBRANCH   9  23
TORSDOF 1
ENDMDL
MODEL 3
REMARK VINA RESULT:      -9.2      3.236      6.494
REMARK  1 active torsions:
REMARK  status: ('A' for Active; 'I' for Inactive)
REMARK    1  A    between atoms: C11_16  and  C6_11 
ROOT
HETATM    1  O1  UNK     1      33.491  -5.380  37.270  1.00  0.00    -0.293 OA
HETATM    2  N1  UNK     1      32.040  -8.071  33.544  1.00  0.00    -0.357 N 
HETATM    3  N2  UNK     1      30.491  -5.715  34.587  1.00  0.00    -0.375 N 
HETATM    4  C1  UNK     1      35.448  -6.977  34.651  1.00  0.00    -0.036 C 
HETATM    5  C2  UNK     1      34.361  -7.957  34.185  1.00  0.00     0.067 C 
HETATM    6  C3  UNK     1      35.160  -6.598  36.103  1.00  0.00     0.092 C 
HETATM    7  C4  UNK     1      32.934  -7.483  34.419  1.00  0.00     0.022 C 
HETATM    8  C5  UNK     1      32.640  -6.615  35.410  1.00  0.00     0.037 C 
HETATM    9  C6  UNK     1      31.254  -6.134  35.750  1.00  0.00     0.160 C 
HETATM   10  C7  UNK     1      33.741  -6.122  36.317  1.00  0.00     0.160 C 
HETATM   11  C8  UNK     1      35.487  -5.722  33.755  1.00  0.00     0.015 C 
HETATM   12  C9  UNK     1      36.822  -7.665  34.568  1.00  0.00     0.015 C 
HETATM   13  C10 UNK     1      30.761  -7.677  33.109  1.00  0.00     0.059 A 
HETATM   14  C12 UNK     1      30.072  -6.536  33.554  1.00  0.00     0.056 A 
HETATM   15  C13 UNK     1      30.167  -8.475  32.102  1.00  0.00     0.039 A 
HETATM   16  C14 UNK     1      28.838  -6.216  32.941  1.00  0.00     0.038 A 
HETATM   17  C17 UNK     1      28.941  -8.149  31.526  1.00  0.00    -0.054 A 
HETATM   18  C18 UNK     1      28.278  -7.008  31.941  1.00  0.00    -0.054 A 
HETATM   19  C21 UNK     1      28.375  -9.033  30.464  1.00  0.00     0.049 C 
HETATM   20  C22 UNK     1      26.966  -6.615  31.348  1.00  0.00     0.049 C 
HETATM   21  H12 UNK     1      32.413  -8.878  33.052  1.00  0.00     0.166 HD
HETATM   22  H13 UNK     1      29.994  -4.834  34.683  1.00  0.00     0.160 HD
ENDROOT
BRANCH   9  23
HETATM   23  C11 UNK     1      30.483  -7.120  36.573  1.00  0.00     0.042 A 
HETATM   24  C15 UNK     1      29.070  -6.810  36.911  1.00  0.00     0.195 A 
HETATM   25  O3  UNK     1      28.524  -5.781  36.541  1.00  0.00    -0.287 OA
HETATM   26  C19 UNK     1      28.358  -7.815  37.722  1.00  0.00     0.049 A 
HETATM   27  C20 UNK     1      29.032  -8.971  38.117  1.00  0.00     0.089 A 
HETATM   28  C23 UNK     1      27.026  -7.616  38.093  1.00  0.00     0.025 A 
HETATM   29  O2  UNK     1      30.339  -9.217  37.782  1.00  0.00    -0.321 OA
HETATM   30  C24 UNK     1      28.377  -9.934  38.885  1.00  0.00     0.039 A 
HETATM   31  C16 UNK     1      30.990  -8.273  37.026  1.00  0.00     0.156 A 
HETATM   32  C26 UNK     1      27.046  -9.738  39.256  1.00  0.00     0.009 A 
HETATM   33  C25 UNK     1      26.372  -8.581  38.861  1.00  0.00    -0.061 A 
HETATM   34  C27 UNK     1      24.950  -8.377  39.261  1.00  0.00     0.048 C 
ENDBRANCH   9  23
TORSDOF 1
ENDMDL
MODEL 4
REMARK VINA RESULT:      -9.0      3.567      6.577
REMARK  1 active torsions:
REMARK  status: ('A' for Active; 'I' for Inactive)
REMARK    1  A    between atoms: C11_16  and  C6_11 
ROOT
HETATM    1  O1  UNK     1      26.177  -8.855  36.218  1.00  0.00    -0.293 OA
HETATM    2  N1  UNK     1      30.876  -8.522  37.235  1.00  0.00    -0.357 N 
HETATM    3  N2  UNK     1      29.471  -6.710  35.290  1.00  0.00    -0.375 N 
HETATM    4  C1  UNK     1      27.918  -9.379  39.368  1.00  0.00    -0.036 C 
HETATM    5  C2  UNK     1      29.325  -9.541  38.774  1.00  0.00     0.067 C 
HETATM    6  C3  UNK     1      26.898  -9.750  38.294  1.00  0.00     0.092 C 
HETATM    7  C4  UNK     1      29.544  -8.818  37.452  1.00  0.00     0.022 C 
HETATM    8  C5  UNK     1      28.514  -8.562  36.618  1.00  0.00     0.037 C 
HETATM    9  C6  UNK     1      28.642  -7.903  35.269  1.00  0.00     0.160 C 
HETATM   10  C7  UNK     1      27.125  -9.018  36.990  1.00  0.00     0.160 C 
HETATM   11  C8  UNK     1      27.688  -7.938  39.869  1.00  0.00     0.015 C 
HETATM   12  C9  UNK     1      27.762 -10.331  40.568  1.00  0.00     0.015 C 
HETATM   13  C10 UNK     1      31.499  -7.559  36.418  1.00  0.00     0.059 A 
HETATM   14  C12 UNK     1      30.829  -6.671  35.561  1.00  0.00     0.056 A 
HETATM   15  C13 UNK     1      32.907  -7.458  36.530  1.00  0.00     0.039 A 
HETATM   16  C14 UNK     1      31.588  -5.688  34.885  1.00  0.00     0.038 A 
HETATM   17  C17 UNK     1      33.636  -6.492  35.840  1.00  0.00    -0.054 A 
HETATM   18  C18 UNK     1      32.972  -5.597  35.020  1.00  0.00    -0.054 A 
HETATM   19  C21 UNK     1      35.119  -6.438  36.008  1.00  0.00     0.049 C 
HETATM   20  C22 UNK     1      33.711  -4.541  34.267  1.00  0.00     0.049 C 
HETATM   21  H12 UNK     1      31.516  -9.019  37.848  1.00  0.00     0.166 HD
HETATM   22  H13 UNK     1      29.093  -5.905  34.798  1.00  0.00     0.160 HD
ENDROOT
BRANCH   9  23
HETATM   23  C11 UNK     1      29.091  -8.851  34.200  1.00  0.00     0.042 A 
HETATM   24  C15 UNK     1      28.856  -8.483  32.781  1.00  0.00     0.195 A 
HETATM   25  O3  UNK     1      28.309  -7.436  32.463  1.00  0.00    -0.287 OA
HETATM   26  C19 UNK     1      29.318  -9.452  31.770  1.00  0.00     0.049 A 
HETATM   27  C20 UNK     1      29.935 -10.631  32.191  1.00  0.00     0.089 A 
HETATM   28  C23 UNK     1      29.142  -9.197  30.408  1.00  0.00     0.025 A 
HETATM   29  O2  UNK     1      30.133 -10.932  33.514  1.00  0.00    -0.321 OA
HETATM   30  C24 UNK     1      30.379 -11.561  31.251  1.00  0.00     0.039 A 
HETATM   31  C16 UNK     1      29.697 -10.020  34.445  1.00  0.00     0.156 A 
HETATM   32  C26 UNK     1      30.205 -11.309  29.889  1.00  0.00     0.009 A 
HETATM   33  C25 UNK     1      29.588 -10.130  29.468  1.00  0.00    -0.061 A 
HETATM   34  C27 UNK     1      29.405  -9.866  28.012  1.00  0.00     0.048 C 
ENDBRANCH   9  23
TORSDOF 1
ENDMDL
MODEL 5
REMARK VINA RESULT:      -8.8      2.380      5.699
REMARK  1 active torsions:
REMARK  status: ('A' for Active; 'I' for Inactive)
REMARK    1  A    between atoms: C11_16  and  C6_11 
ROOT
HETATM    1  O1  UNK     1      35.838  -7.550  34.137  1.00  0.00    -0.293 OA
HETATM    2  N1  UNK     1      32.044  -9.621  32.008  1.00  0.00    -0.357 N 
HETATM    3  N2  UNK     1      32.369  -6.645  32.279  1.00  0.00    -0.375 N 
HETATM    4  C1  UNK     1      35.675 -10.543  32.076  1.00  0.00    -0.036 C 
HETATM    5  C2  UNK     1      34.159 -10.763  32.196  1.00  0.00     0.067 C 
HETATM    6  C3  UNK     1      36.140  -9.747  33.294  1.00  0.00     0.092 C 
HETATM    7  C4  UNK     1      33.351  -9.496  32.441  1.00  0.00     0.022 C 
HETATM    8  C5  UNK     1      33.899  -8.425  33.052  1.00  0.00     0.037 C 
HETATM    9  C6  UNK     1      33.163  -7.154  33.384  1.00  0.00     0.160 C 
HETATM   10  C7  UNK     1      35.332  -8.489  33.519  1.00  0.00     0.160 C 
HETATM   11  C8  UNK     1      36.028  -9.803  30.770  1.00  0.00     0.015 C 
HETATM   12  C9  UNK     1      36.386 -11.908  32.059  1.00  0.00     0.015 C 
HETATM   13  C10 UNK     1      31.080  -8.658  31.653  1.00  0.00     0.059 A 
HETATM   14  C12 UNK     1      31.265  -7.267  31.721  1.00  0.00     0.056 A 
HETATM   15  C13 UNK     1      29.860  -9.154  31.135  1.00  0.00     0.039 A 
HETATM   16  C14 UNK     1      30.239  -6.429  31.226  1.00  0.00     0.038 A 
HETATM   17  C17 UNK     1      28.855  -8.307  30.670  1.00  0.00    -0.054 A 
HETATM   18  C18 UNK     1      29.050  -6.938  30.707  1.00  0.00    -0.054 A 
HETATM   19  C21 UNK     1      27.594  -8.897  30.131  1.00  0.00     0.049 C 
HETATM   20  C22 UNK     1      28.006  -5.993  30.213  1.00  0.00     0.049 C 
HETATM   21  H12 UNK     1      31.762 -10.578  31.816  1.00  0.00     0.166 HD
HETATM   22  H13 UNK     1      32.453  -5.648  32.101  1.00  0.00     0.160 HD
ENDROOT
BRANCH   9  23
HETATM   23  C11 UNK     1      32.340  -7.269  34.631  1.00  0.00     0.042 A 
HETATM   24  C15 UNK     1      31.826  -6.025  35.258  1.00  0.00     0.195 A 
HETATM   25  O3  UNK     1      32.056  -4.918  34.791  1.00  0.00    -0.287 OA
HETATM   26  C19 UNK     1      31.022  -6.195  36.483  1.00  0.00     0.049 A 
HETATM   27  C20 UNK     1      30.793  -7.482  36.971  1.00  0.00     0.089 A 
HETATM   28  C23 UNK     1      30.494  -5.086  37.148  1.00  0.00     0.025 A 
HETATM   29  O2  UNK     1      31.287  -8.606  36.359  1.00  0.00    -0.321 OA
HETATM   30  C24 UNK     1      30.035  -7.666  38.127  1.00  0.00     0.039 A 
HETATM   31  C16 UNK     1      32.035  -8.432  35.219  1.00  0.00     0.156 A 
HETATM   32  C26 UNK     1      29.506  -6.560  38.794  1.00  0.00     0.009 A 
HETATM   33  C25 UNK     1      29.735  -5.273  38.305  1.00  0.00    -0.061 A 
HETATM   34  C27 UNK     1      29.168  -4.094  39.021  1.00  0.00     0.048 C 
ENDBRANCH   9  23
TORSDOF 1
ENDMDL
MODEL 6
REMARK VINA RESULT:      -8.6      2.550      7.589
REMARK  1 active torsions:
REMARK  status: ('A' for Active; 'I' for Inactive)
REMARK    1  A    between atoms: C11_16  and  C6_11 
ROOT
HETATM    1  O1  UNK     1      30.334  -9.943  38.287  1.00  0.00    -0.293 OA
HETATM    2  N1  UNK     1      28.658  -7.376  34.569  1.00  0.00    -0.357 N 
HETATM    3  N2  UNK     1      29.820 -10.135  34.287  1.00  0.00    -0.375 N 
HETATM    4  C1  UNK     1      27.502  -7.667  38.121  1.00  0.00    -0.036 C 
HETATM    5  C2  UNK     1      27.917  -6.955  36.824  1.00  0.00     0.067 C 
HETATM    6  C3  UNK     1      28.757  -8.238  38.776  1.00  0.00     0.092 C 
HETATM    7  C4  UNK     1      28.766  -7.796  35.881  1.00  0.00     0.022 C 
HETATM    8  C5  UNK     1      29.542  -8.798  36.346  1.00  0.00     0.037 C 
HETATM    9  C6  UNK     1      30.454  -9.645  35.498  1.00  0.00     0.160 C 
HETATM   10  C7  UNK     1      29.586  -9.077  37.829  1.00  0.00     0.160 C 
HETATM   11  C8  UNK     1      26.474  -8.781  37.839  1.00  0.00     0.015 C 
HETATM   12  C9  UNK     1      26.851  -6.647  39.073  1.00  0.00     0.015 C 
HETATM   13  C10 UNK     1      28.900  -8.040  33.351  1.00  0.00     0.059 A 
HETATM   14  C12 UNK     1      29.381  -9.355  33.230  1.00  0.00     0.056 A 
HETATM   15  C13 UNK     1      28.569  -7.330  32.173  1.00  0.00     0.039 A 
HETATM   16  C14 UNK     1      29.469  -9.921  31.937  1.00  0.00     0.038 A 
HETATM   17  C17 UNK     1      28.682  -7.902  30.907  1.00  0.00    -0.054 A 
HETATM   18  C18 UNK     1      29.126  -9.207  30.790  1.00  0.00    -0.054 A 
HETATM   19  C21 UNK     1      28.312  -7.097  29.706  1.00  0.00     0.049 C 
HETATM   20  C22 UNK     1      29.255  -9.864  29.456  1.00  0.00     0.049 C 
HETATM   21  H12 UNK     1      28.234  -6.459  34.462  1.00  0.00     0.166 HD
HETATM   22  H13 UNK     1      29.970 -11.118  34.080  1.00  0.00     0.160 HD
ENDROOT
BRANCH   9  23
HETATM   23  C11 UNK     1      31.754  -8.968  35.190  1.00  0.00     0.042 A 
HETATM   24  C15 UNK     1      32.778  -9.717  34.418  1.00  0.00     0.195 A 
HETATM   25  O3  UNK     1      32.592 -10.863  34.032  1.00  0.00    -0.287 OA
HETATM   26  C19 UNK     1      34.039  -9.003  34.142  1.00  0.00     0.049 A 
HETATM   27  C20 UNK     1      34.196  -7.698  34.608  1.00  0.00     0.089 A 
HETATM   28  C23 UNK     1      35.065  -9.623  33.424  1.00  0.00     0.025 A 
HETATM   29  O2  UNK     1      33.223  -7.042  35.318  1.00  0.00    -0.321 OA
HETATM   30  C24 UNK     1      35.380  -7.004  34.358  1.00  0.00     0.039 A 
HETATM   31  C16 UNK     1      32.054  -7.719  35.568  1.00  0.00     0.156 A 
HETATM   32  C26 UNK     1      36.407  -7.621  33.640  1.00  0.00     0.009 A 
HETATM   33  C25 UNK     1      36.249  -8.927  33.174  1.00  0.00    -0.061 A 
HETATM   34  C27 UNK     1      37.349  -9.580  32.408  1.00  0.00     0.048 C 
ENDBRANCH   9  23
TORSDOF 1
ENDMDL
MODEL 7
REMARK VINA RESULT:      -8.6      2.694      6.188
REMARK  1 active torsions:
REMARK  status: ('A' for Active; 'I' for Inactive)
REMARK    1  A    between atoms: C11_16  and  C6_11 
ROOT
HETATM    1  O1  UNK     1      33.642 -11.379  33.815  1.00  0.00    -0.293 OA
HETATM    2  N1  UNK     1      29.371 -10.391  31.814  1.00  0.00    -0.357 N 
HETATM    3  N2  UNK     1      31.546  -8.346  32.168  1.00  0.00    -0.375 N 
HETATM    4  C1  UNK     1      31.549 -13.436  31.666  1.00  0.00    -0.036 C 
HETATM    5  C2  UNK     1      30.252 -12.635  31.855  1.00  0.00     0.067 C 
HETATM    6  C3  UNK     1      32.439 -13.200  32.885  1.00  0.00     0.092 C 
HETATM    7  C4  UNK     1      30.457 -11.163  32.184  1.00  0.00     0.022 C 
HETATM    8  C5  UNK     1      31.578 -10.734  32.801  1.00  0.00     0.037 C 
HETATM    9  C6  UNK     1      31.843  -9.310  33.213  1.00  0.00     0.160 C 
HETATM   10  C7  UNK     1      32.638 -11.734  33.193  1.00  0.00     0.160 C 
HETATM   11  C8  UNK     1      32.274 -13.024  30.369  1.00  0.00     0.015 C 
HETATM   12  C9  UNK     1      31.209 -14.934  31.567  1.00  0.00     0.015 C 
HETATM   13  C10 UNK     1      29.252  -9.015  31.541  1.00  0.00     0.059 A 
HETATM   14  C12 UNK     1      30.292  -8.077  31.645  1.00  0.00     0.056 A 
HETATM   15  C13 UNK     1      27.991  -8.576  31.069  1.00  0.00     0.039 A 
HETATM   16  C14 UNK     1      30.042  -6.748  31.232  1.00  0.00     0.038 A 
HETATM   17  C17 UNK     1      27.763  -7.257  30.684  1.00  0.00    -0.054 A 
HETATM   18  C18 UNK     1      28.797  -6.340  30.758  1.00  0.00    -0.054 A 
HETATM   19  C21 UNK     1      26.410  -6.863  30.191  1.00  0.00     0.049 C 
HETATM   20  C22 UNK     1      28.602  -4.918  30.350  1.00  0.00     0.049 C 
HETATM   21  H12 UNK     1      28.534 -10.928  31.604  1.00  0.00     0.166 HD
HETATM   22  H13 UNK     1      32.252  -7.629  32.019  1.00  0.00     0.160 HD
ENDROOT
BRANCH   9  23
HETATM   23  C11 UNK     1      31.162  -8.941  34.496  1.00  0.00     0.042 A 
HETATM   24  C15 UNK     1      31.352  -7.568  35.029  1.00  0.00     0.195 A 
HETATM   25  O3  UNK     1      32.045  -6.738  34.457  1.00  0.00    -0.287 OA
HETATM   26  C19 UNK     1      30.659  -7.257  36.294  1.00  0.00     0.049 A 
HETATM   27  C20 UNK     1      29.882  -8.244  36.903  1.00  0.00     0.089 A 
HETATM   28  C23 UNK     1      30.776  -5.994  36.878  1.00  0.00     0.025 A 
HETATM   29  O2  UNK     1      29.734  -9.501  36.374  1.00  0.00    -0.321 OA
HETATM   30  C24 UNK     1      29.219  -7.971  38.099  1.00  0.00     0.039 A 
HETATM   31  C16 UNK     1      30.385  -9.776  35.196  1.00  0.00     0.156 A 
HETATM   32  C26 UNK     1      29.333  -6.710  38.684  1.00  0.00     0.009 A 
HETATM   33  C25 UNK     1      30.110  -5.723  38.075  1.00  0.00    -0.061 A 
HETATM   34  C27 UNK     1      30.228  -4.376  38.704  1.00  0.00     0.048 C 
ENDBRANCH   9  23
TORSDOF 1
ENDMDL
MODEL 8
REMARK VINA RESULT:      -8.5      2.075      6.902
REMARK  1 active torsions:
REMARK  status: ('A' for Active; 'I' for Inactive)
REMARK    1  A    between atoms: C11_16  and  C6_11 
ROOT
HETATM    1  O1  UNK     1      33.267  -8.502  28.162  1.00  0.00    -0.293 OA
HETATM    2  N1  UNK     1      31.454  -9.514  32.510  1.00  0.00    -0.357 N 
HETATM    3  N2  UNK     1      33.727  -7.596  32.070  1.00  0.00    -0.375 N 
HETATM    4  C1  UNK     1      29.831  -9.168  29.152  1.00  0.00    -0.036 C 
HETATM    5  C2  UNK     1      30.155  -9.822  30.503  1.00  0.00     0.067 C 
HETATM    6  C3  UNK     1      31.044  -9.329  28.239  1.00  0.00     0.092 C 
HETATM    7  C4  UNK     1      31.459  -9.360  31.137  1.00  0.00     0.022 C 
HETATM    8  C5  UNK     1      32.477  -8.897  30.381  1.00  0.00     0.037 C 
HETATM    9  C6  UNK     1      33.820  -8.470  30.914  1.00  0.00     0.160 C 
HETATM   10  C7  UNK     1      32.330  -8.858  28.880  1.00  0.00     0.160 C 
HETATM   11  C8  UNK     1      29.470  -7.678  29.327  1.00  0.00     0.015 C 
HETATM   12  C9  UNK     1      28.621  -9.880  28.520  1.00  0.00     0.015 C 
HETATM   13  C10 UNK     1      32.206  -8.891  33.525  1.00  0.00     0.059 A 
HETATM   14  C12 UNK     1      33.222  -7.945  33.312  1.00  0.00     0.056 A 
HETATM   15  C13 UNK     1      31.852  -9.215  34.857  1.00  0.00     0.039 A 
HETATM   16  C14 UNK     1      33.812  -7.328  34.439  1.00  0.00     0.038 A 
HETATM   17  C17 UNK     1      32.461  -8.607  35.953  1.00  0.00    -0.054 A 
HETATM   18  C18 UNK     1      33.439  -7.652  35.742  1.00  0.00    -0.054 A 
HETATM   19  C21 UNK     1      32.035  -8.992  37.331  1.00  0.00     0.049 C 
HETATM   20  C22 UNK     1      34.114  -6.969  36.885  1.00  0.00     0.049 C 
HETATM   21  H12 UNK     1      30.707 -10.110  32.857  1.00  0.00     0.166 HD
HETATM   22  H13 UNK     1      34.328  -6.777  32.050  1.00  0.00     0.160 HD
ENDROOT
BRANCH   9  23
HETATM   23  C11 UNK     1      34.731  -9.628  31.186  1.00  0.00     0.042 A 
HETATM   24  C15 UNK     1      36.124  -9.348  31.618  1.00  0.00     0.195 A 
HETATM   25  O3  UNK     1      36.545  -8.207  31.755  1.00  0.00    -0.287 OA
HETATM   26  C19 UNK     1      36.977 -10.523  31.874  1.00  0.00     0.049 A 
HETATM   27  C20 UNK     1      36.443 -11.800  31.701  1.00  0.00     0.089 A 
HETATM   28  C23 UNK     1      38.303 -10.364  32.283  1.00  0.00     0.025 A 
HETATM   29  O2  UNK     1      35.149 -12.014  31.300  1.00  0.00    -0.321 OA
HETATM   30  C24 UNK     1      37.233 -12.926  31.937  1.00  0.00     0.039 A 
HETATM   31  C16 UNK     1      34.366 -10.910  31.065  1.00  0.00     0.156 A 
HETATM   32  C26 UNK     1      38.558 -12.770  32.346  1.00  0.00     0.009 A 
HETATM   33  C25 UNK     1      39.092 -11.492  32.519  1.00  0.00    -0.061 A 
HETATM   34  C27 UNK     1      40.508 -11.332  32.957  1.00  0.00     0.048 C 
ENDBRANCH   9  23
TORSDOF 1
ENDMDL
MODEL 9
REMARK VINA RESULT:      -8.5      2.227      3.012
REMARK  1 active torsions:
REMARK  status: ('A' for Active; 'I' for Inactive)
REMARK    1  A    between atoms: C11_16  and  C6_11 
ROOT
HETATM    1  O1  UNK     1      35.214 -13.368  32.363  1.00  0.00    -0.293 OA
HETATM    2  N1  UNK     1      36.240  -8.682  32.823  1.00  0.00    -0.357 N 
HETATM    3  N2  UNK     1      33.885  -9.999  34.149  1.00  0.00    -0.375 N 
HETATM    4  C1  UNK     1      38.441 -11.702  32.568  1.00  0.00    -0.036 C 
HETATM    5  C2  UNK     1      37.938 -10.289  32.236  1.00  0.00     0.067 C 
HETATM    6  C3  UNK     1      37.461 -12.712  31.974  1.00  0.00     0.092 C 
HETATM    7  C4  UNK     1      36.488 -10.026  32.617  1.00  0.00     0.022 C 
HETATM    8  C5  UNK     1      35.591 -11.032  32.690  1.00  0.00     0.037 C 
HETATM    9  C6  UNK     1      34.128 -10.860  33.004  1.00  0.00     0.160 C 
HETATM   10  C7  UNK     1      36.027 -12.440  32.367  1.00  0.00     0.160 C 
HETATM   11  C8  UNK     1      38.578 -11.901  34.091  1.00  0.00     0.015 C 
HETATM   12  C9  UNK     1      39.829 -11.908  31.934  1.00  0.00     0.015 C 
HETATM   13  C10 UNK     1      35.233  -8.017  33.548  1.00  0.00     0.059 A 
HETATM   14  C12 UNK     1      34.172  -8.646  34.220  1.00  0.00     0.056 A 
HETATM   15  C13 UNK     1      35.353  -6.609  33.641  1.00  0.00     0.039 A 
HETATM   16  C14 UNK     1      33.301  -7.847  34.996  1.00  0.00     0.038 A 
HETATM   17  C17 UNK     1      34.471  -5.840  34.397  1.00  0.00    -0.054 A 
HETATM   18  C18 UNK     1      33.445  -6.463  35.086  1.00  0.00    -0.054 A 
HETATM   19  C21 UNK     1      34.658  -4.360  34.456  1.00  0.00     0.049 C 
HETATM   20  C22 UNK     1      32.481  -5.681  35.914  1.00  0.00     0.049 C 
HETATM   21  H12 UNK     1      36.970  -8.068  32.472  1.00  0.00     0.166 HD
HETATM   22  H13 UNK     1      33.205 -10.344  34.821  1.00  0.00     0.160 HD
ENDROOT
BRANCH   9  23
HETATM   23  C11 UNK     1      33.328 -10.418  31.818  1.00  0.00     0.042 A 
HETATM   24  C15 UNK     1      31.874 -10.171  31.995  1.00  0.00     0.195 A 
HETATM   25  O3  UNK     1      31.316 -10.319  33.074  1.00  0.00    -0.287 OA
HETATM   26  C19 UNK     1      31.134  -9.737  30.796  1.00  0.00     0.049 A 
HETATM   27  C20 UNK     1      31.823  -9.585  29.591  1.00  0.00     0.089 A 
HETATM   28  C23 UNK     1      29.762  -9.480  30.859  1.00  0.00     0.025 A 
HETATM   29  O2  UNK     1      33.168  -9.824  29.472  1.00  0.00    -0.321 OA
HETATM   30  C24 UNK     1      31.142  -9.176  28.445  1.00  0.00     0.039 A 
HETATM   31  C16 UNK     1      33.844 -10.228  30.597  1.00  0.00     0.156 A 
HETATM   32  C26 UNK     1      29.772  -8.918  28.506  1.00  0.00     0.009 A 
HETATM   33  C25 UNK     1      29.084  -9.070  29.710  1.00  0.00    -0.061 A 
HETATM   34  C27 UNK     1      27.620  -8.793  29.769  1.00  0.00     0.048 C 
ENDBRANCH   9  23
TORSDOF 1
ENDMDL
MODEL 10
REMARK VINA RESULT:      -8.5      2.533      6.240
REMARK  1 active torsions:
REMARK  status: ('A' for Active; 'I' for Inactive)
REMARK    1  A    between atoms: C11_16  and  C6_11 
ROOT
HETATM    1  O1  UNK     1      34.552 -13.070  33.086  1.00  0.00    -0.293 OA
HETATM    2  N1  UNK     1      30.105 -11.593  31.962  1.00  0.00    -0.357 N 
HETATM    3  N2  UNK     1      32.541  -9.848  31.716  1.00  0.00    -0.375 N 
HETATM    4  C1  UNK     1      31.805 -14.908  31.565  1.00  0.00    -0.036 C 
HETATM    5  C2  UNK     1      30.689 -13.931  31.968  1.00  0.00     0.067 C 
HETATM    6  C3  UNK     1      32.960 -14.747  32.551  1.00  0.00     0.092 C 
HETATM    7  C4  UNK     1      31.141 -12.489  32.148  1.00  0.00     0.022 C 
HETATM    8  C5  UNK     1      32.413 -12.192  32.486  1.00  0.00     0.037 C 
HETATM    9  C6  UNK     1      32.935 -10.802  32.738  1.00  0.00     0.160 C 
HETATM   10  C7  UNK     1      33.401 -13.310  32.713  1.00  0.00     0.160 C 
HETATM   11  C8  UNK     1      32.277 -14.647  30.121  1.00  0.00     0.015 C 
HETATM   12  C9  UNK     1      31.270 -16.349  31.639  1.00  0.00     0.015 C 
HETATM   13  C10 UNK     1      30.100 -10.225  31.629  1.00  0.00     0.059 A 
HETATM   14  C12 UNK     1      31.246  -9.432  31.451  1.00  0.00     0.056 A 
HETATM   15  C13 UNK     1      28.831  -9.639  31.404  1.00  0.00     0.039 A 
HETATM   16  C14 UNK     1      31.079  -8.099  31.012  1.00  0.00     0.038 A 
HETATM   17  C17 UNK     1      28.690  -8.316  30.989  1.00  0.00    -0.054 A 
HETATM   18  C18 UNK     1      29.821  -7.545  30.783  1.00  0.00    -0.054 A 
HETATM   19  C21 UNK     1      27.322  -7.763  30.765  1.00  0.00     0.049 C 
HETATM   20  C22 UNK     1      29.719  -6.127  30.331  1.00  0.00     0.049 C 
HETATM   21  H12 UNK     1      29.183 -12.020  31.969  1.00  0.00     0.166 HD
HETATM   22  H13 UNK     1      33.280  -9.240  31.375  1.00  0.00     0.160 HD
ENDROOT
BRANCH   9  23
HETATM   23  C11 UNK     1      32.599 -10.295  34.107  1.00  0.00     0.042 A 
HETATM   24  C15 UNK     1      33.101  -8.957  34.510  1.00  0.00     0.195 A 
HETATM   25  O3  UNK     1      33.777  -8.264  33.763  1.00  0.00    -0.287 OA
HETATM   26  C19 UNK     1      32.741  -8.506  35.867  1.00  0.00     0.049 A 
HETATM   27  C20 UNK     1      31.968  -9.340  36.677  1.00  0.00     0.089 A 
HETATM   28  C23 UNK     1      33.166  -7.263  36.340  1.00  0.00     0.025 A 
HETATM   29  O2  UNK     1      31.524 -10.570  36.263  1.00  0.00    -0.321 OA
HETATM   30  C24 UNK     1      31.616  -8.933  37.963  1.00  0.00     0.039 A 
HETATM   31  C16 UNK     1      31.868 -10.977  34.997  1.00  0.00     0.156 A 
HETATM   32  C26 UNK     1      32.039  -7.691  38.439  1.00  0.00     0.009 A 
HETATM   33  C25 UNK     1      32.812  -6.857  37.629  1.00  0.00    -0.061 A 
HETATM   34  C27 UNK     1      33.261  -5.531  38.142  1.00  0.00     0.048 C 
ENDBRANCH   9  23
TORSDOF 1
ENDMDL
