MODEL 1
REMARK VINA RESULT:      -9.1      0.000      0.000
REMARK  2 active torsions:
REMARK  status: ('A' for Active; 'I' for Inactive)
REMARK    1  A    between atoms: C16_23  and  N1_7 
REMARK    2  A    between atoms: C11_18  and  C4_11 
ROOT
HETATM    1  O1  UNK     1      27.095  -6.371  38.597  1.00  0.00    -0.332 OA
HETATM    2  O2  UNK     1      30.794  -6.235  35.437  1.00  0.00    -0.274 OA
HETATM    3  O3  UNK     1      26.882  -9.391  36.631  1.00  0.00    -0.289 OA
HETATM    4  O4  UNK     1      32.597  -6.163  34.026  1.00  0.00    -0.260 OA
HETATM    5  C1  UNK     1      26.950  -7.783  38.440  1.00  0.00     0.125 C 
HETATM    6  C2  UNK     1      28.865  -6.319  36.921  1.00  0.00     0.048 A 
HETATM    7  C3  UNK     1      27.301  -8.313  37.046  1.00  0.00     0.196 C 
HETATM    8  C4  UNK     1      28.217  -7.451  36.240  1.00  0.00     0.044 C 
HETATM    9  C5  UNK     1      28.237  -5.823  38.072  1.00  0.00     0.084 A 
HETATM   10  C6  UNK     1      25.468  -8.072  38.714  1.00  0.00     0.055 C 
HETATM   11  C7  UNK     1      27.806  -8.508  39.487  1.00  0.00     0.055 C 
HETATM   12  C8  UNK     1      30.067  -5.702  36.529  1.00  0.00     0.103 A 
HETATM   13  C9  UNK     1      30.589  -4.595  37.205  1.00  0.00    -0.001 A 
HETATM   14  C10 UNK     1      28.734  -4.700  38.743  1.00  0.00     0.039 A 
HETATM   15  C12 UNK     1      29.907  -4.086  38.309  1.00  0.00     0.017 A 
HETATM   16  C13 UNK     1      31.833  -3.997  36.745  1.00  0.00     0.020 A 
HETATM   17  C14 UNK     1      32.489  -4.510  35.701  1.00  0.00     0.083 A 
HETATM   18  C15 UNK     1      31.989  -5.691  34.980  1.00  0.00     0.288 A 
ENDROOT
BRANCH   8  19
HETATM   19  C11 UNK     1      28.284  -7.706  34.924  1.00  0.00     0.104 C 
HETATM   20  N1  UNK     1      28.927  -8.726  34.312  1.00  0.00    -0.364 N 
HETATM   21  H11 UNK     1      29.288  -9.461  34.912  1.00  0.00     0.165 HD
BRANCH  20  22
HETATM   22  C16 UNK     1      29.013  -9.016  32.938  1.00  0.00     0.049 A 
HETATM   23  C17 UNK     1      29.830 -10.041  32.453  1.00  0.00     0.038 A 
HETATM   24 Br1  UNK     1      30.879 -11.111  33.619  1.00  0.00    -0.049 Br
HETATM   25  C19 UNK     1      29.892 -10.301  31.083  1.00  0.00     0.040 A 
HETATM   26  C21 UNK     1      29.136  -9.537  30.194  1.00  0.00     0.012 A 
HETATM   27 Br2  UNK     1      29.217  -9.888  28.339  1.00  0.00    -0.051 Br
HETATM   28  C20 UNK     1      28.318  -8.513  30.674  1.00  0.00     0.021 A 
HETATM   29  C18 UNK     1      28.257  -8.253  32.043  1.00  0.00     0.032 A 
ENDBRANCH  20  22
ENDBRANCH   8  19
TORSDOF 2
ENDMDL
MODEL 2
REMARK VINA RESULT:      -8.8      1.196      1.450
REMARK  2 active torsions:
REMARK  status: ('A' for Active; 'I' for Inactive)
REMARK    1  A    between atoms: C16_23  and  N1_7 
REMARK    2  A    between atoms: C11_18  and  C4_11 
ROOT
HETATM    1  O1  UNK     1      27.075  -6.360  38.602  1.00  0.00    -0.332 OA
HETATM    2  O2  UNK     1      30.798  -6.171  35.473  1.00  0.00    -0.274 OA
HETATM    3  O3  UNK     1      26.909  -9.372  36.618  1.00  0.00    -0.289 OA
HETATM    4  O4  UNK     1      32.612  -6.072  34.077  1.00  0.00    -0.260 OA
HETATM    5  C1  UNK     1      26.946  -7.774  38.437  1.00  0.00     0.125 C 
HETATM    6  C2  UNK     1      28.859  -6.282  36.941  1.00  0.00     0.048 A 
HETATM    7  C3  UNK     1      27.314  -8.292  37.043  1.00  0.00     0.196 C 
HETATM    8  C4  UNK     1      28.227  -7.416  36.249  1.00  0.00     0.044 C 
HETATM    9  C5  UNK     1      28.216  -5.799  38.090  1.00  0.00     0.084 A 
HETATM   10  C6  UNK     1      25.465  -8.079  38.697  1.00  0.00     0.055 C 
HETATM   11  C7  UNK     1      27.801  -8.496  39.487  1.00  0.00     0.055 C 
HETATM   12  C8  UNK     1      30.058  -5.651  36.562  1.00  0.00     0.103 A 
HETATM   13  C9  UNK     1      30.563  -4.542  37.248  1.00  0.00    -0.001 A 
HETATM   14  C10 UNK     1      28.697  -4.674  38.771  1.00  0.00     0.039 A 
HETATM   15  C12 UNK     1      29.866  -4.046  38.349  1.00  0.00     0.017 A 
HETATM   16  C13 UNK     1      31.804  -3.929  36.802  1.00  0.00     0.020 A 
HETATM   17  C14 UNK     1      32.473  -4.430  35.761  1.00  0.00     0.083 A 
HETATM   18  C15 UNK     1      31.991  -5.612  35.029  1.00  0.00     0.288 A 
ENDROOT
BRANCH   8  19
HETATM   19  C11 UNK     1      28.308  -7.663  34.932  1.00  0.00     0.104 C 
HETATM   20  N1  UNK     1      29.338  -8.225  34.259  1.00  0.00    -0.364 N 
HETATM   21  H11 UNK     1      30.080  -8.630  34.819  1.00  0.00     0.165 HD
BRANCH  20  22
HETATM   22  C16 UNK     1      29.447  -8.494  32.882  1.00  0.00     0.049 A 
HETATM   23  C17 UNK     1      29.416  -7.471  31.929  1.00  0.00     0.038 A 
HETATM   24 Br1  UNK     1      29.224  -5.651  32.432  1.00  0.00    -0.049 Br
HETATM   25  C19 UNK     1      29.527  -7.774  30.571  1.00  0.00     0.040 A 
HETATM   26  C21 UNK     1      29.670  -9.100  30.162  1.00  0.00     0.012 A 
HETATM   27 Br2  UNK     1      29.821  -9.512  28.324  1.00  0.00    -0.051 Br
HETATM   28  C20 UNK     1      29.702 -10.124  31.110  1.00  0.00     0.021 A 
HETATM   29  C18 UNK     1      29.590  -9.821  32.467  1.00  0.00     0.032 A 
ENDBRANCH  20  22
ENDBRANCH   8  19
TORSDOF 2
ENDMDL
MODEL 3
REMARK VINA RESULT:      -8.6      1.571      1.858
REMARK  2 active torsions:
REMARK  status: ('A' for Active; 'I' for Inactive)
REMARK    1  A    between atoms: C16_23  and  N1_7 
REMARK    2  A    between atoms: C11_18  and  C4_11 
ROOT
HETATM    1  O1  UNK     1      28.894  -5.164  38.544  1.00  0.00    -0.332 OA
HETATM    2  O2  UNK     1      31.966  -7.554  35.621  1.00  0.00    -0.274 OA
HETATM    3  O3  UNK     1      26.903  -7.502  36.646  1.00  0.00    -0.289 OA
HETATM    4  O4  UNK     1      33.463  -8.706  34.325  1.00  0.00    -0.260 OA
HETATM    5  C1  UNK     1      27.902  -6.184  38.414  1.00  0.00     0.125 C 
HETATM    6  C2  UNK     1      30.362  -6.328  36.982  1.00  0.00     0.048 A 
HETATM    7  C3  UNK     1      27.891  -6.898  37.059  1.00  0.00     0.196 C 
HETATM    8  C4  UNK     1      29.170  -6.845  36.291  1.00  0.00     0.044 C 
HETATM    9  C5  UNK     1      30.144  -5.481  38.078  1.00  0.00     0.084 A 
HETATM   10  C6  UNK     1      26.557  -5.468  38.601  1.00  0.00     0.055 C 
HETATM   11  C7  UNK     1      28.080  -7.221  39.531  1.00  0.00     0.055 C 
HETATM   12  C8  UNK     1      31.697  -6.620  36.651  1.00  0.00     0.103 A 
HETATM   13  C9  UNK     1      32.774  -6.043  37.330  1.00  0.00    -0.001 A 
HETATM   14  C10 UNK     1      31.213  -4.876  38.751  1.00  0.00     0.039 A 
HETATM   15  C12 UNK     1      32.525  -5.155  38.376  1.00  0.00     0.017 A 
HETATM   16  C13 UNK     1      34.133  -6.380  36.935  1.00  0.00     0.020 A 
HETATM   17  C14 UNK     1      34.357  -7.251  35.948  1.00  0.00     0.083 A 
HETATM   18  C15 UNK     1      33.252  -7.902  35.226  1.00  0.00     0.288 A 
ENDROOT
BRANCH   8  19
HETATM   19  C11 UNK     1      29.107  -7.164  34.989  1.00  0.00     0.104 C 
HETATM   20  N1  UNK     1      29.152  -8.398  34.437  1.00  0.00    -0.364 N 
HETATM   21  H11 UNK     1      29.091  -9.184  35.076  1.00  0.00     0.165 HD
BRANCH  20  22
HETATM   22  C16 UNK     1      29.088  -8.759  33.078  1.00  0.00     0.049 A 
HETATM   23  C17 UNK     1      29.757  -9.882  32.585  1.00  0.00     0.038 A 
HETATM   24 Br1  UNK     1      30.799 -10.995  33.716  1.00  0.00    -0.049 Br
HETATM   25  C19 UNK     1      29.672 -10.211  31.231  1.00  0.00     0.040 A 
HETATM   26  C21 UNK     1      28.916  -9.418  30.367  1.00  0.00     0.012 A 
HETATM   27 Br2  UNK     1      28.799  -9.862  28.534  1.00  0.00    -0.051 Br
HETATM   28  C20 UNK     1      28.246  -8.296  30.856  1.00  0.00     0.021 A 
HETATM   29  C18 UNK     1      28.332  -7.967  32.209  1.00  0.00     0.032 A 
ENDBRANCH  20  22
ENDBRANCH   8  19
TORSDOF 2
ENDMDL
MODEL 4
REMARK VINA RESULT:      -8.3     14.742     16.391
REMARK  2 active torsions:
REMARK  status: ('A' for Active; 'I' for Inactive)
REMARK    1  A    between atoms: C16_23  and  N1_7 
REMARK    2  A    between atoms: C11_18  and  C4_11 
ROOT
HETATM    1  O1  UNK     1      18.453  -0.698  34.941  1.00  0.00    -0.332 OA
HETATM    2  O2  UNK     1      18.459   2.825  31.583  1.00  0.00    -0.274 OA
HETATM    3  O3  UNK     1      17.032   2.226  36.512  1.00  0.00    -0.289 OA
HETATM    4  O4  UNK     1      18.409   4.424  29.944  1.00  0.00    -0.260 OA
HETATM    5  C1  UNK     1      17.463  -0.021  35.719  1.00  0.00     0.125 C 
HETATM    6  C2  UNK     1      18.519   1.139  33.339  1.00  0.00     0.048 A 
HETATM    7  C3  UNK     1      17.527   1.508  35.645  1.00  0.00     0.196 C 
HETATM    8  C4  UNK     1      18.196   2.069  34.434  1.00  0.00     0.044 C 
HETATM    9  C5  UNK     1      18.652  -0.216  33.673  1.00  0.00     0.084 A 
HETATM   10  C6  UNK     1      17.722  -0.452  37.169  1.00  0.00     0.055 C 
HETATM   11  C7  UNK     1      16.065  -0.490  35.295  1.00  0.00     0.055 C 
HETATM   12  C8  UNK     1      18.689   1.488  31.987  1.00  0.00     0.103 A 
HETATM   13  C9  UNK     1      19.047   0.547  31.017  1.00  0.00    -0.001 A 
HETATM   14  C10 UNK     1      19.035  -1.164  32.718  1.00  0.00     0.039 A 
HETATM   15  C12 UNK     1      19.234  -0.783  31.393  1.00  0.00     0.017 A 
HETATM   16  C13 UNK     1      19.215   0.971  29.636  1.00  0.00     0.020 A 
HETATM   17  C14 UNK     1      19.009   2.243  29.286  1.00  0.00     0.083 A 
HETATM   18  C15 UNK     1      18.604   3.259  30.271  1.00  0.00     0.288 A 
ENDROOT
BRANCH   8  19
HETATM   19  C11 UNK     1      18.559   3.360  34.487  1.00  0.00     0.104 C 
HETATM   20  N1  UNK     1      17.987   4.406  33.847  1.00  0.00    -0.364 N 
HETATM   21  H11 UNK     1      17.104   4.225  33.380  1.00  0.00     0.165 HD
BRANCH  20  22
HETATM   22  C16 UNK     1      18.347   5.766  33.885  1.00  0.00     0.049 A 
HETATM   23  C17 UNK     1      17.589   6.744  33.235  1.00  0.00     0.038 A 
HETATM   24 Br1  UNK     1      16.025   6.301  32.256  1.00  0.00    -0.049 Br
HETATM   25  C19 UNK     1      17.976   8.084  33.293  1.00  0.00     0.040 A 
HETATM   26  C21 UNK     1      19.119   8.449  34.003  1.00  0.00     0.012 A 
HETATM   27 Br2  UNK     1      19.643  10.263  34.085  1.00  0.00    -0.051 Br
HETATM   28  C20 UNK     1      19.877   7.476  34.655  1.00  0.00     0.021 A 
HETATM   29  C18 UNK     1      19.492   6.136  34.595  1.00  0.00     0.032 A 
ENDBRANCH  20  22
ENDBRANCH   8  19
TORSDOF 2
ENDMDL
MODEL 5
REMARK VINA RESULT:      -8.1     33.327     36.264
REMARK  2 active torsions:
REMARK  status: ('A' for Active; 'I' for Inactive)
REMARK    1  A    between atoms: C16_23  and  N1_7 
REMARK    2  A    between atoms: C11_18  and  C4_11 
ROOT
HETATM    1  O1  UNK     1      14.462   7.467   8.371  1.00  0.00    -0.332 OA
HETATM    2  O2  UNK     1       9.659   7.712   9.120  1.00  0.00    -0.274 OA
HETATM    3  O3  UNK     1      14.003   8.784  11.701  1.00  0.00    -0.289 OA
HETATM    4  O4  UNK     1       7.393   7.730   9.453  1.00  0.00    -0.260 OA
HETATM    5  C1  UNK     1      14.731   7.512   9.774  1.00  0.00     0.125 C 
HETATM    6  C2  UNK     1      12.070   7.711   8.775  1.00  0.00     0.048 A 
HETATM    7  C3  UNK     1      13.728   8.330  10.593  1.00  0.00     0.196 C 
HETATM    8  C4  UNK     1      12.381   8.506   9.973  1.00  0.00     0.044 C 
HETATM    9  C5  UNK     1      13.155   7.248   8.018  1.00  0.00     0.084 A 
HETATM   10  C6  UNK     1      16.114   8.166   9.901  1.00  0.00     0.055 C 
HETATM   11  C7  UNK     1      14.795   6.084  10.332  1.00  0.00     0.055 C 
HETATM   12  C8  UNK     1      10.782   7.359   8.332  1.00  0.00     0.103 A 
HETATM   13  C9  UNK     1      10.572   6.642   7.150  1.00  0.00    -0.001 A 
HETATM   14  C10 UNK     1      12.960   6.551   6.820  1.00  0.00     0.039 A 
HETATM   15  C12 UNK     1      11.671   6.251   6.386  1.00  0.00     0.017 A 
HETATM   16  C13 UNK     1       9.215   6.316   6.742  1.00  0.00     0.020 A 
HETATM   17  C14 UNK     1       8.174   6.675   7.496  1.00  0.00     0.083 A 
HETATM   18  C15 UNK     1       8.351   7.407   8.761  1.00  0.00     0.288 A 
ENDROOT
BRANCH   8  19
HETATM   19  C11 UNK     1      11.599   9.468  10.489  1.00  0.00     0.104 C 
HETATM   20  N1  UNK     1      11.050  10.522   9.843  1.00  0.00    -0.364 N 
HETATM   21  H11 UNK     1      11.118  10.520   8.831  1.00  0.00     0.165 HD
BRANCH  20  22
HETATM   22  C16 UNK     1      10.229  11.541  10.360  1.00  0.00     0.049 A 
HETATM   23  C17 UNK     1      10.734  12.811  10.656  1.00  0.00     0.038 A 
HETATM   24 Br1  UNK     1      12.562  13.241  10.381  1.00  0.00    -0.049 Br
HETATM   25  C19 UNK     1       9.892  13.799  11.168  1.00  0.00     0.040 A 
HETATM   26  C21 UNK     1       8.542  13.521  11.383  1.00  0.00     0.012 A 
HETATM   27 Br2  UNK     1       7.399  14.858  12.075  1.00  0.00    -0.051 Br
HETATM   28  C20 UNK     1       8.033  12.256  11.088  1.00  0.00     0.021 A 
HETATM   29  C18 UNK     1       8.876  11.268  10.577  1.00  0.00     0.032 A 
ENDBRANCH  20  22
ENDBRANCH   8  19
TORSDOF 2
ENDMDL
MODEL 6
REMARK VINA RESULT:      -8.0      2.818      4.557
REMARK  2 active torsions:
REMARK  status: ('A' for Active; 'I' for Inactive)
REMARK    1  A    between atoms: C16_23  and  N1_7 
REMARK    2  A    between atoms: C11_18  and  C4_11 
ROOT
HETATM    1  O1  UNK     1      32.428  -4.495  36.697  1.00  0.00    -0.332 OA
HETATM    2  O2  UNK     1      33.474  -8.491  34.122  1.00  0.00    -0.274 OA
HETATM    3  O3  UNK     1      29.377  -6.414  36.484  1.00  0.00    -0.289 OA
HETATM    4  O4  UNK     1      34.038 -10.393  32.977  1.00  0.00    -0.260 OA
HETATM    5  C1  UNK     1      31.261  -5.103  37.255  1.00  0.00     0.125 C 
HETATM    6  C2  UNK     1      32.858  -6.468  35.330  1.00  0.00     0.048 A 
HETATM    7  C3  UNK     1      30.556  -6.103  36.333  1.00  0.00     0.196 C 
HETATM    8  C4  UNK     1      31.407  -6.705  35.263  1.00  0.00     0.044 C 
HETATM    9  C5  UNK     1      33.287  -5.339  36.040  1.00  0.00     0.084 A 
HETATM   10  C6  UNK     1      30.299  -3.942  37.543  1.00  0.00     0.055 C 
HETATM   11  C7  UNK     1      31.623  -5.798  38.574  1.00  0.00     0.055 C 
HETATM   12  C8  UNK     1      33.852  -7.283  34.758  1.00  0.00     0.103 A 
HETATM   13  C9  UNK     1      35.209  -6.956  34.824  1.00  0.00    -0.001 A 
HETATM   14  C10 UNK     1      34.640  -4.986  36.094  1.00  0.00     0.039 A 
HETATM   15  C12 UNK     1      35.599  -5.792  35.485  1.00  0.00     0.017 A 
HETATM   16  C13 UNK     1      36.188  -7.837  34.206  1.00  0.00     0.020 A 
HETATM   17  C14 UNK     1      35.803  -8.961  33.598  1.00  0.00     0.083 A 
HETATM   18  C15 UNK     1      34.387  -9.356  33.530  1.00  0.00     0.288 A 
ENDROOT
BRANCH   8  19
HETATM   19  C11 UNK     1      30.767  -7.318  34.255  1.00  0.00     0.104 C 
HETATM   20  N1  UNK     1      31.046  -7.245  32.934  1.00  0.00    -0.364 N 
HETATM   21  H11 UNK     1      31.915  -6.789  32.677  1.00  0.00     0.165 HD
BRANCH  20  22
HETATM   22  C16 UNK     1      30.392  -7.877  31.859  1.00  0.00     0.049 A 
HETATM   23  C17 UNK     1      29.690  -7.146  30.897  1.00  0.00     0.038 A 
HETATM   24 Br1  UNK     1      29.572  -5.253  30.976  1.00  0.00    -0.049 Br
HETATM   25  C19 UNK     1      29.052  -7.805  29.844  1.00  0.00     0.040 A 
HETATM   26  C21 UNK     1      29.117  -9.194  29.750  1.00  0.00     0.012 A 
HETATM   27 Br2  UNK     1      28.255 -10.088  28.325  1.00  0.00    -0.051 Br
HETATM   28  C20 UNK     1      29.817  -9.928  30.709  1.00  0.00     0.021 A 
HETATM   29  C18 UNK     1      30.454  -9.269  31.762  1.00  0.00     0.032 A 
ENDBRANCH  20  22
ENDBRANCH   8  19
TORSDOF 2
ENDMDL
MODEL 7
REMARK VINA RESULT:      -7.9      2.203      5.192
REMARK  2 active torsions:
REMARK  status: ('A' for Active; 'I' for Inactive)
REMARK    1  A    between atoms: C16_23  and  N1_7 
REMARK    2  A    between atoms: C11_18  and  C4_11 
ROOT
HETATM    1  O1  UNK     1      32.812  -5.199  37.086  1.00  0.00    -0.332 OA
HETATM    2  O2  UNK     1      29.110  -8.282  36.390  1.00  0.00    -0.274 OA
HETATM    3  O3  UNK     1      33.535  -7.009  34.046  1.00  0.00    -0.289 OA
HETATM    4  O4  UNK     1      27.306  -9.655  36.064  1.00  0.00    -0.260 OA
HETATM    5  C1  UNK     1      33.204  -5.285  35.714  1.00  0.00     0.125 C 
HETATM    6  C2  UNK     1      31.041  -6.837  36.731  1.00  0.00     0.048 A 
HETATM    7  C3  UNK     1      32.936  -6.641  35.055  1.00  0.00     0.196 C 
HETATM    8  C4  UNK     1      31.872  -7.471  35.696  1.00  0.00     0.044 C 
HETATM    9  C5  UNK     1      31.585  -5.727  37.393  1.00  0.00     0.084 A 
HETATM   10  C6  UNK     1      34.717  -5.028  35.708  1.00  0.00     0.055 C 
HETATM   11  C7  UNK     1      32.503  -4.183  34.908  1.00  0.00     0.055 C 
HETATM   12  C8  UNK     1      29.744  -7.234  37.102  1.00  0.00     0.103 A 
HETATM   13  C9  UNK     1      29.042  -6.607  38.136  1.00  0.00    -0.001 A 
HETATM   14  C10 UNK     1      30.904  -5.105  38.445  1.00  0.00     0.039 A 
HETATM   15  C12 UNK     1      29.636  -5.545  38.817  1.00  0.00     0.017 A 
HETATM   16  C13 UNK     1      27.706  -7.070  38.478  1.00  0.00     0.020 A 
HETATM   17  C14 UNK     1      27.139  -8.071  37.800  1.00  0.00     0.083 A 
HETATM   18  C15 UNK     1      27.833  -8.741  36.688  1.00  0.00     0.288 A 
ENDROOT
BRANCH   8  19
HETATM   19  C11 UNK     1      31.836  -8.770  35.360  1.00  0.00     0.104 C 
HETATM   20  N1  UNK     1      31.246  -9.328  34.278  1.00  0.00    -0.364 N 
HETATM   21  H11 UNK     1      30.909  -8.690  33.565  1.00  0.00     0.165 HD
BRANCH  20  22
HETATM   22  C16 UNK     1      31.194 -10.684  33.904  1.00  0.00     0.049 A 
HETATM   23  C17 UNK     1      30.588 -11.094  32.713  1.00  0.00     0.038 A 
HETATM   24 Br1  UNK     1      29.797  -9.847  31.520  1.00  0.00    -0.049 Br
HETATM   25  C19 UNK     1      30.554 -12.447  32.373  1.00  0.00     0.040 A 
HETATM   26  C21 UNK     1      31.125 -13.394  33.223  1.00  0.00     0.012 A 
HETATM   27 Br2  UNK     1      31.080 -15.227  32.764  1.00  0.00    -0.051 Br
HETATM   28  C20 UNK     1      31.731 -12.989  34.413  1.00  0.00     0.021 A 
HETATM   29  C18 UNK     1      31.765 -11.636  34.753  1.00  0.00     0.032 A 
ENDBRANCH  20  22
ENDBRANCH   8  19
TORSDOF 2
ENDMDL
MODEL 8
REMARK VINA RESULT:      -7.9     32.606     34.739
REMARK  2 active torsions:
REMARK  status: ('A' for Active; 'I' for Inactive)
REMARK    1  A    between atoms: C16_23  and  N1_7 
REMARK    2  A    between atoms: C11_18  and  C4_11 
ROOT
HETATM    1  O1  UNK     1      11.958   5.340   9.336  1.00  0.00    -0.332 OA
HETATM    2  O2  UNK     1      15.161   8.962   9.900  1.00  0.00    -0.274 OA
HETATM    3  O3  UNK     1      10.137   8.416   8.831  1.00  0.00    -0.289 OA
HETATM    4  O4  UNK     1      16.724  10.625  10.094  1.00  0.00    -0.260 OA
HETATM    5  C1  UNK     1      11.056   6.186   8.620  1.00  0.00     0.125 C 
HETATM    6  C2  UNK     1      13.487   7.204   9.705  1.00  0.00     0.048 A 
HETATM    7  C3  UNK     1      11.077   7.656   9.051  1.00  0.00     0.196 C 
HETATM    8  C4  UNK     1      12.330   8.114   9.723  1.00  0.00     0.044 C 
HETATM    9  C5  UNK     1      13.221   5.839   9.530  1.00  0.00     0.084 A 
HETATM   10  C6  UNK     1       9.659   5.615   8.898  1.00  0.00     0.055 C 
HETATM   11  C7  UNK     1      11.348   6.096   7.117  1.00  0.00     0.055 C 
HETATM   12  C8  UNK     1      14.835   7.586   9.829  1.00  0.00     0.103 A 
HETATM   13  C9  UNK     1      15.872   6.649   9.854  1.00  0.00    -0.001 A 
HETATM   14  C10 UNK     1      14.247   4.888   9.578  1.00  0.00     0.039 A 
HETATM   15  C12 UNK     1      15.570   5.293   9.741  1.00  0.00     0.017 A 
HETATM   16  C13 UNK     1      17.246   7.106   9.993  1.00  0.00     0.020 A 
HETATM   17  C14 UNK     1      17.524   8.410  10.075  1.00  0.00     0.083 A 
HETATM   18  C15 UNK     1      16.464   9.430  10.025  1.00  0.00     0.288 A 
ENDROOT
BRANCH   8  19
HETATM   19  C11 UNK     1      12.266   9.273  10.396  1.00  0.00     0.104 C 
HETATM   20  N1  UNK     1      12.469  10.521   9.913  1.00  0.00    -0.364 N 
HETATM   21  H11 UNK     1      12.545  10.611   8.906  1.00  0.00     0.165 HD
BRANCH  20  22
HETATM   22  C16 UNK     1      12.408  11.750  10.596  1.00  0.00     0.049 A 
HETATM   23  C17 UNK     1      11.234  12.508  10.639  1.00  0.00     0.038 A 
HETATM   24 Br1  UNK     1       9.645  11.928   9.777  1.00  0.00    -0.049 Br
HETATM   25  C19 UNK     1      11.208  13.723  11.325  1.00  0.00     0.040 A 
HETATM   26  C21 UNK     1      12.355  14.183  11.971  1.00  0.00     0.012 A 
HETATM   27 Br2  UNK     1      12.322  15.827  12.902  1.00  0.00    -0.051 Br
HETATM   28  C20 UNK     1      13.529  13.429  11.932  1.00  0.00     0.021 A 
HETATM   29  C18 UNK     1      13.555  12.214  11.245  1.00  0.00     0.032 A 
ENDBRANCH  20  22
ENDBRANCH   8  19
TORSDOF 2
ENDMDL
MODEL 9
REMARK VINA RESULT:      -7.9      2.495      5.327
REMARK  2 active torsions:
REMARK  status: ('A' for Active; 'I' for Inactive)
REMARK    1  A    between atoms: C16_23  and  N1_7 
REMARK    2  A    between atoms: C11_18  and  C4_11 
ROOT
HETATM    1  O1  UNK     1      34.668  -7.005  36.497  1.00  0.00    -0.332 OA
HETATM    2  O2  UNK     1      29.938  -6.935  35.351  1.00  0.00    -0.274 OA
HETATM    3  O3  UNK     1      34.481  -6.678  32.907  1.00  0.00    -0.289 OA
HETATM    4  O4  UNK     1      27.700  -6.824  34.872  1.00  0.00    -0.260 OA
HETATM    5  C1  UNK     1      35.027  -6.408  35.250  1.00  0.00     0.125 C 
HETATM    6  C2  UNK     1      32.319  -7.065  35.844  1.00  0.00     0.048 A 
HETATM    7  C3  UNK     1      34.116  -6.777  34.076  1.00  0.00     0.196 C 
HETATM    8  C4  UNK     1      32.741  -7.229  34.444  1.00  0.00     0.044 C 
HETATM    9  C5  UNK     1      33.333  -6.983  36.809  1.00  0.00     0.084 A 
HETATM   10  C6  UNK     1      36.443  -6.919  34.950  1.00  0.00     0.055 C 
HETATM   11  C7  UNK     1      35.064  -4.881  35.402  1.00  0.00     0.055 C 
HETATM   12  C8  UNK     1      30.991  -6.965  36.297  1.00  0.00     0.103 A 
HETATM   13  C9  UNK     1      30.675  -6.862  37.655  1.00  0.00    -0.001 A 
HETATM   14  C10 UNK     1      33.031  -6.906  38.174  1.00  0.00     0.039 A 
HETATM   15  C12 UNK     1      31.704  -6.848  38.596  1.00  0.00     0.017 A 
HETATM   16  C13 UNK     1      29.281  -6.770  38.061  1.00  0.00     0.020 A 
HETATM   17  C14 UNK     1      28.307  -6.761  37.148  1.00  0.00     0.083 A 
HETATM   18  C15 UNK     1      28.598  -6.840  35.707  1.00  0.00     0.288 A 
ENDROOT
BRANCH   8  19
HETATM   19  C11 UNK     1      32.037  -7.862  33.492  1.00  0.00     0.104 C 
HETATM   20  N1  UNK     1      31.355  -7.308  32.463  1.00  0.00    -0.364 N 
HETATM   21  H11 UNK     1      31.495  -6.315  32.307  1.00  0.00     0.165 HD
BRANCH  20  22
HETATM   22  C16 UNK     1      30.611  -7.947  31.454  1.00  0.00     0.049 A 
HETATM   23  C17 UNK     1      29.735  -7.237  30.628  1.00  0.00     0.038 A 
HETATM   24 Br1  UNK     1      29.490  -5.364  30.815  1.00  0.00    -0.049 Br
HETATM   25  C19 UNK     1      29.012  -7.903  29.636  1.00  0.00     0.040 A 
HETATM   26  C21 UNK     1      29.165  -9.279  29.467  1.00  0.00     0.012 A 
HETATM   27 Br2  UNK     1      28.189 -10.181  28.124  1.00  0.00    -0.051 Br
HETATM   28  C20 UNK     1      30.040  -9.990  30.289  1.00  0.00     0.021 A 
HETATM   29  C18 UNK     1      30.762  -9.325  31.281  1.00  0.00     0.032 A 
ENDBRANCH  20  22
ENDBRANCH   8  19
TORSDOF 2
ENDMDL
MODEL 10
REMARK VINA RESULT:      -7.8     32.332     35.292
REMARK  2 active torsions:
REMARK  status: ('A' for Active; 'I' for Inactive)
REMARK    1  A    between atoms: C16_23  and  N1_7 
REMARK    2  A    between atoms: C11_18  and  C4_11 
ROOT
HETATM    1  O1  UNK     1      14.188   6.418   8.219  1.00  0.00    -0.332 OA
HETATM    2  O2  UNK     1       9.853   8.071   9.693  1.00  0.00    -0.274 OA
HETATM    3  O3  UNK     1      14.728   8.032  11.403  1.00  0.00    -0.289 OA
HETATM    4  O4  UNK     1       7.778   8.757  10.379  1.00  0.00    -0.260 OA
HETATM    5  C1  UNK     1      14.715   6.478   9.546  1.00  0.00     0.125 C 
HETATM    6  C2  UNK     1      12.067   7.360   8.969  1.00  0.00     0.048 A 
HETATM    7  C3  UNK     1      14.139   7.601  10.414  1.00  0.00     0.196 C 
HETATM    8  C4  UNK     1      12.798   8.113  10.001  1.00  0.00     0.044 C 
HETATM    9  C5  UNK     1      12.828   6.557   8.108  1.00  0.00     0.084 A 
HETATM   10  C6  UNK     1      16.221   6.718   9.373  1.00  0.00     0.055 C 
HETATM   11  C7  UNK     1      14.496   5.132  10.249  1.00  0.00     0.055 C 
HETATM   12  C8  UNK     1      10.673   7.361   8.782  1.00  0.00     0.103 A 
HETATM   13  C9  UNK     1      10.063   6.655   7.741  1.00  0.00    -0.001 A 
HETATM   14  C10 UNK     1      12.233   5.866   7.046  1.00  0.00     0.039 A 
HETATM   15  C12 UNK     1      10.854   5.917   6.862  1.00  0.00     0.017 A 
HETATM   16  C13 UNK     1       8.616   6.703   7.596  1.00  0.00     0.020 A 
HETATM   17  C14 UNK     1       7.869   7.394   8.459  1.00  0.00     0.083 A 
HETATM   18  C15 UNK     1       8.469   8.128   9.585  1.00  0.00     0.288 A 
ENDROOT
BRANCH   8  19
HETATM   19  C11 UNK     1      12.414   9.290  10.519  1.00  0.00     0.104 C 
HETATM   20  N1  UNK     1      11.707   9.502  11.653  1.00  0.00    -0.364 N 
HETATM   21  H11 UNK     1      11.562   8.699  12.255  1.00  0.00     0.165 HD
BRANCH  20  22
HETATM   22  C16 UNK     1      11.292  10.723  12.217  1.00  0.00     0.049 A 
HETATM   23  C17 UNK     1      12.003  11.329  13.258  1.00  0.00     0.038 A 
HETATM   24 Br1  UNK     1      13.573  10.543  13.978  1.00  0.00    -0.049 Br
HETATM   25  C19 UNK     1      11.563  12.540  13.794  1.00  0.00     0.040 A 
HETATM   26  C21 UNK     1      10.414  13.149  13.292  1.00  0.00     0.012 A 
HETATM   27 Br2  UNK     1       9.819  14.790  14.016  1.00  0.00    -0.051 Br
HETATM   28  C20 UNK     1       9.702  12.548  12.253  1.00  0.00     0.021 A 
HETATM   29  C18 UNK     1      10.141  11.337  11.717  1.00  0.00     0.032 A 
ENDBRANCH  20  22
ENDBRANCH   8  19
TORSDOF 2
ENDMDL
