MODEL 1
REMARK VINA RESULT:     -10.4      0.000      0.000
REMARK  7 active torsions:
REMARK  status: ('A' for Active; 'I' for Inactive)
REMARK    1  A    between atoms: C10_18  and  O1_2 
REMARK    2  A    between atoms: C8_16  and  O1_2 
REMARK       I    between atoms: C12_20  and  N1_6 
REMARK    3  A    between atoms: N1_6  and  N3_8 
REMARK    4  A    between atoms: C16_24  and  N2_7 
REMARK    5  A    between atoms: C23_31  and  N2_7 
REMARK    6  A    between atoms: C23_31  and  N3_8 
REMARK    7  A    between atoms: C10_18  and  C12_20 
ROOT
HETATM    1  N3  UNK     1      20.356  -1.399  32.846  1.00  0.00    -0.273 N 
HETATM    2  H23 UNK     1      21.241  -0.945  33.048  1.00  0.00     0.189 HD
ENDROOT
BRANCH   1   3
HETATM    3  C23 UNK     1      19.726  -1.249  31.614  1.00  0.00     0.191 C 
HETATM    4  S1  UNK     1      20.261  -2.229  30.365  1.00  0.00    -0.039 SA
BRANCH   3   5
HETATM    5  N2  UNK     1      18.704  -0.282  31.604  1.00  0.00    -0.332 N 
HETATM    6  H22 UNK     1      17.791  -0.671  31.831  1.00  0.00     0.168 HD
BRANCH   5   7
HETATM    7  C16 UNK     1      18.671   1.103  31.440  1.00  0.00     0.037 A 
HETATM    8  C17 UNK     1      18.307   1.924  32.502  1.00  0.00     0.067 A 
HETATM    9  C14 UNK     1      18.282   3.308  32.315  1.00  0.00     0.092 A 
HETATM   10  C13 UNK     1      18.610   3.902  31.096  1.00  0.00     0.004 A 
HETATM   11  O2  UNK     1      17.906   4.087  33.428  1.00  0.00    -0.275 OA
HETATM   12  C15 UNK     1      18.557   5.366  30.990  1.00  0.00    -0.043 A 
HETATM   13  C18 UNK     1      18.974   3.057  30.038  1.00  0.00     0.017 A 
HETATM   14  C20 UNK     1      18.195   6.081  32.064  1.00  0.00     0.090 A 
HETATM   15  C21 UNK     1      18.904   6.035  29.692  1.00  0.00     0.049 C 
HETATM   16  C22 UNK     1      17.847   5.470  33.357  1.00  0.00     0.288 A 
HETATM   17  O4  UNK     1      17.521   6.158  34.319  1.00  0.00    -0.260 OA
HETATM   18  C19 UNK     1      19.004   1.668  30.210  1.00  0.00     0.030 A 
ENDBRANCH   5   7
ENDBRANCH   3   5
ENDBRANCH   1   3
BRANCH   1  19
HETATM   19  N1  UNK     1      19.814  -2.168  33.849  1.00  0.00    -0.266 N 
HETATM   20  C12 UNK     1      20.557  -2.406  34.990  1.00  0.00     0.265 C 
HETATM   21  O3  UNK     1      21.691  -1.980  35.199  1.00  0.00    -0.269 OA
HETATM   22  H17 UNK     1      18.845  -2.453  33.747  1.00  0.00     0.190 HD
BRANCH  20  23
HETATM   23  C10 UNK     1      19.816  -3.283  35.989  1.00  0.00     0.218 C 
HETATM   24  C11 UNK     1      19.187  -2.445  37.090  1.00  0.00     0.050 C 
BRANCH  23  25
HETATM   25  O1  UNK     1      20.730  -4.187  36.584  1.00  0.00    -0.337 OA
BRANCH  25  26
HETATM   26  C8  UNK     1      20.283  -5.457  36.816  1.00  0.00     0.070 A 
HETATM   27  C6  UNK     1      20.419  -6.017  38.088  1.00  0.00     0.044 A 
HETATM   28  C4  UNK     1      19.960  -7.308  38.289  1.00  0.00    -0.049 A 
HETATM   29  C2  UNK     1      19.961  -8.100  39.558  1.00  0.00     0.039 C 
HETATM   30  C5  UNK     1      19.363  -8.032  37.250  1.00  0.00    -0.052 A 
HETATM   31  C1  UNK     1      19.723  -9.519  39.022  1.00  0.00     0.009 C 
HETATM   32  C3  UNK     1      18.909  -9.374  37.728  1.00  0.00     0.039 C 
HETATM   33  C7  UNK     1      19.212  -7.480  35.989  1.00  0.00     0.010 A 
HETATM   34  C9  UNK     1      19.684  -6.183  35.774  1.00  0.00     0.037 A 
ENDBRANCH  25  26
ENDBRANCH  23  25
ENDBRANCH  20  23
ENDBRANCH   1  19
TORSDOF 7
ENDMDL
MODEL 2
REMARK VINA RESULT:     -10.4      3.146     10.987
REMARK  7 active torsions:
REMARK  status: ('A' for Active; 'I' for Inactive)
REMARK    1  A    between atoms: C10_18  and  O1_2 
REMARK    2  A    between atoms: C8_16  and  O1_2 
REMARK       I    between atoms: C12_20  and  N1_6 
REMARK    3  A    between atoms: N1_6  and  N3_8 
REMARK    4  A    between atoms: C16_24  and  N2_7 
REMARK    5  A    between atoms: C23_31  and  N2_7 
REMARK    6  A    between atoms: C23_31  and  N3_8 
REMARK    7  A    between atoms: C10_18  and  C12_20 
ROOT
HETATM    1  N3  UNK     1      18.015  -2.741  36.573  1.00  0.00    -0.273 N 
HETATM    2  H23 UNK     1      17.110  -2.768  37.031  1.00  0.00     0.189 HD
ENDROOT
BRANCH   1   3
HETATM    3  C23 UNK     1      18.963  -3.740  36.776  1.00  0.00     0.191 C 
HETATM    4  S1  UNK     1      20.476  -3.252  37.305  1.00  0.00    -0.039 SA
BRANCH   3   5
HETATM    5  N2  UNK     1      18.495  -5.040  36.510  1.00  0.00    -0.332 N 
HETATM    6  H22 UNK     1      17.505  -5.062  36.276  1.00  0.00     0.168 HD
BRANCH   5   7
HETATM    7  C16 UNK     1      19.099  -6.293  36.410  1.00  0.00     0.037 A 
HETATM    8  C17 UNK     1      18.758  -7.306  37.299  1.00  0.00     0.067 A 
HETATM    9  C14 UNK     1      19.374  -8.554  37.180  1.00  0.00     0.092 A 
HETATM   10  C13 UNK     1      20.324  -8.825  36.194  1.00  0.00     0.004 A 
HETATM   11  O2  UNK     1      18.987  -9.540  38.110  1.00  0.00    -0.275 OA
HETATM   12  C15 UNK     1      20.921 -10.166  36.142  1.00  0.00    -0.043 A 
HETATM   13  C18 UNK     1      20.654  -7.791  35.307  1.00  0.00     0.017 A 
HETATM   14  C20 UNK     1      20.535 -11.083  37.040  1.00  0.00     0.090 A 
HETATM   15  C21 UNK     1      21.946 -10.489  35.094  1.00  0.00     0.049 C 
HETATM   16  C22 UNK     1      19.533 -10.814  38.085  1.00  0.00     0.288 A 
HETATM   17  O4  UNK     1      19.204 -11.679  38.889  1.00  0.00    -0.260 OA
HETATM   18  C19 UNK     1      20.045  -6.535  35.415  1.00  0.00     0.030 A 
ENDBRANCH   5   7
ENDBRANCH   3   5
ENDBRANCH   1   3
BRANCH   1  19
HETATM   19  N1  UNK     1      18.256  -1.671  35.744  1.00  0.00    -0.266 N 
HETATM   20  C12 UNK     1      18.280  -0.397  36.280  1.00  0.00     0.265 C 
HETATM   21  O3  UNK     1      18.102  -0.123  37.465  1.00  0.00    -0.269 OA
HETATM   22  H17 UNK     1      18.501  -1.873  34.780  1.00  0.00     0.190 HD
BRANCH  20  23
HETATM   23  C10 UNK     1      18.546   0.668  35.226  1.00  0.00     0.218 C 
HETATM   24  C11 UNK     1      18.197   2.052  35.747  1.00  0.00     0.050 C 
BRANCH  23  25
HETATM   25  O1  UNK     1      17.744   0.405  34.086  1.00  0.00    -0.337 OA
BRANCH  25  26
HETATM   26  C8  UNK     1      18.384   0.334  32.881  1.00  0.00     0.070 A 
HETATM   27  C6  UNK     1      18.913  -0.883  32.448  1.00  0.00     0.044 A 
HETATM   28  C4  UNK     1      19.560  -0.919  31.225  1.00  0.00    -0.049 A 
HETATM   29  C2  UNK     1      20.169  -2.100  30.538  1.00  0.00     0.039 C 
HETATM   30  C5  UNK     1      19.670   0.229  30.432  1.00  0.00    -0.052 A 
HETATM   31  C1  UNK     1      21.045  -1.411  29.482  1.00  0.00     0.009 C 
HETATM   32  C3  UNK     1      20.363  -0.078  29.143  1.00  0.00     0.039 C 
HETATM   33  C7  UNK     1      19.136   1.438  30.847  1.00  0.00     0.010 A 
HETATM   34  C9  UNK     1      18.494   1.487  32.086  1.00  0.00     0.037 A 
ENDBRANCH  25  26
ENDBRANCH  23  25
ENDBRANCH  20  23
ENDBRANCH   1  19
TORSDOF 7
ENDMDL
MODEL 3
REMARK VINA RESULT:     -10.3      2.775     12.003
REMARK  7 active torsions:
REMARK  status: ('A' for Active; 'I' for Inactive)
REMARK    1  A    between atoms: C10_18  and  O1_2 
REMARK    2  A    between atoms: C8_16  and  O1_2 
REMARK       I    between atoms: C12_20  and  N1_6 
REMARK    3  A    between atoms: N1_6  and  N3_8 
REMARK    4  A    between atoms: C16_24  and  N2_7 
REMARK    5  A    between atoms: C23_31  and  N2_7 
REMARK    6  A    between atoms: C23_31  and  N3_8 
REMARK    7  A    between atoms: C10_18  and  C12_20 
ROOT
HETATM    1  N3  UNK     1      19.772  -2.442  34.676  1.00  0.00    -0.273 N 
HETATM    2  H23 UNK     1      20.015  -2.628  33.708  1.00  0.00     0.189 HD
ENDROOT
BRANCH   1   3
HETATM    3  C23 UNK     1      19.834  -3.439  35.645  1.00  0.00     0.191 C 
HETATM    4  S1  UNK     1      19.944  -2.939  37.240  1.00  0.00    -0.039 SA
BRANCH   3   5
HETATM    5  N2  UNK     1      19.782  -4.747  35.129  1.00  0.00    -0.332 N 
HETATM    6  H22 UNK     1      19.756  -4.769  34.112  1.00  0.00     0.168 HD
BRANCH   5   7
HETATM    7  C16 UNK     1      19.847  -6.022  35.692  1.00  0.00     0.037 A 
HETATM    8  C17 UNK     1      20.654  -6.999  35.117  1.00  0.00     0.067 A 
HETATM    9  C14 UNK     1      20.704  -8.268  35.698  1.00  0.00     0.092 A 
HETATM   10  C13 UNK     1      19.972  -8.596  36.839  1.00  0.00     0.004 A 
HETATM   11  O2  UNK     1      21.540  -9.215  35.071  1.00  0.00    -0.275 OA
HETATM   12  C15 UNK     1      20.086  -9.956  37.382  1.00  0.00    -0.043 A 
HETATM   13  C18 UNK     1      19.165  -7.597  37.403  1.00  0.00     0.017 A 
HETATM   14  C20 UNK     1      20.887 -10.836  36.765  1.00  0.00     0.090 A 
HETATM   15  C21 UNK     1      19.311 -10.340  38.609  1.00  0.00     0.049 C 
HETATM   16  C22 UNK     1      21.667 -10.505  35.560  1.00  0.00     0.288 A 
HETATM   17  O4  UNK     1      22.390 -11.337  35.023  1.00  0.00    -0.260 OA
HETATM   18  C19 UNK     1      19.104  -6.321  36.833  1.00  0.00     0.030 A 
ENDBRANCH   5   7
ENDBRANCH   3   5
ENDBRANCH   1   3
BRANCH   1  19
HETATM   19  N1  UNK     1      19.384  -1.159  34.980  1.00  0.00    -0.266 N 
HETATM   20  C12 UNK     1      18.561  -0.479  34.100  1.00  0.00     0.265 C 
HETATM   21  O3  UNK     1      18.131  -0.930  33.040  1.00  0.00    -0.269 OA
HETATM   22  H17 UNK     1      19.643  -0.796  35.891  1.00  0.00     0.190 HD
BRANCH  20  23
HETATM   23  C10 UNK     1      18.240   0.928  34.581  1.00  0.00     0.218 C 
HETATM   24  C11 UNK     1      17.441   0.893  35.874  1.00  0.00     0.050 C 
BRANCH  23  25
HETATM   25  O1  UNK     1      17.466   1.592  33.597  1.00  0.00    -0.337 OA
BRANCH  25  26
HETATM   26  C8  UNK     1      17.948   2.780  33.127  1.00  0.00     0.070 A 
HETATM   27  C6  UNK     1      18.213   2.931  31.765  1.00  0.00     0.044 A 
HETATM   28  C4  UNK     1      18.706   4.147  31.322  1.00  0.00    -0.049 A 
HETATM   29  C2  UNK     1      19.027   4.557  29.920  1.00  0.00     0.039 C 
HETATM   30  C5  UNK     1      18.921   5.205  32.213  1.00  0.00    -0.052 A 
HETATM   31  C1  UNK     1      19.886   5.806  30.165  1.00  0.00     0.009 C 
HETATM   32  C3  UNK     1      19.407   6.420  31.488  1.00  0.00     0.039 C 
HETATM   33  C7  UNK     1      18.649   5.070  33.564  1.00  0.00     0.010 A 
HETATM   34  C9  UNK     1      18.164   3.842  34.021  1.00  0.00     0.037 A 
ENDBRANCH  25  26
ENDBRANCH  23  25
ENDBRANCH  20  23
ENDBRANCH   1  19
TORSDOF 7
ENDMDL
MODEL 4
REMARK VINA RESULT:     -10.2      3.146     11.695
REMARK  7 active torsions:
REMARK  status: ('A' for Active; 'I' for Inactive)
REMARK    1  A    between atoms: C10_18  and  O1_2 
REMARK    2  A    between atoms: C8_16  and  O1_2 
REMARK       I    between atoms: C12_20  and  N1_6 
REMARK    3  A    between atoms: N1_6  and  N3_8 
REMARK    4  A    between atoms: C16_24  and  N2_7 
REMARK    5  A    between atoms: C23_31  and  N2_7 
REMARK    6  A    between atoms: C23_31  and  N3_8 
REMARK    7  A    between atoms: C10_18  and  C12_20 
ROOT
HETATM    1  N3  UNK     1      17.853  -2.834  37.019  1.00  0.00    -0.273 N 
HETATM    2  H23 UNK     1      17.303  -2.926  37.868  1.00  0.00     0.189 HD
ENDROOT
BRANCH   1   3
HETATM    3  C23 UNK     1      18.881  -3.722  36.719  1.00  0.00     0.191 C 
HETATM    4  S1  UNK     1      20.446  -3.132  36.825  1.00  0.00    -0.039 SA
BRANCH   3   5
HETATM    5  N2  UNK     1      18.444  -5.014  36.373  1.00  0.00    -0.332 N 
HETATM    6  H22 UNK     1      17.484  -5.028  36.037  1.00  0.00     0.168 HD
BRANCH   5   7
HETATM    7  C16 UNK     1      19.055  -6.266  36.305  1.00  0.00     0.037 A 
HETATM    8  C17 UNK     1      18.722  -7.257  37.222  1.00  0.00     0.067 A 
HETATM    9  C14 UNK     1      19.346  -8.504  37.135  1.00  0.00     0.092 A 
HETATM   10  C13 UNK     1      20.297  -8.795  36.156  1.00  0.00     0.004 A 
HETATM   11  O2  UNK     1      18.967  -9.467  38.092  1.00  0.00    -0.275 OA
HETATM   12  C15 UNK     1      20.902 -10.133  36.138  1.00  0.00    -0.043 A 
HETATM   13  C18 UNK     1      20.618  -7.782  35.241  1.00  0.00     0.017 A 
HETATM   14  C20 UNK     1      20.522 -11.028  37.061  1.00  0.00     0.090 A 
HETATM   15  C21 UNK     1      21.928 -10.477  35.098  1.00  0.00     0.049 C 
HETATM   16  C22 UNK     1      19.520 -10.737  38.100  1.00  0.00     0.288 A 
HETATM   17  O4  UNK     1      19.198 -11.583  38.927  1.00  0.00    -0.260 OA
HETATM   18  C19 UNK     1      20.002  -6.528  35.316  1.00  0.00     0.030 A 
ENDBRANCH   5   7
ENDBRANCH   3   5
ENDBRANCH   1   3
BRANCH   1  19
HETATM   19  N1  UNK     1      17.528  -1.792  36.184  1.00  0.00    -0.266 N 
HETATM   20  C12 UNK     1      17.571  -0.499  36.673  1.00  0.00     0.265 C 
HETATM   21  O3  UNK     1      17.883  -0.186  37.820  1.00  0.00    -0.269 OA
HETATM   22  H17 UNK     1      17.359  -2.011  35.208  1.00  0.00     0.190 HD
BRANCH  20  23
HETATM   23  C10 UNK     1      17.171   0.528  35.625  1.00  0.00     0.218 C 
HETATM   24  C11 UNK     1      15.860   0.146  34.957  1.00  0.00     0.050 C 
BRANCH  23  25
HETATM   25  O1  UNK     1      18.177   0.592  34.627  1.00  0.00    -0.337 OA
BRANCH  25  26
HETATM   26  C8  UNK     1      18.249   1.741  33.893  1.00  0.00     0.070 A 
HETATM   27  C6  UNK     1      18.338   1.669  32.501  1.00  0.00     0.044 A 
HETATM   28  C4  UNK     1      18.415   2.852  31.786  1.00  0.00    -0.049 A 
HETATM   29  C2  UNK     1      18.479   3.031  30.303  1.00  0.00     0.039 C 
HETATM   30  C5  UNK     1      18.390   4.091  32.437  1.00  0.00    -0.052 A 
HETATM   31  C1  UNK     1      18.955   4.487  30.199  1.00  0.00     0.009 C 
HETATM   32  C3  UNK     1      18.435   5.213  31.448  1.00  0.00     0.039 C 
HETATM   33  C7  UNK     1      18.288   4.173  33.815  1.00  0.00     0.010 A 
HETATM   34  C9  UNK     1      18.224   2.984  34.546  1.00  0.00     0.037 A 
ENDBRANCH  25  26
ENDBRANCH  23  25
ENDBRANCH  20  23
ENDBRANCH   1  19
TORSDOF 7
ENDMDL
MODEL 5
REMARK VINA RESULT:     -10.0      3.234     10.410
REMARK  7 active torsions:
REMARK  status: ('A' for Active; 'I' for Inactive)
REMARK    1  A    between atoms: C10_18  and  O1_2 
REMARK    2  A    between atoms: C8_16  and  O1_2 
REMARK       I    between atoms: C12_20  and  N1_6 
REMARK    3  A    between atoms: N1_6  and  N3_8 
REMARK    4  A    between atoms: C16_24  and  N2_7 
REMARK    5  A    between atoms: C23_31  and  N2_7 
REMARK    6  A    between atoms: C23_31  and  N3_8 
REMARK    7  A    between atoms: C10_18  and  C12_20 
ROOT
HETATM    1  N3  UNK     1      19.259   1.497  29.503  1.00  0.00    -0.273 N 
HETATM    2  H23 UNK     1      18.978   1.395  28.532  1.00  0.00     0.189 HD
ENDROOT
BRANCH   1   3
HETATM    3  C23 UNK     1      19.524   0.390  30.304  1.00  0.00     0.191 C 
HETATM    4  S1  UNK     1      20.860  -0.536  29.898  1.00  0.00    -0.039 SA
BRANCH   3   5
HETATM    5  N2  UNK     1      18.616   0.216  31.364  1.00  0.00    -0.332 N 
HETATM    6  H22 UNK     1      17.658   0.440  31.103  1.00  0.00     0.168 HD
BRANCH   5   7
HETATM    7  C16 UNK     1      18.717  -0.276  32.665  1.00  0.00     0.037 A 
HETATM    8  C17 UNK     1      18.201   0.454  33.730  1.00  0.00     0.067 A 
HETATM    9  C14 UNK     1      18.312  -0.058  35.025  1.00  0.00     0.092 A 
HETATM   10  C13 UNK     1      18.925  -1.283  35.292  1.00  0.00     0.004 A 
HETATM   11  O2  UNK     1      17.770   0.727  36.062  1.00  0.00    -0.275 OA
HETATM   12  C15 UNK     1      18.997  -1.745  36.685  1.00  0.00    -0.043 A 
HETATM   13  C18 UNK     1      19.438  -2.004  34.205  1.00  0.00     0.017 A 
HETATM   14  C20 UNK     1      18.474  -0.977  37.650  1.00  0.00     0.090 A 
HETATM   15  C21 UNK     1      19.650  -3.058  37.005  1.00  0.00     0.049 C 
HETATM   16  C22 UNK     1      17.823   0.317  37.385  1.00  0.00     0.288 A 
HETATM   17  O4  UNK     1      17.355   0.993  38.295  1.00  0.00    -0.260 OA
HETATM   18  C19 UNK     1      19.334  -1.503  32.902  1.00  0.00     0.030 A 
ENDBRANCH   5   7
ENDBRANCH   3   5
ENDBRANCH   1   3
BRANCH   1  19
HETATM   19  N1  UNK     1      19.364   2.781  29.982  1.00  0.00    -0.266 N 
HETATM   20  C12 UNK     1      18.287   3.342  30.643  1.00  0.00     0.265 C 
HETATM   21  O3  UNK     1      17.211   2.783  30.849  1.00  0.00    -0.269 OA
HETATM   22  H17 UNK     1      20.270   3.232  29.913  1.00  0.00     0.190 HD
BRANCH  20  23
HETATM   23  C10 UNK     1      18.567   4.768  31.095  1.00  0.00     0.218 C 
HETATM   24  C11 UNK     1      19.908   5.254  30.569  1.00  0.00     0.050 C 
BRANCH  23  25
HETATM   25  O1  UNK     1      18.602   4.810  32.512  1.00  0.00    -0.337 OA
BRANCH  25  26
HETATM   26  C8  UNK     1      18.005   5.879  33.115  1.00  0.00     0.070 A 
HETATM   27  C6  UNK     1      16.667   6.171  32.842  1.00  0.00     0.044 A 
HETATM   28  C4  UNK     1      16.094   7.266  33.467  1.00  0.00    -0.049 A 
HETATM   29  C2  UNK     1      14.683   7.752  33.364  1.00  0.00     0.039 C 
HETATM   30  C5  UNK     1      16.828   8.054  34.361  1.00  0.00    -0.052 A 
HETATM   31  C1  UNK     1      14.815   9.171  33.933  1.00  0.00     0.009 C 
HETATM   32  C3  UNK     1      15.976   9.139  34.937  1.00  0.00     0.039 C 
HETATM   33  C7  UNK     1      18.151   7.764  34.648  1.00  0.00     0.010 A 
HETATM   34  C9  UNK     1      18.742   6.670  34.012  1.00  0.00     0.037 A 
ENDBRANCH  25  26
ENDBRANCH  23  25
ENDBRANCH  20  23
ENDBRANCH   1  19
TORSDOF 7
ENDMDL
MODEL 6
REMARK VINA RESULT:     -10.0      2.846     10.717
REMARK  7 active torsions:
REMARK  status: ('A' for Active; 'I' for Inactive)
REMARK    1  A    between atoms: C10_18  and  O1_2 
REMARK    2  A    between atoms: C8_16  and  O1_2 
REMARK       I    between atoms: C12_20  and  N1_6 
REMARK    3  A    between atoms: N1_6  and  N3_8 
REMARK    4  A    between atoms: C16_24  and  N2_7 
REMARK    5  A    between atoms: C23_31  and  N2_7 
REMARK    6  A    between atoms: C23_31  and  N3_8 
REMARK    7  A    between atoms: C10_18  and  C12_20 
ROOT
HETATM    1  N3  UNK     1      19.253   1.341  29.706  1.00  0.00    -0.273 N 
HETATM    2  H23 UNK     1      18.942   1.192  28.751  1.00  0.00     0.189 HD
ENDROOT
BRANCH   1   3
HETATM    3  C23 UNK     1      19.558   0.275  30.546  1.00  0.00     0.191 C 
HETATM    4  S1  UNK     1      21.002  -0.526  30.261  1.00  0.00    -0.039 SA
BRANCH   3   5
HETATM    5  N2  UNK     1      18.592   0.029  31.539  1.00  0.00    -0.332 N 
HETATM    6  H22 UNK     1      17.639   0.101  31.187  1.00  0.00     0.168 HD
BRANCH   5   7
HETATM    7  C16 UNK     1      18.642  -0.375  32.873  1.00  0.00     0.037 A 
HETATM    8  C17 UNK     1      19.361  -1.510  33.232  1.00  0.00     0.067 A 
HETATM    9  C14 UNK     1      19.400  -1.896  34.574  1.00  0.00     0.092 A 
HETATM   10  C13 UNK     1      18.739  -1.181  35.574  1.00  0.00     0.004 A 
HETATM   11  O2  UNK     1      20.145  -3.053  34.876  1.00  0.00    -0.275 OA
HETATM   12  C15 UNK     1      18.834  -1.660  36.960  1.00  0.00    -0.043 A 
HETATM   13  C18 UNK     1      18.020  -0.040  35.191  1.00  0.00     0.017 A 
HETATM   14  C20 UNK     1      19.549  -2.764  37.217  1.00  0.00     0.090 A 
HETATM   15  C21 UNK     1      18.135  -0.913  38.059  1.00  0.00     0.049 C 
HETATM   16  C22 UNK     1      20.252  -3.528  36.174  1.00  0.00     0.288 A 
HETATM   17  O4  UNK     1      20.897  -4.534  36.448  1.00  0.00    -0.260 OA
HETATM   18  C19 UNK     1      17.973   0.358  33.851  1.00  0.00     0.030 A 
ENDBRANCH   5   7
ENDBRANCH   3   5
ENDBRANCH   1   3
BRANCH   1  19
HETATM   19  N1  UNK     1      19.358   2.647  30.124  1.00  0.00    -0.266 N 
HETATM   20  C12 UNK     1      18.279   3.241  30.752  1.00  0.00     0.265 C 
HETATM   21  O3  UNK     1      17.202   2.694  30.979  1.00  0.00    -0.269 OA
HETATM   22  H17 UNK     1      20.266   3.093  30.036  1.00  0.00     0.190 HD
BRANCH  20  23
HETATM   23  C10 UNK     1      18.560   4.687  31.136  1.00  0.00     0.218 C 
HETATM   24  C11 UNK     1      19.882   5.159  30.553  1.00  0.00     0.050 C 
BRANCH  23  25
HETATM   25  O1  UNK     1      18.634   4.788  32.548  1.00  0.00    -0.337 OA
BRANCH  25  26
HETATM   26  C8  UNK     1      18.030   5.869  33.124  1.00  0.00     0.070 A 
HETATM   27  C6  UNK     1      16.704   6.172  32.809  1.00  0.00     0.044 A 
HETATM   28  C4  UNK     1      16.123   7.277  33.406  1.00  0.00    -0.049 A 
HETATM   29  C2  UNK     1      14.721   7.776  33.258  1.00  0.00     0.039 C 
HETATM   30  C5  UNK     1      16.839   8.067  34.314  1.00  0.00    -0.052 A 
HETATM   31  C1  UNK     1      14.851   9.200  33.818  1.00  0.00     0.009 C 
HETATM   32  C3  UNK     1      15.982   9.166  34.855  1.00  0.00     0.039 C 
HETATM   33  C7  UNK     1      18.151   7.767  34.642  1.00  0.00     0.010 A 
HETATM   34  C9  UNK     1      18.749   6.661  34.034  1.00  0.00     0.037 A 
ENDBRANCH  25  26
ENDBRANCH  23  25
ENDBRANCH  20  23
ENDBRANCH   1  19
TORSDOF 7
ENDMDL
MODEL 7
REMARK VINA RESULT:     -10.0      2.850     11.819
REMARK  7 active torsions:
REMARK  status: ('A' for Active; 'I' for Inactive)
REMARK    1  A    between atoms: C10_18  and  O1_2 
REMARK    2  A    between atoms: C8_16  and  O1_2 
REMARK       I    between atoms: C12_20  and  N1_6 
REMARK    3  A    between atoms: N1_6  and  N3_8 
REMARK    4  A    between atoms: C16_24  and  N2_7 
REMARK    5  A    between atoms: C23_31  and  N2_7 
REMARK    6  A    between atoms: C23_31  and  N3_8 
REMARK    7  A    between atoms: C10_18  and  C12_20 
ROOT
HETATM    1  N3  UNK     1      18.143  -2.226  36.376  1.00  0.00    -0.273 N 
HETATM    2  H23 UNK     1      17.163  -2.406  36.573  1.00  0.00     0.189 HD
ENDROOT
BRANCH   1   3
HETATM    3  C23 UNK     1      19.096  -3.237  36.445  1.00  0.00     0.191 C 
HETATM    4  S1  UNK     1      20.700  -2.760  36.533  1.00  0.00    -0.039 SA
BRANCH   3   5
HETATM    5  N2  UNK     1      18.558  -4.537  36.440  1.00  0.00    -0.332 N 
HETATM    6  H22 UNK     1      17.540  -4.542  36.429  1.00  0.00     0.168 HD
BRANCH   5   7
HETATM    7  C16 UNK     1      19.102  -5.819  36.361  1.00  0.00     0.037 A 
HETATM    8  C17 UNK     1      18.786  -6.772  37.322  1.00  0.00     0.067 A 
HETATM    9  C14 UNK     1      19.341  -8.050  37.223  1.00  0.00     0.092 A 
HETATM   10  C13 UNK     1      20.206  -8.408  36.189  1.00  0.00     0.004 A 
HETATM   11  O2  UNK     1      18.983  -8.973  38.226  1.00  0.00    -0.275 OA
HETATM   12  C15 UNK     1      20.744  -9.775  36.162  1.00  0.00    -0.043 A 
HETATM   13  C18 UNK     1      20.513  -7.433  35.230  1.00  0.00     0.017 A 
HETATM   14  C20 UNK     1      20.386 -10.631  37.130  1.00  0.00     0.090 A 
HETATM   15  C21 UNK     1      21.677 -10.192  35.063  1.00  0.00     0.049 C 
HETATM   16  C22 UNK     1      19.474 -10.269  38.227  1.00  0.00     0.288 A 
HETATM   17  O4  UNK     1      19.169 -11.080  39.095  1.00  0.00    -0.260 OA
HETATM   18  C19 UNK     1      19.964  -6.148  35.316  1.00  0.00     0.030 A 
ENDBRANCH   5   7
ENDBRANCH   3   5
ENDBRANCH   1   3
BRANCH   1  19
HETATM   19  N1  UNK     1      18.477  -0.936  36.036  1.00  0.00    -0.266 N 
HETATM   20  C12 UNK     1      17.979  -0.398  34.864  1.00  0.00     0.265 C 
HETATM   21  O3  UNK     1      17.242  -0.984  34.073  1.00  0.00    -0.269 OA
HETATM   22  H17 UNK     1      19.003  -0.396  36.715  1.00  0.00     0.190 HD
BRANCH  20  23
HETATM   23  C10 UNK     1      18.456   1.029  34.636  1.00  0.00     0.218 C 
HETATM   24  C11 UNK     1      18.625   1.765  35.954  1.00  0.00     0.050 C 
BRANCH  23  25
HETATM   25  O1  UNK     1      17.495   1.722  33.858  1.00  0.00    -0.337 OA
BRANCH  25  26
HETATM   26  C8  UNK     1      17.970   2.555  32.884  1.00  0.00     0.070 A 
HETATM   27  C6  UNK     1      18.095   3.922  33.142  1.00  0.00     0.044 A 
HETATM   28  C4  UNK     1      18.575   4.738  32.133  1.00  0.00    -0.049 A 
HETATM   29  C2  UNK     1      18.830   6.211  32.181  1.00  0.00     0.039 C 
HETATM   30  C5  UNK     1      18.939   4.210  30.888  1.00  0.00    -0.052 A 
HETATM   31  C1  UNK     1      18.941   6.543  30.686  1.00  0.00     0.009 C 
HETATM   32  C3  UNK     1      19.471   5.281  29.990  1.00  0.00     0.039 C 
HETATM   33  C7  UNK     1      18.830   2.855  30.628  1.00  0.00     0.010 A 
HETATM   34  C9  UNK     1      18.335   2.025  31.636  1.00  0.00     0.037 A 
ENDBRANCH  25  26
ENDBRANCH  23  25
ENDBRANCH  20  23
ENDBRANCH   1  19
TORSDOF 7
ENDMDL
MODEL 8
REMARK VINA RESULT:      -9.9      1.800      2.088
REMARK  7 active torsions:
REMARK  status: ('A' for Active; 'I' for Inactive)
REMARK    1  A    between atoms: C10_18  and  O1_2 
REMARK    2  A    between atoms: C8_16  and  O1_2 
REMARK       I    between atoms: C12_20  and  N1_6 
REMARK    3  A    between atoms: N1_6  and  N3_8 
REMARK    4  A    between atoms: C16_24  and  N2_7 
REMARK    5  A    between atoms: C23_31  and  N2_7 
REMARK    6  A    between atoms: C23_31  and  N3_8 
REMARK    7  A    between atoms: C10_18  and  C12_20 
ROOT
HETATM    1  N3  UNK     1      19.139  -0.864  34.929  1.00  0.00    -0.273 N 
HETATM    2  H23 UNK     1      20.022  -0.375  35.035  1.00  0.00     0.189 HD
ENDROOT
BRANCH   1   3
HETATM    3  C23 UNK     1      18.081  -0.308  34.216  1.00  0.00     0.191 C 
HETATM    4  S1  UNK     1      16.552  -0.467  34.883  1.00  0.00    -0.039 SA
BRANCH   3   5
HETATM    5  N2  UNK     1      18.463   0.328  33.021  1.00  0.00    -0.332 N 
HETATM    6  H22 UNK     1      18.734  -0.330  32.293  1.00  0.00     0.168 HD
BRANCH   5   7
HETATM    7  C16 UNK     1      18.473   1.651  32.578  1.00  0.00     0.037 A 
HETATM    8  C17 UNK     1      18.225   2.688  33.471  1.00  0.00     0.067 A 
HETATM    9  C14 UNK     1      18.241   4.005  33.006  1.00  0.00     0.092 A 
HETATM   10  C13 UNK     1      18.497   4.322  31.671  1.00  0.00     0.004 A 
HETATM   11  O2  UNK     1      17.983   5.013  33.958  1.00  0.00    -0.275 OA
HETATM   12  C15 UNK     1      18.493   5.735  31.270  1.00  0.00    -0.043 A 
HETATM   13  C18 UNK     1      18.744   3.262  30.788  1.00  0.00     0.017 A 
HETATM   14  C20 UNK     1      18.245   6.671  32.196  1.00  0.00     0.090 A 
HETATM   15  C21 UNK     1      18.766   6.108  29.842  1.00  0.00     0.049 C 
HETATM   16  C22 UNK     1      17.974   6.354  33.608  1.00  0.00     0.288 A 
HETATM   17  O4  UNK     1      17.751   7.238  34.428  1.00  0.00    -0.260 OA
HETATM   18  C19 UNK     1      18.732   1.937  31.239  1.00  0.00     0.030 A 
ENDBRANCH   5   7
ENDBRANCH   3   5
ENDBRANCH   1   3
BRANCH   1  19
HETATM   19  N1  UNK     1      19.043  -2.101  35.521  1.00  0.00    -0.266 N 
HETATM   20  C12 UNK     1      20.201  -2.800  35.809  1.00  0.00     0.265 C 
HETATM   21  O3  UNK     1      21.343  -2.406  35.580  1.00  0.00    -0.269 OA
HETATM   22  H17 UNK     1      18.121  -2.411  35.809  1.00  0.00     0.190 HD
BRANCH  20  23
HETATM   23  C10 UNK     1      19.915  -4.151  36.449  1.00  0.00     0.218 C 
HETATM   24  C11 UNK     1      20.889  -4.438  37.579  1.00  0.00     0.050 C 
BRANCH  23  25
HETATM   25  O1  UNK     1      20.055  -5.168  35.471  1.00  0.00    -0.337 OA
BRANCH  25  26
HETATM   26  C8  UNK     1      19.939  -6.460  35.900  1.00  0.00     0.070 A 
HETATM   27  C6  UNK     1      21.003  -7.347  35.723  1.00  0.00     0.044 A 
HETATM   28  C4  UNK     1      20.851  -8.650  36.164  1.00  0.00    -0.049 A 
HETATM   29  C2  UNK     1      21.851  -9.761  36.120  1.00  0.00     0.039 C 
HETATM   30  C5  UNK     1      19.668  -9.069  36.785  1.00  0.00    -0.052 A 
HETATM   31  C1  UNK     1      20.951 -10.982  36.361  1.00  0.00     0.009 C 
HETATM   32  C3  UNK     1      19.768 -10.498  37.213  1.00  0.00     0.039 C 
HETATM   33  C7  UNK     1      18.612  -8.193  36.977  1.00  0.00     0.010 A 
HETATM   34  C9  UNK     1      18.752  -6.880  36.523  1.00  0.00     0.037 A 
ENDBRANCH  25  26
ENDBRANCH  23  25
ENDBRANCH  20  23
ENDBRANCH   1  19
TORSDOF 7
ENDMDL
MODEL 9
REMARK VINA RESULT:      -9.8      3.679     10.676
REMARK  7 active torsions:
REMARK  status: ('A' for Active; 'I' for Inactive)
REMARK    1  A    between atoms: C10_18  and  O1_2 
REMARK    2  A    between atoms: C8_16  and  O1_2 
REMARK       I    between atoms: C12_20  and  N1_6 
REMARK    3  A    between atoms: N1_6  and  N3_8 
REMARK    4  A    between atoms: C16_24  and  N2_7 
REMARK    5  A    between atoms: C23_31  and  N2_7 
REMARK    6  A    between atoms: C23_31  and  N3_8 
REMARK    7  A    between atoms: C10_18  and  C12_20 
ROOT
HETATM    1  N3  UNK     1      20.515  -3.382  35.603  1.00  0.00    -0.273 N 
HETATM    2  H23 UNK     1      21.459  -3.692  35.395  1.00  0.00     0.189 HD
ENDROOT
BRANCH   1   3
HETATM    3  C23 UNK     1      19.996  -3.445  36.893  1.00  0.00     0.191 C 
HETATM    4  S1  UNK     1      18.837  -2.305  37.299  1.00  0.00    -0.039 SA
BRANCH   3   5
HETATM    5  N2  UNK     1      20.526  -4.487  37.677  1.00  0.00    -0.332 N 
HETATM    6  H22 UNK     1      21.042  -4.147  38.485  1.00  0.00     0.168 HD
BRANCH   5   7
HETATM    7  C16 UNK     1      20.431  -5.878  37.645  1.00  0.00     0.037 A 
HETATM    8  C17 UNK     1      20.964  -6.590  36.576  1.00  0.00     0.067 A 
HETATM    9  C14 UNK     1      20.859  -7.983  36.566  1.00  0.00     0.092 A 
HETATM   10  C13 UNK     1      20.236  -8.691  37.594  1.00  0.00     0.004 A 
HETATM   11  O2  UNK     1      21.418  -8.649  35.456  1.00  0.00    -0.275 OA
HETATM   12  C15 UNK     1      20.171 -10.156  37.501  1.00  0.00    -0.043 A 
HETATM   13  C18 UNK     1      19.705  -7.955  38.662  1.00  0.00     0.017 A 
HETATM   14  C20 UNK     1      20.710 -10.762  36.434  1.00  0.00     0.090 A 
HETATM   15  C21 UNK     1      19.507 -10.947  38.590  1.00  0.00     0.049 C 
HETATM   16  C22 UNK     1      21.372 -10.029  35.341  1.00  0.00     0.288 A 
HETATM   17  O4  UNK     1      21.855 -10.619  34.381  1.00  0.00    -0.260 OA
HETATM   18  C19 UNK     1      19.803  -6.559  38.687  1.00  0.00     0.030 A 
ENDBRANCH   5   7
ENDBRANCH   3   5
ENDBRANCH   1   3
BRANCH   1  19
HETATM   19  N1  UNK     1      19.778  -2.898  34.548  1.00  0.00    -0.266 N 
HETATM   20  C12 UNK     1      20.435  -2.305  33.485  1.00  0.00     0.265 C 
HETATM   21  O3  UNK     1      21.653  -2.168  33.393  1.00  0.00    -0.269 OA
HETATM   22  H17 UNK     1      18.781  -3.083  34.551  1.00  0.00     0.190 HD
BRANCH  20  23
HETATM   23  C10 UNK     1      19.472  -1.815  32.414  1.00  0.00     0.218 C 
HETATM   24  C11 UNK     1      20.087  -1.938  31.029  1.00  0.00     0.050 C 
BRANCH  23  25
HETATM   25  O1  UNK     1      19.170  -0.450  32.647  1.00  0.00    -0.337 OA
BRANCH  25  26
HETATM   26  C8  UNK     1      18.362  -0.168  33.712  1.00  0.00     0.070 A 
HETATM   27  C6  UNK     1      18.787   0.741  34.683  1.00  0.00     0.044 A 
HETATM   28  C4  UNK     1      17.946   1.001  35.751  1.00  0.00    -0.049 A 
HETATM   29  C2  UNK     1      18.161   1.953  36.885  1.00  0.00     0.039 C 
HETATM   30  C5  UNK     1      16.694   0.382  35.852  1.00  0.00    -0.052 A 
HETATM   31  C1  UNK     1      17.104   1.467  37.886  1.00  0.00     0.009 C 
HETATM   32  C3  UNK     1      15.958   0.863  37.062  1.00  0.00     0.039 C 
HETATM   33  C7  UNK     1      16.258  -0.510  34.887  1.00  0.00     0.010 A 
HETATM   34  C9  UNK     1      17.106  -0.789  33.812  1.00  0.00     0.037 A 
ENDBRANCH  25  26
ENDBRANCH  23  25
ENDBRANCH  20  23
ENDBRANCH   1  19
TORSDOF 7
ENDMDL
MODEL 10
REMARK VINA RESULT:      -9.8      2.990      4.636
REMARK  7 active torsions:
REMARK  status: ('A' for Active; 'I' for Inactive)
REMARK    1  A    between atoms: C10_18  and  O1_2 
REMARK    2  A    between atoms: C8_16  and  O1_2 
REMARK       I    between atoms: C12_20  and  N1_6 
REMARK    3  A    between atoms: N1_6  and  N3_8 
REMARK    4  A    between atoms: C16_24  and  N2_7 
REMARK    5  A    between atoms: C23_31  and  N2_7 
REMARK    6  A    between atoms: C23_31  and  N3_8 
REMARK    7  A    between atoms: C10_18  and  C12_20 
ROOT
HETATM    1  N3  UNK     1      18.094  -2.760  37.071  1.00  0.00    -0.273 N 
HETATM    2  H23 UNK     1      17.755  -2.543  38.003  1.00  0.00     0.189 HD
ENDROOT
BRANCH   1   3
HETATM    3  C23 UNK     1      18.535  -1.763  36.206  1.00  0.00     0.191 C 
HETATM    4  S1  UNK     1      18.142  -0.185  36.607  1.00  0.00    -0.039 SA
BRANCH   3   5
HETATM    5  N2  UNK     1      19.270  -2.240  35.105  1.00  0.00    -0.332 N 
HETATM    6  H22 UNK     1      19.674  -3.160  35.270  1.00  0.00     0.168 HD
BRANCH   5   7
HETATM    7  C16 UNK     1      19.499  -1.778  33.809  1.00  0.00     0.037 A 
HETATM    8  C17 UNK     1      18.846  -0.639  33.349  1.00  0.00     0.067 A 
HETATM    9  C14 UNK     1      19.091  -0.193  32.048  1.00  0.00     0.092 A 
HETATM   10  C13 UNK     1      19.971  -0.851  31.188  1.00  0.00     0.004 A 
HETATM   11  O2  UNK     1      18.401   0.966  31.638  1.00  0.00    -0.275 OA
HETATM   12  C15 UNK     1      20.168  -0.311  29.835  1.00  0.00    -0.043 A 
HETATM   13  C18 UNK     1      20.619  -1.996  31.671  1.00  0.00     0.017 A 
HETATM   14  C20 UNK     1      19.498   0.792  29.473  1.00  0.00     0.090 A 
HETATM   15  C21 UNK     1      21.109  -0.995  28.886  1.00  0.00     0.049 C 
HETATM   16  C22 UNK     1      18.567   1.498  30.370  1.00  0.00     0.288 A 
HETATM   17  O4  UNK     1      17.971   2.505  30.003  1.00  0.00    -0.260 OA
HETATM   18  C19 UNK     1      20.384  -2.455  32.972  1.00  0.00     0.030 A 
ENDBRANCH   5   7
ENDBRANCH   3   5
ENDBRANCH   1   3
BRANCH   1  19
HETATM   19  N1  UNK     1      18.096  -4.087  36.709  1.00  0.00    -0.266 N 
HETATM   20  C12 UNK     1      19.257  -4.823  36.859  1.00  0.00     0.265 C 
HETATM   21  O3  UNK     1      20.319  -4.390  37.300  1.00  0.00    -0.269 OA
HETATM   22  H17 UNK     1      17.210  -4.497  36.433  1.00  0.00     0.190 HD
BRANCH  20  23
HETATM   23  C10 UNK     1      19.088  -6.265  36.401  1.00  0.00     0.218 C 
HETATM   24  C11 UNK     1      17.634  -6.570  36.082  1.00  0.00     0.050 C 
BRANCH  23  25
HETATM   25  O1  UNK     1      19.510  -7.135  37.437  1.00  0.00    -0.337 OA
BRANCH  25  26
HETATM   26  C8  UNK     1      20.606  -7.911  37.187  1.00  0.00     0.070 A 
HETATM   27  C6  UNK     1      20.509  -8.982  36.296  1.00  0.00     0.044 A 
HETATM   28  C4  UNK     1      21.637  -9.751  36.069  1.00  0.00    -0.049 A 
HETATM   29  C2  UNK     1      21.789 -10.913  35.140  1.00  0.00     0.039 C 
HETATM   30  C5  UNK     1      22.850  -9.459  36.703  1.00  0.00    -0.052 A 
HETATM   31  C1  UNK     1      23.090 -11.541  35.659  1.00  0.00     0.009 C 
HETATM   32  C3  UNK     1      23.924 -10.399  36.258  1.00  0.00     0.039 C 
HETATM   33  C7  UNK     1      22.959  -8.391  37.579  1.00  0.00     0.010 A 
HETATM   34  C9  UNK     1      21.823  -7.617  37.824  1.00  0.00     0.037 A 
ENDBRANCH  25  26
ENDBRANCH  23  25
ENDBRANCH  20  23
ENDBRANCH   1  19
TORSDOF 7
ENDMDL
