MODEL 1
REMARK VINA RESULT:      -7.5      0.000      0.000
REMARK  2 active torsions:
REMARK  status: ('A' for Active; 'I' for Inactive)
REMARK    1  A    between atoms: C3_7  and  O2_2 
REMARK    2  A    between atoms: C6_10  and  O3_3 
ROOT
HETATM    1  O1  UNK     1      19.151   1.089  17.342  1.00  0.00    -0.275 OA
HETATM    2  O4  UNK     1      19.093   2.040  15.262  1.00  0.00    -0.260 OA
HETATM    3  C1  UNK     1      19.768   2.454  19.277  1.00  0.00     0.032 A 
HETATM    4  C2  UNK     1      19.369   1.231  18.730  1.00  0.00     0.095 A 
HETATM    5  C3  UNK     1      19.963   3.581  18.358  1.00  0.00     0.087 A 
HETATM    6  C4  UNK     1      19.939   2.513  20.667  1.00  0.00     0.020 A 
HETATM    7  C5  UNK     1      19.157   0.094  19.511  1.00  0.00     0.074 A 
HETATM    8  C6  UNK     1      19.341   0.172  20.887  1.00  0.00     0.068 A 
HETATM    9  C7  UNK     1      19.729   1.380  21.464  1.00  0.00     0.037 A 
HETATM   10  C8  UNK     1      19.736   3.431  17.050  1.00  0.00     0.120 A 
HETATM   11  C9  UNK     1      19.302   2.153  16.465  1.00  0.00     0.290 A 
ENDROOT
BRANCH   5  12
HETATM   12  O2  UNK     1      20.388   4.803  18.840  1.00  0.00    -0.355 OA
HETATM   13  C10 UNK     1      21.553   5.230  18.162  1.00  0.00     0.210 C 
ENDBRANCH   5  12
BRANCH   8  14
HETATM   14  O3  UNK     1      19.139  -0.923  21.667  1.00  0.00    -0.361 OA
HETATM   15  H8  UNK     1      18.894  -1.673  21.101  1.00  0.00     0.217 HD
ENDBRANCH   8  14
TORSDOF 2
ENDMDL
MODEL 2
REMARK VINA RESULT:      -7.3      1.833      3.467
REMARK  2 active torsions:
REMARK  status: ('A' for Active; 'I' for Inactive)
REMARK    1  A    between atoms: C3_7  and  O2_2 
REMARK    2  A    between atoms: C6_10  and  O3_3 
ROOT
HETATM    1  O1  UNK     1      19.388   2.775  17.726  1.00  0.00    -0.275 OA
HETATM    2  O4  UNK     1      19.327   2.831  15.439  1.00  0.00    -0.260 OA
HETATM    3  C1  UNK     1      19.150   0.635  18.889  1.00  0.00     0.032 A 
HETATM    4  C2  UNK     1      19.341   2.019  18.917  1.00  0.00     0.095 A 
HETATM    5  C3  UNK     1      18.986  -0.003  17.578  1.00  0.00     0.087 A 
HETATM    6  C4  UNK     1      19.140  -0.040  20.116  1.00  0.00     0.020 A 
HETATM    7  C5  UNK     1      19.506   2.728  20.109  1.00  0.00     0.074 A 
HETATM    8  C6  UNK     1      19.483   2.040  21.316  1.00  0.00     0.068 A 
HETATM    9  C7  UNK     1      19.304   0.658  21.320  1.00  0.00     0.037 A 
HETATM   10  C8  UNK     1      19.049   0.727  16.460  1.00  0.00     0.120 A 
HETATM   11  C9  UNK     1      19.265   2.182  16.478  1.00  0.00     0.290 A 
ENDROOT
BRANCH   5  12
HETATM   12  O2  UNK     1      18.761  -1.363  17.491  1.00  0.00    -0.355 OA
HETATM   13  C10 UNK     1      18.623  -1.761  16.142  1.00  0.00     0.210 C 
ENDBRANCH   5  12
BRANCH   8  14
HETATM   14  O3  UNK     1      19.642   2.710  22.488  1.00  0.00    -0.361 OA
HETATM   15  H8  UNK     1      19.728   3.660  22.300  1.00  0.00     0.217 HD
ENDBRANCH   8  14
TORSDOF 2
ENDMDL
MODEL 3
REMARK VINA RESULT:      -7.1      0.901      2.959
REMARK  2 active torsions:
REMARK  status: ('A' for Active; 'I' for Inactive)
REMARK    1  A    between atoms: C3_7  and  O2_2 
REMARK    2  A    between atoms: C6_10  and  O3_3 
ROOT
HETATM    1  O1  UNK     1      20.490   3.514  19.580  1.00  0.00    -0.275 OA
HETATM    2  O4  UNK     1      21.030   5.435  18.460  1.00  0.00    -0.260 OA
HETATM    3  C1  UNK     1      19.308   1.722  18.405  1.00  0.00     0.032 A 
HETATM    4  C2  UNK     1      19.909   2.227  19.561  1.00  0.00     0.095 A 
HETATM    5  C3  UNK     1      19.290   2.581  17.215  1.00  0.00     0.087 A 
HETATM    6  C4  UNK     1      18.777   0.427  18.468  1.00  0.00     0.020 A 
HETATM    7  C5  UNK     1      19.980   1.497  20.749  1.00  0.00     0.074 A 
HETATM    8  C6  UNK     1      19.439   0.217  20.792  1.00  0.00     0.068 A 
HETATM    9  C7  UNK     1      18.841  -0.318  19.652  1.00  0.00     0.037 A 
HETATM   10  C8  UNK     1      19.859   3.790  17.248  1.00  0.00     0.120 A 
HETATM   11  C9  UNK     1      20.508   4.325  18.455  1.00  0.00     0.290 A 
ENDROOT
BRANCH   5  12
HETATM   12  O2  UNK     1      18.680   2.147  16.055  1.00  0.00    -0.355 OA
HETATM   13  C10 UNK     1      19.506   1.225  15.372  1.00  0.00     0.210 C 
ENDBRANCH   5  12
BRANCH   8  14
HETATM   14  O3  UNK     1      19.497  -0.512  21.937  1.00  0.00    -0.361 OA
HETATM   15  H8  UNK     1      18.918  -0.103  22.602  1.00  0.00     0.217 HD
ENDBRANCH   8  14
TORSDOF 2
ENDMDL
MODEL 4
REMARK VINA RESULT:      -7.0     10.926     12.707
REMARK  2 active torsions:
REMARK  status: ('A' for Active; 'I' for Inactive)
REMARK    1  A    between atoms: C3_7  and  O2_2 
REMARK    2  A    between atoms: C6_10  and  O3_3 
ROOT
HETATM    1  O1  UNK     1      18.822   0.410  32.769  1.00  0.00    -0.275 OA
HETATM    2  O4  UNK     1      17.938   2.024  34.130  1.00  0.00    -0.260 OA
HETATM    3  C1  UNK     1      19.286   0.929  30.424  1.00  0.00     0.032 A 
HETATM    4  C2  UNK     1      19.301   0.033  31.496  1.00  0.00     0.095 A 
HETATM    5  C3  UNK     1      18.744   2.271  30.664  1.00  0.00     0.087 A 
HETATM    6  C4  UNK     1      19.801   0.480  29.201  1.00  0.00     0.020 A 
HETATM    7  C5  UNK     1      19.792  -1.268  31.378  1.00  0.00     0.074 A 
HETATM    8  C6  UNK     1      20.290  -1.697  30.154  1.00  0.00     0.068 A 
HETATM    9  C7  UNK     1      20.298  -0.824  29.068  1.00  0.00     0.037 A 
HETATM   10  C8  UNK     1      18.310   2.615  31.881  1.00  0.00     0.120 A 
HETATM   11  C9  UNK     1      18.335   1.685  33.020  1.00  0.00     0.290 A 
ENDROOT
BRANCH   5  12
HETATM   12  O2  UNK     1      18.674   3.187  29.633  1.00  0.00    -0.355 OA
HETATM   13  C10 UNK     1      19.023   4.479  30.087  1.00  0.00     0.210 C 
ENDBRANCH   5  12
BRANCH   8  14
HETATM   14  O3  UNK     1      20.775  -2.960  30.016  1.00  0.00    -0.361 OA
HETATM   15  H8  UNK     1      20.053  -3.546  29.732  1.00  0.00     0.217 HD
ENDBRANCH   8  14
TORSDOF 2
ENDMDL
MODEL 5
REMARK VINA RESULT:      -6.4     12.927     15.138
REMARK  2 active torsions:
REMARK  status: ('A' for Active; 'I' for Inactive)
REMARK    1  A    between atoms: C3_7  and  O2_2 
REMARK    2  A    between atoms: C6_10  and  O3_3 
ROOT
HETATM    1  O1  UNK     1      18.573   7.160  34.171  1.00  0.00    -0.275 OA
HETATM    2  O4  UNK     1      17.103   7.991  35.716  1.00  0.00    -0.260 OA
HETATM    3  C1  UNK     1      17.853   6.877  31.850  1.00  0.00     0.032 A 
HETATM    4  C2  UNK     1      18.839   6.788  32.836  1.00  0.00     0.095 A 
HETATM    5  C3  UNK     1      16.527   7.358  32.254  1.00  0.00     0.087 A 
HETATM    6  C4  UNK     1      18.209   6.509  30.546  1.00  0.00     0.020 A 
HETATM    7  C5  UNK     1      20.134   6.342  32.563  1.00  0.00     0.074 A 
HETATM    8  C6  UNK     1      20.464   5.973  31.264  1.00  0.00     0.068 A 
HETATM    9  C7  UNK     1      19.505   6.060  30.257  1.00  0.00     0.037 A 
HETATM   10  C8  UNK     1      16.298   7.721  33.520  1.00  0.00     0.120 A 
HETATM   11  C9  UNK     1      17.333   7.646  34.562  1.00  0.00     0.290 A 
ENDROOT
BRANCH   5  12
HETATM   12  O2  UNK     1      15.504   7.434  31.329  1.00  0.00    -0.355 OA
HETATM   13  C10 UNK     1      14.267   7.096  31.922  1.00  0.00     0.210 C 
ENDBRANCH   5  12
BRANCH   8  14
HETATM   14  O3  UNK     1      21.718   5.536  30.975  1.00  0.00    -0.361 OA
HETATM   15  H8  UNK     1      21.681   4.589  30.761  1.00  0.00     0.217 HD
ENDBRANCH   8  14
TORSDOF 2
ENDMDL
MODEL 6
REMARK VINA RESULT:      -6.4     17.937     20.312
REMARK  2 active torsions:
REMARK  status: ('A' for Active; 'I' for Inactive)
REMARK    1  A    between atoms: C3_7  and  O2_2 
REMARK    2  A    between atoms: C6_10  and  O3_3 
ROOT
HETATM    1  O1  UNK     1      20.563  -8.635  34.785  1.00  0.00    -0.275 OA
HETATM    2  O4  UNK     1      20.916  -7.242  33.004  1.00  0.00    -0.260 OA
HETATM    3  C1  UNK     1      19.664  -7.724  36.871  1.00  0.00     0.032 A 
HETATM    4  C2  UNK     1      20.118  -8.808  36.114  1.00  0.00     0.095 A 
HETATM    5  C3  UNK     1      19.676  -6.399  36.240  1.00  0.00     0.087 A 
HETATM    6  C4  UNK     1      19.219  -7.989  38.173  1.00  0.00     0.020 A 
HETATM    7  C5  UNK     1      20.152 -10.110  36.615  1.00  0.00     0.074 A 
HETATM    8  C6  UNK     1      19.715 -10.349  37.913  1.00  0.00     0.068 A 
HETATM    9  C7  UNK     1      19.246  -9.291  38.689  1.00  0.00     0.037 A 
HETATM   10  C8  UNK     1      20.085  -6.258  34.975  1.00  0.00     0.120 A 
HETATM   11  C9  UNK     1      20.551  -7.394  34.165  1.00  0.00     0.290 A 
ENDROOT
BRANCH   5  12
HETATM   12  O2  UNK     1      19.269  -5.288  36.952  1.00  0.00    -0.355 OA
HETATM   13  C10 UNK     1      20.374  -4.466  37.269  1.00  0.00     0.210 C 
ENDBRANCH   5  12
BRANCH   8  14
HETATM   14  O3  UNK     1      19.738 -11.610  38.421  1.00  0.00    -0.361 OA
HETATM   15  H8  UNK     1      18.862 -11.817  38.790  1.00  0.00     0.217 HD
ENDBRANCH   8  14
TORSDOF 2
ENDMDL
MODEL 7
REMARK VINA RESULT:      -6.4     19.010     21.313
REMARK  2 active torsions:
REMARK  status: ('A' for Active; 'I' for Inactive)
REMARK    1  A    between atoms: C3_7  and  O2_2 
REMARK    2  A    between atoms: C6_10  and  O3_3 
ROOT
HETATM    1  O1  UNK     1      18.914  -9.520  37.988  1.00  0.00    -0.275 OA
HETATM    2  O4  UNK     1      19.272 -11.689  38.624  1.00  0.00    -0.260 OA
HETATM    3  C1  UNK     1      20.248  -8.557  36.177  1.00  0.00     0.032 A 
HETATM    4  C2  UNK     1      19.238  -8.442  37.136  1.00  0.00     0.095 A 
HETATM    5  C3  UNK     1      20.967  -9.833  36.094  1.00  0.00     0.087 A 
HETATM    6  C4  UNK     1      20.489  -7.446  35.358  1.00  0.00     0.020 A 
HETATM    7  C5  UNK     1      18.493  -7.274  37.303  1.00  0.00     0.074 A 
HETATM    8  C6  UNK     1      18.754  -6.180  36.486  1.00  0.00     0.068 A 
HETATM    9  C7  UNK     1      19.748  -6.267  35.513  1.00  0.00     0.037 A 
HETATM   10  C8  UNK     1      20.635 -10.848  36.898  1.00  0.00     0.120 A 
HETATM   11  C9  UNK     1      19.565 -10.742  37.901  1.00  0.00     0.290 A 
ENDROOT
BRANCH   5  12
HETATM   12  O2  UNK     1      21.997  -9.992  35.187  1.00  0.00    -0.355 OA
HETATM   13  C10 UNK     1      22.893 -10.996  35.619  1.00  0.00     0.210 C 
ENDBRANCH   5  12
BRANCH   8  14
HETATM   14  O3  UNK     1      18.040  -5.032  36.630  1.00  0.00    -0.361 OA
HETATM   15  H8  UNK     1      17.430  -4.943  35.878  1.00  0.00     0.217 HD
ENDBRANCH   8  14
TORSDOF 2
ENDMDL
MODEL 8
REMARK VINA RESULT:      -6.3     10.268     12.061
REMARK  2 active torsions:
REMARK  status: ('A' for Active; 'I' for Inactive)
REMARK    1  A    between atoms: C3_7  and  O2_2 
REMARK    2  A    between atoms: C6_10  and  O3_3 
ROOT
HETATM    1  O1  UNK     1      19.009   0.638  28.687  1.00  0.00    -0.275 OA
HETATM    2  O4  UNK     1      17.934   2.542  28.012  1.00  0.00    -0.260 OA
HETATM    3  C1  UNK     1      19.246   0.168  31.077  1.00  0.00     0.032 A 
HETATM    4  C2  UNK     1      19.450  -0.190  29.742  1.00  0.00     0.095 A 
HETATM    5  C3  UNK     1      18.567   1.441  31.344  1.00  0.00     0.087 A 
HETATM    6  C4  UNK     1      19.695  -0.723  32.060  1.00  0.00     0.020 A 
HETATM    7  C5  UNK     1      20.086  -1.377  29.373  1.00  0.00     0.074 A 
HETATM    8  C6  UNK     1      20.533  -2.243  30.365  1.00  0.00     0.068 A 
HETATM    9  C7  UNK     1      20.335  -1.918  31.706  1.00  0.00     0.037 A 
HETATM   10  C8  UNK     1      18.142   2.204  30.333  1.00  0.00     0.120 A 
HETATM   11  C9  UNK     1      18.339   1.829  28.924  1.00  0.00     0.290 A 
ENDROOT
BRANCH   5  12
HETATM   12  O2  UNK     1      18.368   1.862  32.645  1.00  0.00    -0.355 OA
HETATM   13  C10 UNK     1      18.200   3.265  32.696  1.00  0.00     0.210 C 
ENDBRANCH   5  12
BRANCH   8  14
HETATM   14  O3  UNK     1      21.154  -3.405  30.030  1.00  0.00    -0.361 OA
HETATM   15  H8  UNK     1      21.496  -3.824  30.837  1.00  0.00     0.217 HD
ENDBRANCH   8  14
TORSDOF 2
ENDMDL
MODEL 9
REMARK VINA RESULT:      -6.1     14.485     16.164
REMARK  2 active torsions:
REMARK  status: ('A' for Active; 'I' for Inactive)
REMARK    1  A    between atoms: C3_7  and  O2_2 
REMARK    2  A    between atoms: C6_10  and  O3_3 
ROOT
HETATM    1  O1  UNK     1      15.943   6.728  32.096  1.00  0.00    -0.275 OA
HETATM    2  O4  UNK     1      13.663   6.857  31.943  1.00  0.00    -0.260 OA
HETATM    3  C1  UNK     1      17.113   8.021  33.812  1.00  0.00     0.032 A 
HETATM    4  C2  UNK     1      17.133   7.116  32.747  1.00  0.00     0.095 A 
HETATM    5  C3  UNK     1      15.813   8.562  34.222  1.00  0.00     0.087 A 
HETATM    6  C4  UNK     1      18.339   8.333  34.416  1.00  0.00     0.020 A 
HETATM    7  C5  UNK     1      18.315   6.541  32.274  1.00  0.00     0.074 A 
HETATM    8  C6  UNK     1      19.520   6.872  32.882  1.00  0.00     0.068 A 
HETATM    9  C7  UNK     1      19.532   7.763  33.953  1.00  0.00     0.037 A 
HETATM   10  C8  UNK     1      14.694   8.171  33.604  1.00  0.00     0.120 A 
HETATM   11  C9  UNK     1      14.703   7.208  32.492  1.00  0.00     0.290 A 
ENDROOT
BRANCH   5  12
HETATM   12  O2  UNK     1      15.737   9.485  35.247  1.00  0.00    -0.355 OA
HETATM   13  C10 UNK     1      14.557  10.256  35.138  1.00  0.00     0.210 C 
ENDBRANCH   5  12
BRANCH   8  14
HETATM   14  O3  UNK     1      20.683   6.324  32.439  1.00  0.00    -0.361 OA
HETATM   15  H8  UNK     1      21.026   6.862  31.706  1.00  0.00     0.217 HD
ENDBRANCH   8  14
TORSDOF 2
ENDMDL
MODEL 10
REMARK VINA RESULT:      -6.1      3.291      5.470
REMARK  2 active torsions:
REMARK  status: ('A' for Active; 'I' for Inactive)
REMARK    1  A    between atoms: C3_7  and  O2_2 
REMARK    2  A    between atoms: C6_10  and  O3_3 
ROOT
HETATM    1  O1  UNK     1      19.370   1.167  15.033  1.00  0.00    -0.275 OA
HETATM    2  O4  UNK     1      19.557   3.135  16.185  1.00  0.00    -0.260 OA
HETATM    3  C1  UNK     1      18.880  -0.901  16.247  1.00  0.00     0.032 A 
HETATM    4  C2  UNK     1      19.123  -0.223  15.049  1.00  0.00     0.095 A 
HETATM    5  C3  UNK     1      18.903  -0.120  17.489  1.00  0.00     0.087 A 
HETATM    6  C4  UNK     1      18.622  -2.276  16.169  1.00  0.00     0.020 A 
HETATM    7  C5  UNK     1      19.127  -0.868  13.811  1.00  0.00     0.074 A 
HETATM    8  C6  UNK     1      18.878  -2.235  13.757  1.00  0.00     0.068 A 
HETATM    9  C7  UNK     1      18.622  -2.936  14.933  1.00  0.00     0.037 A 
HETATM   10  C8  UNK     1      19.122   1.198  17.452  1.00  0.00     0.120 A 
HETATM   11  C9  UNK     1      19.364   1.924  16.196  1.00  0.00     0.290 A 
ENDROOT
BRANCH   5  12
HETATM   12  O2  UNK     1      18.702  -0.743  18.704  1.00  0.00    -0.355 OA
HETATM   13  C10 UNK     1      19.021   0.128  19.771  1.00  0.00     0.210 C 
ENDBRANCH   5  12
BRANCH   8  14
HETATM   14  O3  UNK     1      18.876  -2.883  12.562  1.00  0.00    -0.361 OA
HETATM   15  H8  UNK     1      18.157  -3.538  12.559  1.00  0.00     0.217 HD
ENDBRANCH   8  14
TORSDOF 2
ENDMDL
