MODEL 1
REMARK VINA RESULT:      -9.0      0.000      0.000
REMARK  3 active torsions:
REMARK  status: ('A' for Active; 'I' for Inactive)
REMARK    1  A    between atoms: C12_17  and  O2_3 
REMARK    2  A    between atoms: C5_10  and  O2_3 
REMARK    3  A    between atoms: C11_16  and  C12_17 
ROOT
HETATM    1 Cl1  UNK     1      20.749   6.254  32.601  1.00  0.00    -0.081 Cl
HETATM    2  O1  UNK     1      17.047   9.130  34.540  1.00  0.00    -0.275 OA
HETATM    3  O3  UNK     1      15.456  10.482  35.473  1.00  0.00    -0.260 OA
HETATM    4  C1  UNK     1      16.365   7.396  32.961  1.00  0.00     0.007 A 
HETATM    5  C2  UNK     1      14.970   7.825  33.132  1.00  0.00    -0.043 A 
HETATM    6  C3  UNK     1      17.361   8.064  33.673  1.00  0.00     0.092 A 
HETATM    7  C4  UNK     1      16.760   6.347  32.119  1.00  0.00     0.054 A 
HETATM    8  C5  UNK     1      18.108   5.991  32.004  1.00  0.00     0.102 A 
HETATM    9  C6  UNK     1      18.710   7.721  33.569  1.00  0.00     0.065 A 
HETATM   10  C7  UNK     1      19.083   6.677  32.729  1.00  0.00     0.070 A 
HETATM   11  C8  UNK     1      14.701   8.841  33.962  1.00  0.00     0.090 A 
HETATM   12  C9  UNK     1      13.874   7.125  32.381  1.00  0.00     0.049 C 
HETATM   13  C10 UNK     1      15.741   9.557  34.720  1.00  0.00     0.288 A 
ENDROOT
BRANCH   8  14
HETATM   14  O2  UNK     1      18.442   4.963  31.173  1.00  0.00    -0.273 OA
BRANCH  14  15
HETATM   15  C12 UNK     1      18.227   3.695  31.713  1.00  0.00     0.298 C 
HETATM   16  O4  UNK     1      17.901   3.458  32.868  1.00  0.00    -0.259 OA
BRANCH  15  17
HETATM   17  C11 UNK     1      18.434   2.635  30.693  1.00  0.00     0.039 A 
HETATM   18  C13 UNK     1      17.858   2.786  29.449  1.00  0.00     0.017 A 
HETATM   19  C15 UNK     1      18.054   1.790  28.492  1.00  0.00     0.001 A 
HETATM   20  C17 UNK     1      18.821   0.666  28.801  1.00  0.00     0.000 A 
HETATM   21  C16 UNK     1      19.392   0.538  30.066  1.00  0.00     0.001 A 
HETATM   22  C14 UNK     1      19.197   1.534  31.024  1.00  0.00     0.017 A 
ENDBRANCH  15  17
ENDBRANCH  14  15
ENDBRANCH   8  14
TORSDOF 3
ENDMDL
MODEL 2
REMARK VINA RESULT:      -8.3     14.813     19.535
REMARK  3 active torsions:
REMARK  status: ('A' for Active; 'I' for Inactive)
REMARK    1  A    between atoms: C12_17  and  O2_3 
REMARK    2  A    between atoms: C5_10  and  O2_3 
REMARK    3  A    between atoms: C11_16  and  C12_17 
ROOT
HETATM    1 Cl1  UNK     1      19.302  -0.676  13.923  1.00  0.00    -0.081 Cl
HETATM    2  O1  UNK     1      18.359  -5.572  12.989  1.00  0.00    -0.275 OA
HETATM    3  O3  UNK     1      17.979  -7.766  12.465  1.00  0.00    -0.260 OA
HETATM    4  C1  UNK     1      17.671  -4.729  15.176  1.00  0.00     0.007 A 
HETATM    5  C2  UNK     1      17.166  -6.070  15.505  1.00  0.00    -0.043 A 
HETATM    6  C3  UNK     1      18.252  -4.523  13.924  1.00  0.00     0.092 A 
HETATM    7  C4  UNK     1      17.603  -3.635  16.048  1.00  0.00     0.054 A 
HETATM    8  C5  UNK     1      18.104  -2.385  15.668  1.00  0.00     0.102 A 
HETATM    9  C6  UNK     1      18.756  -3.282  13.530  1.00  0.00     0.065 A 
HETATM   10  C7  UNK     1      18.679  -2.208  14.411  1.00  0.00     0.070 A 
HETATM   11  C8  UNK     1      17.282  -7.048  14.596  1.00  0.00     0.090 A 
HETATM   12  C9  UNK     1      16.534  -6.323  16.843  1.00  0.00     0.049 C 
HETATM   13  C10 UNK     1      17.893  -6.847  13.272  1.00  0.00     0.288 A 
ENDROOT
BRANCH   8  14
HETATM   14  O2  UNK     1      18.014  -1.350  16.553  1.00  0.00    -0.273 OA
BRANCH  14  15
HETATM   15  C12 UNK     1      19.165  -1.145  17.314  1.00  0.00     0.298 C 
HETATM   16  O4  UNK     1      20.160  -1.855  17.307  1.00  0.00    -0.259 OA
BRANCH  15  17
HETATM   17  C11 UNK     1      19.044   0.076  18.151  1.00  0.00     0.039 A 
HETATM   18  C13 UNK     1      19.079   1.311  17.536  1.00  0.00     0.017 A 
HETATM   19  C15 UNK     1      18.965   2.457  18.323  1.00  0.00     0.001 A 
HETATM   20  C17 UNK     1      18.819   2.343  19.706  1.00  0.00     0.000 A 
HETATM   21  C16 UNK     1      18.787   1.083  20.302  1.00  0.00     0.001 A 
HETATM   22  C14 UNK     1      18.900  -0.064  19.516  1.00  0.00     0.017 A 
ENDBRANCH  15  17
ENDBRANCH  14  15
ENDBRANCH   8  14
TORSDOF 3
ENDMDL
MODEL 3
REMARK VINA RESULT:      -8.3      3.172      7.421
REMARK  3 active torsions:
REMARK  status: ('A' for Active; 'I' for Inactive)
REMARK    1  A    between atoms: C12_17  and  O2_3 
REMARK    2  A    between atoms: C5_10  and  O2_3 
REMARK    3  A    between atoms: C11_16  and  C12_17 
ROOT
HETATM    1 Cl1  UNK     1      18.786   2.037  29.382  1.00  0.00    -0.081 Cl
HETATM    2  O1  UNK     1      19.334  -1.038  33.379  1.00  0.00    -0.275 OA
HETATM    3  O3  UNK     1      19.619  -2.504  35.111  1.00  0.00    -0.260 OA
HETATM    4  C1  UNK     1      18.453   1.194  33.836  1.00  0.00     0.007 A 
HETATM    5  C2  UNK     1      18.375   0.844  35.261  1.00  0.00    -0.043 A 
HETATM    6  C3  UNK     1      18.930   0.238  32.938  1.00  0.00     0.092 A 
HETATM    7  C4  UNK     1      18.072   2.439  33.317  1.00  0.00     0.054 A 
HETATM    8  C5  UNK     1      18.173   2.705  31.947  1.00  0.00     0.102 A 
HETATM    9  C6  UNK     1      19.037   0.488  31.569  1.00  0.00     0.065 A 
HETATM   10  C7  UNK     1      18.654   1.730  31.074  1.00  0.00     0.070 A 
HETATM   11  C8  UNK     1      18.765  -0.377  35.651  1.00  0.00     0.090 A 
HETATM   12  C9  UNK     1      17.863   1.849  36.252  1.00  0.00     0.049 C 
HETATM   13  C10 UNK     1      19.273  -1.396  34.717  1.00  0.00     0.288 A 
ENDROOT
BRANCH   8  14
HETATM   14  O2  UNK     1      17.790   3.932  31.491  1.00  0.00    -0.273 OA
BRANCH  14  15
HETATM   15  C12 UNK     1      18.790   4.903  31.549  1.00  0.00     0.298 C 
HETATM   16  O4  UNK     1      19.757   4.976  30.805  1.00  0.00    -0.259 OA
BRANCH  15  17
HETATM   17  C11 UNK     1      18.532   5.873  32.644  1.00  0.00     0.039 A 
HETATM   18  C13 UNK     1      19.602   6.523  33.224  1.00  0.00     0.017 A 
HETATM   19  C15 UNK     1      19.359   7.433  34.253  1.00  0.00     0.001 A 
HETATM   20  C17 UNK     1      18.052   7.674  34.678  1.00  0.00     0.000 A 
HETATM   21  C16 UNK     1      16.989   7.003  34.075  1.00  0.00     0.001 A 
HETATM   22  C14 UNK     1      17.231   6.092  33.046  1.00  0.00     0.017 A 
ENDBRANCH  15  17
ENDBRANCH  14  15
ENDBRANCH   8  14
TORSDOF 3
ENDMDL
MODEL 4
REMARK VINA RESULT:      -8.3      3.972      8.510
REMARK  3 active torsions:
REMARK  status: ('A' for Active; 'I' for Inactive)
REMARK    1  A    between atoms: C12_17  and  O2_3 
REMARK    2  A    between atoms: C5_10  and  O2_3 
REMARK    3  A    between atoms: C11_16  and  C12_17 
ROOT
HETATM    1 Cl1  UNK     1      17.516   0.877  35.285  1.00  0.00    -0.081 Cl
HETATM    2  O1  UNK     1      20.240  -2.709  32.950  1.00  0.00    -0.275 OA
HETATM    3  O3  UNK     1      21.470  -4.383  31.994  1.00  0.00    -0.260 OA
HETATM    4  C1  UNK     1      19.603  -0.775  31.601  1.00  0.00     0.007 A 
HETATM    5  C2  UNK     1      20.301  -1.376  30.456  1.00  0.00    -0.043 A 
HETATM    6  C3  UNK     1      19.596  -1.463  32.815  1.00  0.00     0.092 A 
HETATM    7  C4  UNK     1      18.939   0.459  31.549  1.00  0.00     0.054 A 
HETATM    8  C5  UNK     1      18.294   0.972  32.680  1.00  0.00     0.102 A 
HETATM    9  C6  UNK     1      18.957  -0.964  33.952  1.00  0.00     0.065 A 
HETATM   10  C7  UNK     1      18.304   0.262  33.880  1.00  0.00     0.070 A 
HETATM   11  C8  UNK     1      20.904  -2.562  30.613  1.00  0.00     0.090 A 
HETATM   12  C9  UNK     1      20.329  -0.660  29.137  1.00  0.00     0.049 C 
HETATM   13  C10 UNK     1      20.904  -3.301  31.887  1.00  0.00     0.288 A 
ENDROOT
BRANCH   8  14
HETATM   14  O2  UNK     1      17.662   2.176  32.579  1.00  0.00    -0.273 OA
BRANCH  14  15
HETATM   15  C12 UNK     1      17.869   2.832  31.365  1.00  0.00     0.298 C 
HETATM   16  O4  UNK     1      17.529   2.420  30.266  1.00  0.00    -0.259 OA
BRANCH  15  17
HETATM   17  C11 UNK     1      18.560   4.131  31.569  1.00  0.00     0.039 A 
HETATM   18  C13 UNK     1      19.264   4.683  30.519  1.00  0.00     0.017 A 
HETATM   19  C15 UNK     1      19.912   5.904  30.711  1.00  0.00     0.001 A 
HETATM   20  C17 UNK     1      19.842   6.544  31.948  1.00  0.00     0.000 A 
HETATM   21  C16 UNK     1      19.123   5.965  32.993  1.00  0.00     0.001 A 
HETATM   22  C14 UNK     1      18.474   4.745  32.802  1.00  0.00     0.017 A 
ENDBRANCH  15  17
ENDBRANCH  14  15
ENDBRANCH   8  14
TORSDOF 3
ENDMDL
MODEL 5
REMARK VINA RESULT:      -8.1      4.404      7.755
REMARK  3 active torsions:
REMARK  status: ('A' for Active; 'I' for Inactive)
REMARK    1  A    between atoms: C12_17  and  O2_3 
REMARK    2  A    between atoms: C5_10  and  O2_3 
REMARK    3  A    between atoms: C11_16  and  C12_17 
ROOT
HETATM    1 Cl1  UNK     1      21.009  -0.839  28.908  1.00  0.00    -0.081 Cl
HETATM    2  O1  UNK     1      19.961  -2.368  33.630  1.00  0.00    -0.275 OA
HETATM    3  O3  UNK     1      19.544  -3.153  35.737  1.00  0.00    -0.260 OA
HETATM    4  C1  UNK     1      19.107  -0.173  32.982  1.00  0.00     0.007 A 
HETATM    5  C2  UNK     1      18.521  -0.034  34.322  1.00  0.00    -0.043 A 
HETATM    6  C3  UNK     1      19.810  -1.340  32.678  1.00  0.00     0.092 A 
HETATM    7  C4  UNK     1      19.002   0.801  31.980  1.00  0.00     0.054 A 
HETATM    8  C5  UNK     1      19.586   0.602  30.724  1.00  0.00     0.102 A 
HETATM    9  C6  UNK     1      20.398  -1.553  31.430  1.00  0.00     0.065 A 
HETATM   10  C7  UNK     1      20.283  -0.574  30.449  1.00  0.00     0.070 A 
HETATM   11  C8  UNK     1      18.681  -1.028  35.207  1.00  0.00     0.090 A 
HETATM   12  C9  UNK     1      17.756   1.208  34.679  1.00  0.00     0.049 C 
HETATM   13  C10 UNK     1      19.421  -2.264  34.902  1.00  0.00     0.288 A 
ENDROOT
BRANCH   8  14
HETATM   14  O2  UNK     1      19.456   1.580  29.783  1.00  0.00    -0.273 OA
BRANCH  14  15
HETATM   15  C12 UNK     1      18.291   2.339  29.901  1.00  0.00     0.298 C 
HETATM   16  O4  UNK     1      17.166   1.971  29.594  1.00  0.00    -0.259 OA
BRANCH  15  17
HETATM   17  C11 UNK     1      18.580   3.681  30.469  1.00  0.00     0.039 A 
HETATM   18  C13 UNK     1      19.233   4.609  29.685  1.00  0.00     0.017 A 
HETATM   19  C15 UNK     1      19.504   5.869  30.220  1.00  0.00     0.001 A 
HETATM   20  C17 UNK     1      19.117   6.172  31.526  1.00  0.00     0.000 A 
HETATM   21  C16 UNK     1      18.459   5.214  32.297  1.00  0.00     0.001 A 
HETATM   22  C14 UNK     1      18.187   3.954  31.763  1.00  0.00     0.017 A 
ENDBRANCH  15  17
ENDBRANCH  14  15
ENDBRANCH   8  14
TORSDOF 3
ENDMDL
MODEL 6
REMARK VINA RESULT:      -8.1      3.296      4.782
REMARK  3 active torsions:
REMARK  status: ('A' for Active; 'I' for Inactive)
REMARK    1  A    between atoms: C12_17  and  O2_3 
REMARK    2  A    between atoms: C5_10  and  O2_3 
REMARK    3  A    between atoms: C11_16  and  C12_17 
ROOT
HETATM    1 Cl1  UNK     1      13.677   7.134  33.739  1.00  0.00    -0.081 Cl
HETATM    2  O1  UNK     1      14.506  11.890  35.297  1.00  0.00    -0.275 OA
HETATM    3  O3  UNK     1      14.772  14.040  36.031  1.00  0.00    -0.260 OA
HETATM    4  C1  UNK     1      16.409  10.722  34.306  1.00  0.00     0.007 A 
HETATM    5  C2  UNK     1      17.227  11.923  34.523  1.00  0.00    -0.043 A 
HETATM    6  C3  UNK     1      15.070  10.745  34.700  1.00  0.00     0.092 A 
HETATM    7  C4  UNK     1      16.894   9.544  33.721  1.00  0.00     0.054 A 
HETATM    8  C5  UNK     1      16.057   8.436  33.544  1.00  0.00     0.102 A 
HETATM    9  C6  UNK     1      14.224   9.648  34.531  1.00  0.00     0.065 A 
HETATM   10  C7  UNK     1      14.724   8.488  33.948  1.00  0.00     0.070 A 
HETATM   11  C8  UNK     1      16.664  12.997  35.092  1.00  0.00     0.090 A 
HETATM   12  C9  UNK     1      18.669  11.931  34.108  1.00  0.00     0.049 C 
HETATM   13  C10 UNK     1      15.253  13.037  35.516  1.00  0.00     0.288 A 
ENDROOT
BRANCH   8  14
HETATM   14  O2  UNK     1      16.576   7.313  32.969  1.00  0.00    -0.273 OA
BRANCH  14  15
HETATM   15  C12 UNK     1      17.018   7.492  31.658  1.00  0.00     0.298 C 
HETATM   16  O4  UNK     1      16.412   8.084  30.776  1.00  0.00    -0.259 OA
BRANCH  15  17
HETATM   17  C11 UNK     1      18.352   6.872  31.453  1.00  0.00     0.039 A 
HETATM   18  C13 UNK     1      18.659   6.347  30.215  1.00  0.00     0.017 A 
HETATM   19  C15 UNK     1      19.913   5.765  30.023  1.00  0.00     0.001 A 
HETATM   20  C17 UNK     1      20.830   5.721  31.073  1.00  0.00     0.000 A 
HETATM   21  C16 UNK     1      20.494   6.260  32.315  1.00  0.00     0.001 A 
HETATM   22  C14 UNK     1      19.241   6.843  32.507  1.00  0.00     0.017 A 
ENDBRANCH  15  17
ENDBRANCH  14  15
ENDBRANCH   8  14
TORSDOF 3
ENDMDL
MODEL 7
REMARK VINA RESULT:      -8.1     22.773     24.662
REMARK  3 active torsions:
REMARK  status: ('A' for Active; 'I' for Inactive)
REMARK    1  A    between atoms: C12_17  and  O2_3 
REMARK    2  A    between atoms: C5_10  and  O2_3 
REMARK    3  A    between atoms: C11_16  and  C12_17 
ROOT
HETATM    1 Cl1  UNK     1      14.888   5.884  10.295  1.00  0.00    -0.081 Cl
HETATM    2  O1  UNK     1      18.127   9.752   9.764  1.00  0.00    -0.275 OA
HETATM    3  O3  UNK     1      19.665  11.435   9.580  1.00  0.00    -0.260 OA
HETATM    4  C1  UNK     1      15.895  10.065   8.823  1.00  0.00     0.007 A 
HETATM    5  C2  UNK     1      16.298  11.407   8.379  1.00  0.00    -0.043 A 
HETATM    6  C3  UNK     1      16.826   9.279   9.504  1.00  0.00     0.092 A 
HETATM    7  C4  UNK     1      14.622   9.521   8.603  1.00  0.00     0.054 A 
HETATM    8  C5  UNK     1      14.307   8.234   9.054  1.00  0.00     0.102 A 
HETATM    9  C6  UNK     1      16.526   7.994   9.959  1.00  0.00     0.065 A 
HETATM   10  C7  UNK     1      15.257   7.471   9.731  1.00  0.00     0.070 A 
HETATM   11  C8  UNK     1      17.541  11.830   8.641  1.00  0.00     0.090 A 
HETATM   12  C9  UNK     1      15.319  12.278   7.646  1.00  0.00     0.049 C 
HETATM   13  C10 UNK     1      18.536  11.013   9.357  1.00  0.00     0.288 A 
ENDROOT
BRANCH   8  14
HETATM   14  O2  UNK     1      13.054   7.749   8.816  1.00  0.00    -0.273 OA
BRANCH  14  15
HETATM   15  C12 UNK     1      12.884   7.200   7.545  1.00  0.00     0.298 C 
HETATM   16  O4  UNK     1      13.776   6.976   6.739  1.00  0.00    -0.259 OA
BRANCH  15  17
HETATM   17  C11 UNK     1      11.454   6.899   7.278  1.00  0.00     0.039 A 
HETATM   18  C13 UNK     1      11.088   6.462   6.021  1.00  0.00     0.017 A 
HETATM   19  C15 UNK     1       9.745   6.180   5.772  1.00  0.00     0.001 A 
HETATM   20  C17 UNK     1       8.798   6.340   6.784  1.00  0.00     0.000 A 
HETATM   21  C16 UNK     1       9.194   6.783   8.045  1.00  0.00     0.001 A 
HETATM   22  C14 UNK     1      10.538   7.066   8.296  1.00  0.00     0.017 A 
ENDBRANCH  15  17
ENDBRANCH  14  15
ENDBRANCH   8  14
TORSDOF 3
ENDMDL
MODEL 8
REMARK VINA RESULT:      -8.1     22.610     24.170
REMARK  3 active torsions:
REMARK  status: ('A' for Active; 'I' for Inactive)
REMARK    1  A    between atoms: C12_17  and  O2_3 
REMARK    2  A    between atoms: C5_10  and  O2_3 
REMARK    3  A    between atoms: C11_16  and  C12_17 
ROOT
HETATM    1 Cl1  UNK     1      10.762   8.956   9.491  1.00  0.00    -0.081 Cl
HETATM    2  O1  UNK     1      15.385  11.043   9.467  1.00  0.00    -0.275 OA
HETATM    3  O3  UNK     1      17.422  12.083   9.435  1.00  0.00    -0.260 OA
HETATM    4  C1  UNK     1      15.279   8.636   9.871  1.00  0.00     0.007 A 
HETATM    5  C2  UNK     1      16.745   8.616   9.979  1.00  0.00    -0.043 A 
HETATM    6  C3  UNK     1      14.645   9.853   9.616  1.00  0.00     0.092 A 
HETATM    7  C4  UNK     1      14.472   7.498  10.007  1.00  0.00     0.054 A 
HETATM    8  C5  UNK     1      13.080   7.591   9.891  1.00  0.00     0.102 A 
HETATM    9  C6  UNK     1      13.258   9.961   9.498  1.00  0.00     0.065 A 
HETATM   10  C7  UNK     1      12.474   8.821   9.637  1.00  0.00     0.070 A 
HETATM   11  C8  UNK     1      17.422   9.762   9.833  1.00  0.00     0.090 A 
HETATM   12  C9  UNK     1      17.457   7.322  10.250  1.00  0.00     0.049 C 
HETATM   13  C10 UNK     1      16.768  11.054   9.565  1.00  0.00     0.288 A 
ENDROOT
BRANCH   8  14
HETATM   14  O2  UNK     1      12.338   6.455  10.031  1.00  0.00    -0.273 OA
BRANCH  14  15
HETATM   15  C12 UNK     1      12.407   5.587   8.942  1.00  0.00     0.298 C 
HETATM   16  O4  UNK     1      13.237   4.703   8.786  1.00  0.00    -0.259 OA
BRANCH  15  17
HETATM   17  C11 UNK     1      11.318   5.860   7.969  1.00  0.00     0.039 A 
HETATM   18  C13 UNK     1      10.008   5.761   8.390  1.00  0.00     0.017 A 
HETATM   19  C15 UNK     1       8.986   6.018   7.475  1.00  0.00     0.001 A 
HETATM   20  C17 UNK     1       9.297   6.368   6.161  1.00  0.00     0.000 A 
HETATM   21  C16 UNK     1      10.630   6.460   5.761  1.00  0.00     0.001 A 
HETATM   22  C14 UNK     1      11.653   6.204   6.675  1.00  0.00     0.017 A 
ENDBRANCH  15  17
ENDBRANCH  14  15
ENDBRANCH   8  14
TORSDOF 3
ENDMDL
MODEL 9
REMARK VINA RESULT:      -7.8      2.668      7.477
REMARK  3 active torsions:
REMARK  status: ('A' for Active; 'I' for Inactive)
REMARK    1  A    between atoms: C12_17  and  O2_3 
REMARK    2  A    between atoms: C5_10  and  O2_3 
REMARK    3  A    between atoms: C11_16  and  C12_17 
ROOT
HETATM    1 Cl1  UNK     1      18.776   5.514  30.094  1.00  0.00    -0.081 Cl
HETATM    2  O1  UNK     1      18.753   0.675  31.617  1.00  0.00    -0.275 OA
HETATM    3  O3  UNK     1      18.766  -1.537  32.198  1.00  0.00    -0.260 OA
HETATM    4  C1  UNK     1      18.290   2.357  33.327  1.00  0.00     0.007 A 
HETATM    5  C2  UNK     1      18.149   1.278  34.314  1.00  0.00    -0.043 A 
HETATM    6  C3  UNK     1      18.588   2.020  32.006  1.00  0.00     0.092 A 
HETATM    7  C4  UNK     1      18.142   3.717  33.633  1.00  0.00     0.054 A 
HETATM    8  C5  UNK     1      18.291   4.694  32.641  1.00  0.00     0.102 A 
HETATM    9  C6  UNK     1      18.739   2.982  31.006  1.00  0.00     0.065 A 
HETATM   10  C7  UNK     1      18.589   4.327  31.329  1.00  0.00     0.070 A 
HETATM   11  C8  UNK     1      18.311   0.009  33.916  1.00  0.00     0.090 A 
HETATM   12  C9  UNK     1      17.826   1.608  35.743  1.00  0.00     0.049 C 
HETATM   13  C10 UNK     1      18.626  -0.363  32.526  1.00  0.00     0.288 A 
ENDROOT
BRANCH   8  14
HETATM   14  O2  UNK     1      18.137   6.004  32.989  1.00  0.00    -0.273 OA
BRANCH  14  15
HETATM   15  C12 UNK     1      19.215   6.541  33.693  1.00  0.00     0.298 C 
HETATM   16  O4  UNK     1      20.170   5.910  34.123  1.00  0.00    -0.259 OA
BRANCH  15  17
HETATM   17  C11 UNK     1      19.071   8.010  33.855  1.00  0.00     0.039 A 
HETATM   18  C13 UNK     1      20.153   8.741  34.300  1.00  0.00     0.017 A 
HETATM   19  C15 UNK     1      20.017  10.121  34.452  1.00  0.00     0.001 A 
HETATM   20  C17 UNK     1      18.802  10.739  34.156  1.00  0.00     0.000 A 
HETATM   21  C16 UNK     1      17.723   9.977  33.708  1.00  0.00     0.001 A 
HETATM   22  C14 UNK     1      17.859   8.597  33.555  1.00  0.00     0.017 A 
ENDBRANCH  15  17
ENDBRANCH  14  15
ENDBRANCH   8  14
TORSDOF 3
ENDMDL
MODEL 10
REMARK VINA RESULT:      -7.8      2.835      7.693
REMARK  3 active torsions:
REMARK  status: ('A' for Active; 'I' for Inactive)
REMARK    1  A    between atoms: C12_17  and  O2_3 
REMARK    2  A    between atoms: C5_10  and  O2_3 
REMARK    3  A    between atoms: C11_16  and  C12_17 
ROOT
HETATM    1 Cl1  UNK     1      17.657   4.235  34.053  1.00  0.00    -0.081 Cl
HETATM    2  O1  UNK     1      19.279  -0.479  33.118  1.00  0.00    -0.275 OA
HETATM    3  O3  UNK     1      20.001  -2.627  32.807  1.00  0.00    -0.260 OA
HETATM    4  C1  UNK     1      19.119   1.018  31.195  1.00  0.00     0.007 A 
HETATM    5  C2  UNK     1      19.598  -0.075  30.337  1.00  0.00    -0.043 A 
HETATM    6  C3  UNK     1      18.975   0.780  32.562  1.00  0.00     0.092 A 
HETATM    7  C4  UNK     1      18.795   2.297  30.721  1.00  0.00     0.054 A 
HETATM    8  C5  UNK     1      18.344   3.291  31.596  1.00  0.00     0.102 A 
HETATM    9  C6  UNK     1      18.527   1.761  33.448  1.00  0.00     0.065 A 
HETATM   10  C7  UNK     1      18.210   3.024  32.958  1.00  0.00     0.070 A 
HETATM   11  C8  UNK     1      19.879  -1.260  30.893  1.00  0.00     0.090 A 
HETATM   12  C9  UNK     1      19.765   0.151  28.862  1.00  0.00     0.049 C 
HETATM   13  C10 UNK     1      19.731  -1.528  32.334  1.00  0.00     0.288 A 
ENDROOT
BRANCH   8  14
HETATM   14  O2  UNK     1      18.042   4.520  31.086  1.00  0.00    -0.273 OA
BRANCH  14  15
HETATM   15  C12 UNK     1      19.126   5.396  31.022  1.00  0.00     0.298 C 
HETATM   16  O4  UNK     1      20.063   5.315  30.241  1.00  0.00    -0.259 OA
BRANCH  15  17
HETATM   17  C11 UNK     1      19.003   6.476  32.034  1.00  0.00     0.039 A 
HETATM   18  C13 UNK     1      20.054   6.703  32.897  1.00  0.00     0.017 A 
HETATM   19  C15 UNK     1      19.938   7.718  33.847  1.00  0.00     0.001 A 
HETATM   20  C17 UNK     1      18.773   8.483  33.913  1.00  0.00     0.000 A 
HETATM   21  C16 UNK     1      17.725   8.233  33.028  1.00  0.00     0.001 A 
HETATM   22  C14 UNK     1      17.841   7.218  32.077  1.00  0.00     0.017 A 
ENDBRANCH  15  17
ENDBRANCH  14  15
ENDBRANCH   8  14
TORSDOF 3
ENDMDL
