MODEL 1
REMARK VINA RESULT:      -9.2      0.000      0.000
REMARK  1 active torsions:
REMARK  status: ('A' for Active; 'I' for Inactive)
REMARK    1  A    between atoms: C12_15  and  C7_10 
ROOT
HETATM    1  O1  UNK     1      18.750   0.508  33.353  1.00  0.00    -0.307 OA
HETATM    2  O2  UNK     1      17.731   4.261  32.164  1.00  0.00    -0.287 OA
HETATM    3  C1  UNK     1      18.929   0.868  32.036  1.00  0.00     0.101 A 
HETATM    4  C2  UNK     1      19.467  -0.101  31.158  1.00  0.00     0.009 A 
HETATM    5  C3  UNK     1      18.594   2.141  31.571  1.00  0.00     0.049 A 
HETATM    6  C4  UNK     1      19.660   0.248  29.798  1.00  0.00    -0.023 A 
HETATM    7  C5  UNK     1      18.785   2.479  30.233  1.00  0.00     0.019 A 
HETATM    8  C6  UNK     1      19.315   1.535  29.354  1.00  0.00     0.013 A 
HETATM    9  C7  UNK     1      18.221   1.432  34.239  1.00  0.00     0.097 A 
HETATM   10  C8  UNK     1      18.039   3.129  32.510  1.00  0.00     0.187 A 
HETATM   11  C9  UNK     1      19.825  -1.402  31.572  1.00  0.00     0.015 A 
HETATM   12  C10 UNK     1      17.871   2.683  33.906  1.00  0.00     0.094 A 
HETATM   13  C11 UNK     1      20.194  -0.697  28.906  1.00  0.00     0.012 A 
HETATM   14  C13 UNK     1      20.354  -2.328  30.673  1.00  0.00     0.001 A 
HETATM   15  C14 UNK     1      20.539  -1.976  29.341  1.00  0.00     0.001 A 
ENDROOT
BRANCH   9  16
HETATM   16  C12 UNK     1      18.086   0.926  35.620  1.00  0.00     0.038 A 
HETATM   17  S1  UNK     1      18.320  -0.744  35.942  1.00  0.00    -0.099 SA
HETATM   18  C17 UNK     1      18.016  -0.530  37.613  1.00  0.00     0.050 A 
HETATM   19  C16 UNK     1      17.742   0.783  37.925  1.00  0.00     0.008 A 
HETATM   20  C15 UNK     1      17.782   1.625  36.775  1.00  0.00     0.022 A 
ENDBRANCH   9  16
TORSDOF 1
ENDMDL
MODEL 2
REMARK VINA RESULT:      -8.6     23.821     25.998
REMARK  1 active torsions:
REMARK  status: ('A' for Active; 'I' for Inactive)
REMARK    1  A    between atoms: C12_15  and  C7_10 
ROOT
HETATM    1  O1  UNK     1      13.515   7.429   8.361  1.00  0.00    -0.307 OA
HETATM    2  O2  UNK     1      15.330   4.083   9.793  1.00  0.00    -0.287 OA
HETATM    3  C1  UNK     1      14.723   7.546   9.012  1.00  0.00     0.101 A 
HETATM    4  C2  UNK     1      15.274   8.841   9.146  1.00  0.00     0.009 A 
HETATM    5  C3  UNK     1      15.390   6.432   9.526  1.00  0.00     0.049 A 
HETATM    6  C4  UNK     1      16.518   8.984   9.812  1.00  0.00    -0.023 A 
HETATM    7  C5  UNK     1      16.611   6.579  10.180  1.00  0.00     0.019 A 
HETATM    8  C6  UNK     1      17.169   7.849  10.321  1.00  0.00     0.013 A 
HETATM    9  C7  UNK     1      12.945   6.176   8.217  1.00  0.00     0.097 A 
HETATM   10  C8  UNK     1      14.792   5.096   9.368  1.00  0.00     0.187 A 
HETATM   11  C9  UNK     1      14.647  10.001   8.645  1.00  0.00     0.015 A 
HETATM   12  C10 UNK     1      13.498   5.038   8.663  1.00  0.00     0.094 A 
HETATM   13  C11 UNK     1      17.087  10.260   9.957  1.00  0.00     0.012 A 
HETATM   14  C13 UNK     1      15.226  11.261   8.798  1.00  0.00     0.001 A 
HETATM   15  C14 UNK     1      16.445  11.391   9.452  1.00  0.00     0.001 A 
ENDROOT
BRANCH   9  16
HETATM   16  C12 UNK     1      11.656   6.185   7.496  1.00  0.00     0.038 A 
HETATM   17  S1  UNK     1      10.185   6.146   8.381  1.00  0.00    -0.099 SA
HETATM   18  C17 UNK     1       9.248   6.179   6.948  1.00  0.00     0.050 A 
HETATM   19  C16 UNK     1      10.033   6.219   5.817  1.00  0.00     0.008 A 
HETATM   20  C15 UNK     1      11.423   6.222   6.132  1.00  0.00     0.022 A 
ENDBRANCH   9  16
TORSDOF 1
ENDMDL
MODEL 3
REMARK VINA RESULT:      -8.5      1.735      3.862
REMARK  1 active torsions:
REMARK  status: ('A' for Active; 'I' for Inactive)
REMARK    1  A    between atoms: C12_15  and  C7_10 
ROOT
HETATM    1  O1  UNK     1      19.054  -0.399  33.434  1.00  0.00    -0.307 OA
HETATM    2  O2  UNK     1      21.263  -3.681  32.490  1.00  0.00    -0.287 OA
HETATM    3  C1  UNK     1      19.497  -0.562  32.140  1.00  0.00     0.101 A 
HETATM    4  C2  UNK     1      19.151   0.433  31.198  1.00  0.00     0.009 A 
HETATM    5  C3  UNK     1      20.260  -1.667  31.759  1.00  0.00     0.049 A 
HETATM    6  C4  UNK     1      19.596   0.286  29.859  1.00  0.00    -0.023 A 
HETATM    7  C5  UNK     1      20.695  -1.807  30.444  1.00  0.00     0.019 A 
HETATM    8  C6  UNK     1      20.364  -0.834  29.502  1.00  0.00     0.013 A 
HETATM    9  C7  UNK     1      19.378  -1.354  34.383  1.00  0.00     0.097 A 
HETATM   10  C8  UNK     1      20.601  -2.689  32.763  1.00  0.00     0.187 A 
HETATM   11  C9  UNK     1      18.381   1.570  31.524  1.00  0.00     0.015 A 
HETATM   12  C10 UNK     1      20.098  -2.457  34.130  1.00  0.00     0.094 A 
HETATM   13  C11 UNK     1      19.265   1.261  28.904  1.00  0.00     0.012 A 
HETATM   14  C13 UNK     1      18.062   2.529  30.563  1.00  0.00     0.001 A 
HETATM   15  C14 UNK     1      18.502   2.375  29.254  1.00  0.00     0.001 A 
ENDROOT
BRANCH   9  16
HETATM   16  C12 UNK     1      18.838  -1.067  35.727  1.00  0.00     0.038 A 
HETATM   17  S1  UNK     1      18.215   0.494  36.080  1.00  0.00    -0.099 SA
HETATM   18  C17 UNK     1      17.827   0.046  37.686  1.00  0.00     0.050 A 
HETATM   19  C16 UNK     1      18.162  -1.263  37.954  1.00  0.00     0.008 A 
HETATM   20  C15 UNK     1      18.746  -1.906  36.824  1.00  0.00     0.022 A 
ENDBRANCH   9  16
TORSDOF 1
ENDMDL
MODEL 4
REMARK VINA RESULT:      -8.4      1.628      3.599
REMARK  1 active torsions:
REMARK  status: ('A' for Active; 'I' for Inactive)
REMARK    1  A    between atoms: C12_15  and  C7_10 
ROOT
HETATM    1  O1  UNK     1      18.904   0.015  33.566  1.00  0.00    -0.307 OA
HETATM    2  O2  UNK     1      20.739  -3.610  33.724  1.00  0.00    -0.287 OA
HETATM    3  C1  UNK     1      19.379  -0.549  32.403  1.00  0.00     0.101 A 
HETATM    4  C2  UNK     1      19.196   0.172  31.201  1.00  0.00     0.009 A 
HETATM    5  C3  UNK     1      20.019  -1.790  32.398  1.00  0.00     0.049 A 
HETATM    6  C4  UNK     1      19.676  -0.391  29.992  1.00  0.00    -0.023 A 
HETATM    7  C5  UNK     1      20.489  -2.338  31.207  1.00  0.00     0.019 A 
HETATM    8  C6  UNK     1      20.318  -1.639  30.012  1.00  0.00     0.013 A 
HETATM    9  C7  UNK     1      19.070  -0.663  34.762  1.00  0.00     0.097 A 
HETATM   10  C8  UNK     1      20.191  -2.519  33.665  1.00  0.00     0.187 A 
HETATM   11  C9  UNK     1      18.555   1.428  31.146  1.00  0.00     0.015 A 
HETATM   12  C10 UNK     1      19.662  -1.861  34.875  1.00  0.00     0.094 A 
HETATM   13  C11 UNK     1      19.506   0.307  28.784  1.00  0.00     0.012 A 
HETATM   14  C13 UNK     1      18.395   2.107  29.937  1.00  0.00     0.001 A 
HETATM   15  C14 UNK     1      18.869   1.547  28.758  1.00  0.00     0.001 A 
ENDROOT
BRANCH   9  16
HETATM   16  C12 UNK     1      18.513   0.045  35.932  1.00  0.00     0.038 A 
HETATM   17  S1  UNK     1      17.885  -0.857  37.253  1.00  0.00    -0.099 SA
HETATM   18  C17 UNK     1      17.475   0.566  38.111  1.00  0.00     0.050 A 
HETATM   19  C16 UNK     1      17.805   1.706  37.413  1.00  0.00     0.008 A 
HETATM   20  C15 UNK     1      18.404   1.406  36.155  1.00  0.00     0.022 A 
ENDBRANCH   9  16
TORSDOF 1
ENDMDL
MODEL 5
REMARK VINA RESULT:      -8.3      2.484      4.556
REMARK  1 active torsions:
REMARK  status: ('A' for Active; 'I' for Inactive)
REMARK    1  A    between atoms: C12_15  and  C7_10 
ROOT
HETATM    1  O1  UNK     1      18.837   2.263  31.617  1.00  0.00    -0.307 OA
HETATM    2  O2  UNK     1      17.674   1.273  35.386  1.00  0.00    -0.287 OA
HETATM    3  C1  UNK     1      18.968   0.959  32.041  1.00  0.00     0.101 A 
HETATM    4  C2  UNK     1      19.505   0.023  31.127  1.00  0.00     0.009 A 
HETATM    5  C3  UNK     1      18.587   0.562  33.324  1.00  0.00     0.049 A 
HETATM    6  C4  UNK     1      19.648  -1.325  31.541  1.00  0.00    -0.023 A 
HETATM    7  C5  UNK     1      18.731  -0.763  33.726  1.00  0.00     0.019 A 
HETATM    8  C6  UNK     1      19.259  -1.699  32.838  1.00  0.00     0.013 A 
HETATM    9  C7  UNK     1      18.319   3.206  32.489  1.00  0.00     0.097 A 
HETATM   10  C8  UNK     1      18.029   1.560  34.251  1.00  0.00     0.187 A 
HETATM   11  C9  UNK     1      19.904   0.366  29.817  1.00  0.00     0.015 A 
HETATM   12  C10 UNK     1      17.915   2.939  33.739  1.00  0.00     0.094 A 
HETATM   13  C11 UNK     1      20.177  -2.274  30.651  1.00  0.00     0.012 A 
HETATM   14  C13 UNK     1      20.429  -0.590  28.947  1.00  0.00     0.001 A 
HETATM   15  C14 UNK     1      20.565  -1.908  29.363  1.00  0.00     0.001 A 
ENDROOT
BRANCH   9  16
HETATM   16  C12 UNK     1      18.224   4.563  31.913  1.00  0.00     0.038 A 
HETATM   17  S1  UNK     1      19.096   4.945  30.483  1.00  0.00    -0.099 SA
HETATM   18  C17 UNK     1      18.505   6.551  30.476  1.00  0.00     0.050 A 
HETATM   19  C16 UNK     1      17.662   6.798  31.537  1.00  0.00     0.008 A 
HETATM   20  C15 UNK     1      17.499   5.651  32.367  1.00  0.00     0.022 A 
ENDBRANCH   9  16
TORSDOF 1
ENDMDL
MODEL 6
REMARK VINA RESULT:      -8.2      1.847      5.908
REMARK  1 active torsions:
REMARK  status: ('A' for Active; 'I' for Inactive)
REMARK    1  A    between atoms: C12_15  and  C7_10 
ROOT
HETATM    1  O1  UNK     1      18.965  -0.037  33.195  1.00  0.00    -0.307 OA
HETATM    2  O2  UNK     1      17.839   3.866  33.010  1.00  0.00    -0.287 OA
HETATM    3  C1  UNK     1      18.511   0.586  34.336  1.00  0.00     0.101 A 
HETATM    4  C2  UNK     1      18.457  -0.178  35.524  1.00  0.00     0.009 A 
HETATM    5  C3  UNK     1      18.113   1.924  34.332  1.00  0.00     0.049 A 
HETATM    6  C4  UNK     1      17.991   0.443  36.710  1.00  0.00    -0.023 A 
HETATM    7  C5  UNK     1      17.656   2.530  35.500  1.00  0.00     0.019 A 
HETATM    8  C6  UNK     1      17.598   1.791  36.681  1.00  0.00     0.013 A 
HETATM    9  C7  UNK     1      19.035   0.683  32.015  1.00  0.00     0.097 A 
HETATM   10  C8  UNK     1      18.177   2.692  33.078  1.00  0.00     0.187 A 
HETATM   11  C9  UNK     1      18.844  -1.534  35.587  1.00  0.00     0.015 A 
HETATM   12  C10 UNK     1      18.673   1.969  31.892  1.00  0.00     0.094 A 
HETATM   13  C11 UNK     1      17.928  -0.295  37.904  1.00  0.00     0.012 A 
HETATM   14  C13 UNK     1      18.775  -2.252  36.782  1.00  0.00     0.001 A 
HETATM   15  C14 UNK     1      18.316  -1.633  37.938  1.00  0.00     0.001 A 
ENDROOT
BRANCH   9  16
HETATM   16  C12 UNK     1      19.531  -0.100  30.865  1.00  0.00     0.038 A 
HETATM   17  S1  UNK     1      19.480   0.577  29.288  1.00  0.00    -0.099 SA
HETATM   18  C17 UNK     1      20.169  -0.828  28.593  1.00  0.00     0.050 A 
HETATM   19  C16 UNK     1      20.434  -1.796  29.537  1.00  0.00     0.008 A 
HETATM   20  C15 UNK     1      20.066  -1.377  30.849  1.00  0.00     0.022 A 
ENDBRANCH   9  16
TORSDOF 1
ENDMDL
MODEL 7
REMARK VINA RESULT:      -8.2      1.994      4.588
REMARK  1 active torsions:
REMARK  status: ('A' for Active; 'I' for Inactive)
REMARK    1  A    between atoms: C12_15  and  C7_10 
ROOT
HETATM    1  O1  UNK     1      18.135   2.690  34.091  1.00  0.00    -0.307 OA
HETATM    2  O2  UNK     1      18.974   0.100  31.072  1.00  0.00    -0.287 OA
HETATM    3  C1  UNK     1      18.327   3.181  32.819  1.00  0.00     0.101 A 
HETATM    4  C2  UNK     1      18.218   4.578  32.630  1.00  0.00     0.009 A 
HETATM    5  C3  UNK     1      18.620   2.339  31.744  1.00  0.00     0.049 A 
HETATM    6  C4  UNK     1      18.411   5.104  31.328  1.00  0.00    -0.023 A 
HETATM    7  C5  UNK     1      18.810   2.861  30.468  1.00  0.00     0.019 A 
HETATM    8  C6  UNK     1      18.706   4.237  30.264  1.00  0.00     0.013 A 
HETATM    9  C7  UNK     1      18.239   1.328  34.312  1.00  0.00     0.097 A 
HETATM   10  C8  UNK     1      18.725   0.888  31.973  1.00  0.00     0.187 A 
HETATM   11  C9  UNK     1      17.921   5.476  33.677  1.00  0.00     0.015 A 
HETATM   12  C10 UNK     1      18.508   0.426  33.357  1.00  0.00     0.094 A 
HETATM   13  C11 UNK     1      18.307   6.489  31.114  1.00  0.00     0.012 A 
HETATM   14  C13 UNK     1      17.822   6.849  33.447  1.00  0.00     0.001 A 
HETATM   15  C14 UNK     1      18.014   7.354  32.168  1.00  0.00     0.001 A 
ENDROOT
BRANCH   9  16
HETATM   16  C12 UNK     1      18.004   0.930  35.715  1.00  0.00     0.038 A 
HETATM   17  S1  UNK     1      18.051  -0.731  36.149  1.00  0.00    -0.099 SA
HETATM   18  C17 UNK     1      17.712  -0.378  37.789  1.00  0.00     0.050 A 
HETATM   19  C16 UNK     1      17.565   0.974  38.008  1.00  0.00     0.008 A 
HETATM   20  C15 UNK     1      17.733   1.730  36.812  1.00  0.00     0.022 A 
ENDBRANCH   9  16
TORSDOF 1
ENDMDL
MODEL 8
REMARK VINA RESULT:      -8.1      2.263      6.651
REMARK  1 active torsions:
REMARK  status: ('A' for Active; 'I' for Inactive)
REMARK    1  A    between atoms: C12_15  and  C7_10 
ROOT
HETATM    1  O1  UNK     1      18.720  -0.012  32.883  1.00  0.00    -0.307 OA
HETATM    2  O2  UNK     1      21.244  -3.174  32.479  1.00  0.00    -0.287 OA
HETATM    3  C1  UNK     1      18.978  -0.810  33.975  1.00  0.00     0.101 A 
HETATM    4  C2  UNK     1      18.344  -0.479  35.195  1.00  0.00     0.009 A 
HETATM    5  C3  UNK     1      19.834  -1.910  33.895  1.00  0.00     0.049 A 
HETATM    6  C4  UNK     1      18.595  -1.287  36.333  1.00  0.00    -0.023 A 
HETATM    7  C5  UNK     1      20.077  -2.701  35.015  1.00  0.00     0.019 A 
HETATM    8  C6  UNK     1      19.459  -2.389  36.226  1.00  0.00     0.013 A 
HETATM    9  C7  UNK     1      19.321  -0.311  31.672  1.00  0.00     0.097 A 
HETATM   10  C8  UNK     1      20.482  -2.227  32.612  1.00  0.00     0.187 A 
HETATM   11  C9  UNK     1      17.471   0.621  35.336  1.00  0.00     0.015 A 
HETATM   12  C10 UNK     1      20.165  -1.335  31.480  1.00  0.00     0.094 A 
HETATM   13  C11 UNK     1      17.977  -0.979  37.556  1.00  0.00     0.012 A 
HETATM   14  C13 UNK     1      16.866   0.913  36.559  1.00  0.00     0.001 A 
HETATM   15  C14 UNK     1      17.119   0.115  37.668  1.00  0.00     0.001 A 
ENDROOT
BRANCH   9  16
HETATM   16  C12 UNK     1      18.970   0.624  30.584  1.00  0.00     0.038 A 
HETATM   17  S1  UNK     1      18.585   2.256  30.954  1.00  0.00    -0.099 SA
HETATM   18  C17 UNK     1      18.321   2.634  29.306  1.00  0.00     0.050 A 
HETATM   19  C16 UNK     1      18.519   1.545  28.486  1.00  0.00     0.008 A 
HETATM   20  C15 UNK     1      18.893   0.384  29.223  1.00  0.00     0.022 A 
ENDBRANCH   9  16
TORSDOF 1
ENDMDL
MODEL 9
REMARK VINA RESULT:      -8.1      2.649      5.828
REMARK  1 active torsions:
REMARK  status: ('A' for Active; 'I' for Inactive)
REMARK    1  A    between atoms: C12_15  and  C7_10 
ROOT
HETATM    1  O1  UNK     1      18.042   3.191  33.828  1.00  0.00    -0.307 OA
HETATM    2  O2  UNK     1      18.826   1.119  30.418  1.00  0.00    -0.287 OA
HETATM    3  C1  UNK     1      18.192   1.823  33.892  1.00  0.00     0.101 A 
HETATM    4  C2  UNK     1      18.066   1.207  35.158  1.00  0.00     0.009 A 
HETATM    5  C3  UNK     1      18.460   1.060  32.753  1.00  0.00     0.049 A 
HETATM    6  C4  UNK     1      18.217  -0.200  35.246  1.00  0.00    -0.023 A 
HETATM    7  C5  UNK     1      18.606  -0.321  32.846  1.00  0.00     0.019 A 
HETATM    8  C6  UNK     1      18.484  -0.945  34.087  1.00  0.00     0.013 A 
HETATM    9  C7  UNK     1      18.155   3.826  32.603  1.00  0.00     0.097 A 
HETATM   10  C8  UNK     1      18.589   1.732  31.449  1.00  0.00     0.187 A 
HETATM   11  C9  UNK     1      17.798   1.926  36.342  1.00  0.00     0.015 A 
HETATM   12  C10 UNK     1      18.417   3.197  31.447  1.00  0.00     0.094 A 
HETATM   13  C11 UNK     1      18.097  -0.836  36.493  1.00  0.00     0.012 A 
HETATM   14  C13 UNK     1      17.682   1.279  37.572  1.00  0.00     0.001 A 
HETATM   15  C14 UNK     1      17.831  -0.101  37.648  1.00  0.00     0.001 A 
ENDROOT
BRANCH   9  16
HETATM   16  C12 UNK     1      17.981   5.291  32.671  1.00  0.00     0.038 A 
HETATM   17  S1  UNK     1      19.250   6.271  33.287  1.00  0.00    -0.099 SA
HETATM   18  C17 UNK     1      18.343   7.704  33.050  1.00  0.00     0.050 A 
HETATM   19  C16 UNK     1      17.100   7.447  32.514  1.00  0.00     0.008 A 
HETATM   20  C15 UNK     1      16.890   6.055  32.295  1.00  0.00     0.022 A 
ENDBRANCH   9  16
TORSDOF 1
ENDMDL
MODEL 10
REMARK VINA RESULT:      -8.0      2.301      7.089
REMARK  1 active torsions:
REMARK  status: ('A' for Active; 'I' for Inactive)
REMARK    1  A    between atoms: C12_15  and  C7_10 
ROOT
HETATM    1  O1  UNK     1      19.150  -0.701  33.648  1.00  0.00    -0.307 OA
HETATM    2  O2  UNK     1      20.480  -4.248  35.125  1.00  0.00    -0.287 OA
HETATM    3  C1  UNK     1      18.942  -0.996  34.977  1.00  0.00     0.101 A 
HETATM    4  C2  UNK     1      18.270  -0.034  35.766  1.00  0.00     0.009 A 
HETATM    5  C3  UNK     1      19.374  -2.199  35.538  1.00  0.00     0.049 A 
HETATM    6  C4  UNK     1      18.046  -0.317  37.137  1.00  0.00    -0.023 A 
HETATM    7  C5  UNK     1      19.151  -2.472  36.885  1.00  0.00     0.019 A 
HETATM    8  C6  UNK     1      18.489  -1.534  37.677  1.00  0.00     0.013 A 
HETATM    9  C7  UNK     1      19.800  -1.623  32.846  1.00  0.00     0.097 A 
HETATM   10  C8  UNK     1      20.074  -3.179  34.691  1.00  0.00     0.187 A 
HETATM   11  C9  UNK     1      17.813   1.199  35.254  1.00  0.00     0.015 A 
HETATM   12  C10 UNK     1      20.265  -2.805  33.277  1.00  0.00     0.094 A 
HETATM   13  C11 UNK     1      17.382   0.624  37.942  1.00  0.00     0.012 A 
HETATM   14  C13 UNK     1      17.154   2.122  36.068  1.00  0.00     0.001 A 
HETATM   15  C14 UNK     1      16.940   1.835  37.410  1.00  0.00     0.001 A 
ENDROOT
BRANCH   9  16
HETATM   16  C12 UNK     1      19.967  -1.184  31.445  1.00  0.00     0.038 A 
HETATM   17  S1  UNK     1      19.533   0.416  30.996  1.00  0.00    -0.099 SA
HETATM   18  C17 UNK     1      19.986   0.149  29.367  1.00  0.00     0.050 A 
HETATM   19  C16 UNK     1      20.458  -1.129  29.163  1.00  0.00     0.008 A 
HETATM   20  C15 UNK     1      20.447  -1.900  30.362  1.00  0.00     0.022 A 
ENDBRANCH   9  16
TORSDOF 1
ENDMDL
