MODEL 1
REMARK VINA RESULT:      -9.3      0.000      0.000
REMARK  4 active torsions:
REMARK  status: ('A' for Active; 'I' for Inactive)
REMARK    1  A    between atoms: C4_13  and  O1_1 
REMARK    2  A    between atoms: C8_17  and  O1_1 
REMARK    3  A    between atoms: C3_12  and  N1_5 
REMARK       I    between atoms: C17_26  and  N5_9 
REMARK    4  A    between atoms: C12_21  and  C17_26 
ROOT
HETATM    1  N1  UNK     1      18.542   2.948  29.741  1.00  0.00    -0.202 N 
HETATM    2  N2  UNK     1      17.870   3.020  28.584  1.00  0.00     0.004 NA
HETATM    3  N3  UNK     1      18.632   0.950  28.903  1.00  0.00    -0.116 NA
HETATM    4  N4  UNK     1      17.929   1.795  28.076  1.00  0.00     0.020 NA
HETATM    5  C8  UNK     1      18.987   1.693  29.902  1.00  0.00     0.286 A 
ENDROOT
BRANCH   5   6
HETATM    6  O1  UNK     1      19.705   1.278  30.969  1.00  0.00    -0.276 OA
BRANCH   6   7
HETATM    7  C4  UNK     1      19.129   0.667  32.041  1.00  0.00     0.082 A 
HETATM    8  C5  UNK     1      18.640   1.431  33.099  1.00  0.00     0.075 A 
HETATM    9  C2  UNK     1      18.054   0.783  34.185  1.00  0.00     0.092 A 
HETATM   10  C1  UNK     1      17.944  -0.604  34.237  1.00  0.00    -0.002 A 
HETATM   11  O2  UNK     1      17.571   1.583  35.240  1.00  0.00    -0.275 OA
HETATM   12  C6  UNK     1      18.436  -1.362  33.173  1.00  0.00     0.017 A 
HETATM   13  C11 UNK     1      17.321  -1.213  35.401  1.00  0.00     0.020 A 
HETATM   14  C7  UNK     1      19.027  -0.725  32.077  1.00  0.00     0.038 A 
HETATM   15  C15 UNK     1      16.865  -0.449  36.397  1.00  0.00     0.083 A 
HETATM   16  C16 UNK     1      16.971   1.022  36.364  1.00  0.00     0.288 A 
HETATM   17  O3  UNK     1      16.548   1.710  37.286  1.00  0.00    -0.260 OA
ENDBRANCH   6   7
ENDBRANCH   5   6
BRANCH   1  18
HETATM   18  C3  UNK     1      18.698   4.051  30.568  1.00  0.00     0.058 A 
HETATM   19  C10 UNK     1      19.654   5.017  30.262  1.00  0.00     0.032 A 
HETATM   20  C14 UNK     1      19.812   6.125  31.094  1.00  0.00     0.019 A 
HETATM   21  C12 UNK     1      19.013   6.264  32.229  1.00  0.00     0.032 A 
HETATM   22  C13 UNK     1      18.057   5.295  32.532  1.00  0.00     0.019 A 
HETATM   23  C9  UNK     1      17.899   4.187  31.700  1.00  0.00     0.032 A 
BRANCH  21  24
HETATM   24  C17 UNK     1      19.178   7.419  33.097  1.00  0.00     0.249 C 
HETATM   25  O4  UNK     1      20.233   7.612  33.727  1.00  0.00    -0.268 OA
HETATM   26  N5  UNK     1      18.119   8.318  33.186  1.00  0.00    -0.366 N 
HETATM   27  H10 UNK     1      17.232   8.242  32.707  1.00  0.00     0.159 HD
HETATM   28  H11 UNK     1      18.212   9.137  33.780  1.00  0.00     0.159 HD
ENDBRANCH  21  24
ENDBRANCH   1  18
TORSDOF 4
ENDMDL
MODEL 2
REMARK VINA RESULT:      -9.3      2.665      3.729
REMARK  4 active torsions:
REMARK  status: ('A' for Active; 'I' for Inactive)
REMARK    1  A    between atoms: C4_13  and  O1_1 
REMARK    2  A    between atoms: C8_17  and  O1_1 
REMARK    3  A    between atoms: C3_12  and  N1_5 
REMARK       I    between atoms: C17_26  and  N5_9 
REMARK    4  A    between atoms: C12_21  and  C17_26 
ROOT
HETATM    1  N1  UNK     1      18.147   4.245  32.720  1.00  0.00    -0.202 N 
HETATM    2  N2  UNK     1      17.924   3.895  31.445  1.00  0.00     0.004 NA
HETATM    3  N3  UNK     1      17.764   2.111  32.772  1.00  0.00    -0.116 NA
HETATM    4  N4  UNK     1      17.691   2.589  31.484  1.00  0.00     0.020 NA
HETATM    5  C8  UNK     1      18.044   3.151  33.490  1.00  0.00     0.286 A 
ENDROOT
BRANCH   5   6
HETATM    6  O1  UNK     1      18.213   3.153  34.831  1.00  0.00    -0.276 OA
BRANCH   6   7
HETATM    7  C4  UNK     1      18.219   2.006  35.564  1.00  0.00     0.082 A 
HETATM    8  C5  UNK     1      19.044   0.946  35.193  1.00  0.00     0.075 A 
HETATM    9  C2  UNK     1      19.032  -0.218  35.960  1.00  0.00     0.092 A 
HETATM   10  C1  UNK     1      18.221  -0.347  37.084  1.00  0.00    -0.002 A 
HETATM   11  O2  UNK     1      19.876  -1.273  35.558  1.00  0.00    -0.275 OA
HETATM   12  C6  UNK     1      17.398   0.721  37.449  1.00  0.00     0.017 A 
HETATM   13  C11 UNK     1      18.260  -1.589  37.836  1.00  0.00     0.020 A 
HETATM   14  C7  UNK     1      17.398   1.894  36.689  1.00  0.00     0.038 A 
HETATM   15  C15 UNK     1      19.062  -2.584  37.450  1.00  0.00     0.083 A 
HETATM   16  C16 UNK     1      19.930  -2.472  36.263  1.00  0.00     0.288 A 
HETATM   17  O3  UNK     1      20.662  -3.395  35.921  1.00  0.00    -0.260 OA
ENDBRANCH   6   7
ENDBRANCH   5   6
BRANCH   1  18
HETATM   18  C3  UNK     1      18.432   5.554  33.082  1.00  0.00     0.058 A 
HETATM   19  C10 UNK     1      17.395   6.416  33.431  1.00  0.00     0.032 A 
HETATM   20  C14 UNK     1      17.680   7.732  33.794  1.00  0.00     0.019 A 
HETATM   21  C12 UNK     1      19.002   8.181  33.810  1.00  0.00     0.032 A 
HETATM   22  C13 UNK     1      20.036   7.313  33.461  1.00  0.00     0.019 A 
HETATM   23  C9  UNK     1      19.751   5.997  33.097  1.00  0.00     0.032 A 
BRANCH  21  24
HETATM   24  C17 UNK     1      19.299   9.552  34.188  1.00  0.00     0.249 C 
HETATM   25  O4  UNK     1      18.427  10.439  34.153  1.00  0.00    -0.268 OA
HETATM   26  N5  UNK     1      20.592   9.841  34.613  1.00  0.00    -0.366 N 
HETATM   27  H10 UNK     1      21.358   9.183  34.677  1.00  0.00     0.159 HD
HETATM   28  H11 UNK     1      20.824  10.790  34.890  1.00  0.00     0.159 HD
ENDBRANCH  21  24
ENDBRANCH   1  18
TORSDOF 4
ENDMDL
MODEL 3
REMARK VINA RESULT:      -9.1      2.846      6.574
REMARK  4 active torsions:
REMARK  status: ('A' for Active; 'I' for Inactive)
REMARK    1  A    between atoms: C4_13  and  O1_1 
REMARK    2  A    between atoms: C8_17  and  O1_1 
REMARK    3  A    between atoms: C3_12  and  N1_5 
REMARK       I    between atoms: C17_26  and  N5_9 
REMARK    4  A    between atoms: C12_21  and  C17_26 
ROOT
HETATM    1  N1  UNK     1      19.839  -0.658  30.326  1.00  0.00    -0.202 N 
HETATM    2  N2  UNK     1      20.604  -1.172  29.354  1.00  0.00     0.004 NA
HETATM    3  N3  UNK     1      19.386   0.517  28.560  1.00  0.00    -0.116 NA
HETATM    4  N4  UNK     1      20.323  -0.450  28.277  1.00  0.00     0.020 NA
HETATM    5  C8  UNK     1      19.120   0.354  29.817  1.00  0.00     0.286 A 
ENDROOT
BRANCH   5   6
HETATM    6  O1  UNK     1      18.242   1.091  30.532  1.00  0.00    -0.276 OA
BRANCH   6   7
HETATM    7  C4  UNK     1      18.399   2.431  30.717  1.00  0.00     0.082 A 
HETATM    8  C5  UNK     1      18.095   3.006  31.949  1.00  0.00     0.075 A 
HETATM    9  C2  UNK     1      18.264   4.379  32.114  1.00  0.00     0.092 A 
HETATM   10  C1  UNK     1      18.730   5.189  31.081  1.00  0.00    -0.002 A 
HETATM   11  O2  UNK     1      17.947   4.931  33.372  1.00  0.00    -0.275 OA
HETATM   12  C6  UNK     1      19.032   4.605  29.849  1.00  0.00     0.017 A 
HETATM   13  C11 UNK     1      18.882   6.613  31.323  1.00  0.00     0.020 A 
HETATM   14  C7  UNK     1      18.866   3.228  29.669  1.00  0.00     0.038 A 
HETATM   15  C15 UNK     1      18.580   7.129  32.517  1.00  0.00     0.083 A 
HETATM   16  C16 UNK     1      18.085   6.292  33.626  1.00  0.00     0.288 A 
HETATM   17  O3  UNK     1      17.812   6.780  34.717  1.00  0.00    -0.260 OA
ENDBRANCH   6   7
ENDBRANCH   5   6
BRANCH   1  18
HETATM   18  C3  UNK     1      19.858  -1.161  31.619  1.00  0.00     0.058 A 
HETATM   19  C10 UNK     1      18.917  -0.721  32.547  1.00  0.00     0.032 A 
HETATM   20  C14 UNK     1      18.937  -1.225  33.847  1.00  0.00     0.019 A 
HETATM   21  C12 UNK     1      19.897  -2.169  34.215  1.00  0.00     0.032 A 
HETATM   22  C13 UNK     1      20.836  -2.608  33.282  1.00  0.00     0.019 A 
HETATM   23  C9  UNK     1      20.816  -2.103  31.982  1.00  0.00     0.032 A 
BRANCH  21  24
HETATM   24  C17 UNK     1      19.917  -2.695  35.570  1.00  0.00     0.249 C 
HETATM   25  O4  UNK     1      20.961  -3.145  36.075  1.00  0.00    -0.268 OA
HETATM   26  N5  UNK     1      18.730  -2.661  36.296  1.00  0.00    -0.366 N 
HETATM   27  H10 UNK     1      17.841  -2.309  35.966  1.00  0.00     0.159 HD
HETATM   28  H11 UNK     1      18.720  -3.015  37.247  1.00  0.00     0.159 HD
ENDBRANCH  21  24
ENDBRANCH   1  18
TORSDOF 4
ENDMDL
MODEL 4
REMARK VINA RESULT:      -9.1      2.863      6.743
REMARK  4 active torsions:
REMARK  status: ('A' for Active; 'I' for Inactive)
REMARK    1  A    between atoms: C4_13  and  O1_1 
REMARK    2  A    between atoms: C8_17  and  O1_1 
REMARK    3  A    between atoms: C3_12  and  N1_5 
REMARK       I    between atoms: C17_26  and  N5_9 
REMARK    4  A    between atoms: C12_21  and  C17_26 
ROOT
HETATM    1  N1  UNK     1      18.779   1.504  29.763  1.00  0.00    -0.202 N 
HETATM    2  N2  UNK     1      18.213   1.284  28.568  1.00  0.00     0.004 NA
HETATM    3  N3  UNK     1      18.292   3.471  28.991  1.00  0.00    -0.116 NA
HETATM    4  N4  UNK     1      17.917   2.491  28.102  1.00  0.00     0.020 NA
HETATM    5  C8  UNK     1      18.812   2.826  29.986  1.00  0.00     0.286 A 
ENDROOT
BRANCH   5   6
HETATM    6  O1  UNK     1      19.320   3.391  31.104  1.00  0.00    -0.276 OA
BRANCH   6   7
HETATM    7  C4  UNK     1      18.904   4.605  31.559  1.00  0.00     0.082 A 
HETATM    8  C5  UNK     1      17.562   4.809  31.874  1.00  0.00     0.075 A 
HETATM    9  C2  UNK     1      17.159   6.059  32.338  1.00  0.00     0.092 A 
HETATM   10  C1  UNK     1      18.062   7.108  32.495  1.00  0.00    -0.002 A 
HETATM   11  O2  UNK     1      15.795   6.234  32.647  1.00  0.00    -0.275 OA
HETATM   12  C6  UNK     1      19.405   6.895  32.176  1.00  0.00     0.017 A 
HETATM   13  C11 UNK     1      17.573   8.386  32.982  1.00  0.00     0.020 A 
HETATM   14  C7  UNK     1      19.823   5.646  31.709  1.00  0.00     0.038 A 
HETATM   15  C15 UNK     1      16.279   8.544  33.274  1.00  0.00     0.083 A 
HETATM   16  C16 UNK     1      15.304   7.449  33.116  1.00  0.00     0.288 A 
HETATM   17  O3  UNK     1      14.119   7.609  33.388  1.00  0.00    -0.260 OA
ENDBRANCH   6   7
ENDBRANCH   5   6
BRANCH   1  18
HETATM   18  C3  UNK     1      19.228   0.464  30.565  1.00  0.00     0.058 A 
HETATM   19  C10 UNK     1      18.613   0.222  31.792  1.00  0.00     0.032 A 
HETATM   20  C14 UNK     1      19.065  -0.822  32.599  1.00  0.00     0.019 A 
HETATM   21  C12 UNK     1      20.128  -1.621  32.176  1.00  0.00     0.032 A 
HETATM   22  C13 UNK     1      20.739  -1.375  30.947  1.00  0.00     0.019 A 
HETATM   23  C9  UNK     1      20.288  -0.331  30.140  1.00  0.00     0.032 A 
BRANCH  21  24
HETATM   24  C17 UNK     1      20.599  -2.709  33.017  1.00  0.00     0.249 C 
HETATM   25  O4  UNK     1      21.429  -3.537  32.603  1.00  0.00    -0.268 OA
HETATM   26  N5  UNK     1      20.103  -2.785  34.316  1.00  0.00    -0.366 N 
HETATM   27  H10 UNK     1      19.433  -2.153  34.735  1.00  0.00     0.159 HD
HETATM   28  H11 UNK     1      20.422  -3.531  34.926  1.00  0.00     0.159 HD
ENDBRANCH  21  24
ENDBRANCH   1  18
TORSDOF 4
ENDMDL
MODEL 5
REMARK VINA RESULT:      -8.9      2.770      7.120
REMARK  4 active torsions:
REMARK  status: ('A' for Active; 'I' for Inactive)
REMARK    1  A    between atoms: C4_13  and  O1_1 
REMARK    2  A    between atoms: C8_17  and  O1_1 
REMARK    3  A    between atoms: C3_12  and  N1_5 
REMARK       I    between atoms: C17_26  and  N5_9 
REMARK    4  A    between atoms: C12_21  and  C17_26 
ROOT
HETATM    1  N1  UNK     1      18.375   2.063  32.573  1.00  0.00    -0.202 N 
HETATM    2  N2  UNK     1      18.896   1.368  31.552  1.00  0.00     0.004 NA
HETATM    3  N3  UNK     1      18.291   3.401  30.868  1.00  0.00    -0.116 NA
HETATM    4  N4  UNK     1      18.841   2.191  30.513  1.00  0.00     0.020 NA
HETATM    5  C8  UNK     1      18.022   3.278  32.129  1.00  0.00     0.286 A 
ENDROOT
BRANCH   5   6
HETATM    6  O1  UNK     1      17.463   4.233  32.906  1.00  0.00    -0.276 OA
BRANCH   6   7
HETATM    7  C4  UNK     1      18.121   5.379  33.235  1.00  0.00     0.082 A 
HETATM    8  C5  UNK     1      17.451   6.600  33.205  1.00  0.00     0.075 A 
HETATM    9  C2  UNK     1      18.145   7.760  33.545  1.00  0.00     0.092 A 
HETATM   10  C1  UNK     1      19.486   7.728  33.916  1.00  0.00    -0.002 A 
HETATM   11  O2  UNK     1      17.440   8.980  33.503  1.00  0.00    -0.275 OA
HETATM   12  C6  UNK     1      20.150   6.500  33.944  1.00  0.00     0.017 A 
HETATM   13  C11 UNK     1      20.148   8.975  34.259  1.00  0.00     0.020 A 
HETATM   14  C7  UNK     1      19.467   5.329  33.603  1.00  0.00     0.038 A 
HETATM   15  C15 UNK     1      19.474  10.127  34.217  1.00  0.00     0.083 A 
HETATM   16  C16 UNK     1      18.053  10.187  33.827  1.00  0.00     0.288 A 
HETATM   17  O3  UNK     1      17.447  11.252  33.794  1.00  0.00    -0.260 OA
ENDBRANCH   6   7
ENDBRANCH   5   6
BRANCH   1  18
HETATM   18  C3  UNK     1      18.262   1.523  33.847  1.00  0.00     0.058 A 
HETATM   19  C10 UNK     1      18.661   2.271  34.952  1.00  0.00     0.032 A 
HETATM   20  C14 UNK     1      18.549   1.728  36.233  1.00  0.00     0.019 A 
HETATM   21  C12 UNK     1      18.038   0.441  36.403  1.00  0.00     0.032 A 
HETATM   22  C13 UNK     1      17.639  -0.303  35.293  1.00  0.00     0.019 A 
HETATM   23  C9  UNK     1      17.751   0.239  34.012  1.00  0.00     0.032 A 
BRANCH  21  24
HETATM   24  C17 UNK     1      17.921  -0.124  37.737  1.00  0.00     0.249 C 
HETATM   25  O4  UNK     1      17.932   0.597  38.750  1.00  0.00    -0.268 OA
HETATM   26  N5  UNK     1      17.777  -1.504  37.845  1.00  0.00    -0.366 N 
HETATM   27  H10 UNK     1      17.753  -2.162  37.077  1.00  0.00     0.159 HD
HETATM   28  H11 UNK     1      17.687  -1.923  38.766  1.00  0.00     0.159 HD
ENDBRANCH  21  24
ENDBRANCH   1  18
TORSDOF 4
ENDMDL
MODEL 6
REMARK VINA RESULT:      -8.8      4.198      8.306
REMARK  4 active torsions:
REMARK  status: ('A' for Active; 'I' for Inactive)
REMARK    1  A    between atoms: C4_13  and  O1_1 
REMARK    2  A    between atoms: C8_17  and  O1_1 
REMARK    3  A    between atoms: C3_12  and  N1_5 
REMARK       I    between atoms: C17_26  and  N5_9 
REMARK    4  A    between atoms: C12_21  and  C17_26 
ROOT
HETATM    1  N1  UNK     1      19.214   6.526  32.798  1.00  0.00    -0.202 N 
HETATM    2  N2  UNK     1      20.461   6.954  33.039  1.00  0.00     0.004 NA
HETATM    3  N3  UNK     1      18.993   8.181  34.182  1.00  0.00    -0.116 NA
HETATM    4  N4  UNK     1      20.319   7.967  33.885  1.00  0.00     0.020 NA
HETATM    5  C8  UNK     1      18.357   7.283  33.499  1.00  0.00     0.286 A 
ENDROOT
BRANCH   5   6
HETATM    6  O1  UNK     1      17.016   7.118  33.483  1.00  0.00    -0.276 OA
BRANCH   6   7
HETATM    7  C4  UNK     1      16.153   8.167  33.586  1.00  0.00     0.082 A 
HETATM    8  C5  UNK     1      15.910   8.750  34.827  1.00  0.00     0.075 A 
HETATM    9  C2  UNK     1      15.023   9.822  34.907  1.00  0.00     0.092 A 
HETATM   10  C1  UNK     1      14.377  10.324  33.781  1.00  0.00    -0.002 A 
HETATM   11  O2  UNK     1      14.796  10.389  36.178  1.00  0.00    -0.275 OA
HETATM   12  C6  UNK     1      14.627   9.733  32.540  1.00  0.00     0.017 A 
HETATM   13  C11 UNK     1      13.465  11.443  33.937  1.00  0.00     0.020 A 
HETATM   14  C7  UNK     1      15.513   8.657  32.445  1.00  0.00     0.038 A 
HETATM   15  C15 UNK     1      13.255  11.976  35.144  1.00  0.00     0.083 A 
HETATM   16  C16 UNK     1      13.927  11.462  36.352  1.00  0.00     0.288 A 
HETATM   17  O3  UNK     1      13.725  11.962  37.453  1.00  0.00    -0.260 OA
ENDBRANCH   6   7
ENDBRANCH   5   6
BRANCH   1  18
HETATM   18  C3  UNK     1      18.955   5.463  31.945  1.00  0.00     0.058 A 
HETATM   19  C10 UNK     1      18.362   4.305  32.443  1.00  0.00     0.032 A 
HETATM   20  C14 UNK     1      18.103   3.235  31.586  1.00  0.00     0.019 A 
HETATM   21  C12 UNK     1      18.435   3.328  30.234  1.00  0.00     0.032 A 
HETATM   22  C13 UNK     1      19.027   4.490  29.740  1.00  0.00     0.019 A 
HETATM   23  C9  UNK     1      19.288   5.559  30.597  1.00  0.00     0.032 A 
BRANCH  21  24
HETATM   24  C17 UNK     1      18.165   2.213  29.341  1.00  0.00     0.249 C 
HETATM   25  O4  UNK     1      17.909   2.393  28.137  1.00  0.00    -0.268 OA
HETATM   26  N5  UNK     1      18.221   0.928  29.874  1.00  0.00    -0.366 N 
HETATM   27  H10 UNK     1      18.427   0.691  30.836  1.00  0.00     0.159 HD
HETATM   28  H11 UNK     1      18.044   0.132  29.270  1.00  0.00     0.159 HD
ENDBRANCH  21  24
ENDBRANCH   1  18
TORSDOF 4
ENDMDL
MODEL 7
REMARK VINA RESULT:      -8.8      6.558      8.788
REMARK  4 active torsions:
REMARK  status: ('A' for Active; 'I' for Inactive)
REMARK    1  A    between atoms: C4_13  and  O1_1 
REMARK    2  A    between atoms: C8_17  and  O1_1 
REMARK    3  A    between atoms: C3_12  and  N1_5 
REMARK       I    between atoms: C17_26  and  N5_9 
REMARK    4  A    between atoms: C12_21  and  C17_26 
ROOT
HETATM    1  N1  UNK     1      19.079  -1.667  35.811  1.00  0.00    -0.202 N 
HETATM    2  N2  UNK     1      18.194  -0.818  36.350  1.00  0.00     0.004 NA
HETATM    3  N3  UNK     1      19.018  -2.168  37.920  1.00  0.00    -0.116 NA
HETATM    4  N4  UNK     1      18.160  -1.129  37.640  1.00  0.00     0.020 NA
HETATM    5  C8  UNK     1      19.555  -2.464  36.779  1.00  0.00     0.286 A 
ENDROOT
BRANCH   5   6
HETATM    6  O1  UNK     1      20.470  -3.437  36.575  1.00  0.00    -0.276 OA
BRANCH   6   7
HETATM    7  C4  UNK     1      20.295  -4.707  37.035  1.00  0.00     0.082 A 
HETATM    8  C5  UNK     1      21.214  -5.258  37.926  1.00  0.00     0.075 A 
HETATM    9  C2  UNK     1      21.014  -6.559  38.383  1.00  0.00     0.092 A 
HETATM   10  C1  UNK     1      19.922  -7.319  37.975  1.00  0.00    -0.002 A 
HETATM   11  O2  UNK     1      21.962  -7.088  39.282  1.00  0.00    -0.275 OA
HETATM   12  C6  UNK     1      19.005  -6.759  37.083  1.00  0.00     0.017 A 
HETATM   13  C11 UNK     1      19.776  -8.669  38.492  1.00  0.00     0.020 A 
HETATM   14  C7  UNK     1      19.194  -5.455  36.614  1.00  0.00     0.038 A 
HETATM   15  C15 UNK     1      20.677  -9.164  39.344  1.00  0.00     0.083 A 
HETATM   16  C16 UNK     1      21.843  -8.378  39.790  1.00  0.00     0.288 A 
HETATM   17  O3  UNK     1      22.663  -8.847  40.573  1.00  0.00    -0.260 OA
ENDBRANCH   6   7
ENDBRANCH   5   6
BRANCH   1  18
HETATM   18  C3  UNK     1      19.385  -1.646  34.457  1.00  0.00     0.058 A 
HETATM   19  C10 UNK     1      20.440  -2.418  33.975  1.00  0.00     0.032 A 
HETATM   20  C14 UNK     1      20.749  -2.396  32.615  1.00  0.00     0.019 A 
HETATM   21  C12 UNK     1      20.002  -1.604  31.742  1.00  0.00     0.032 A 
HETATM   22  C13 UNK     1      18.946  -0.834  32.230  1.00  0.00     0.019 A 
HETATM   23  C9  UNK     1      18.638  -0.855  33.590  1.00  0.00     0.032 A 
BRANCH  21  24
HETATM   24  C17 UNK     1      20.324  -1.582  30.325  1.00  0.00     0.249 C 
HETATM   25  O4  UNK     1      20.444  -0.511  29.704  1.00  0.00    -0.268 OA
HETATM   26  N5  UNK     1      20.515  -2.803  29.685  1.00  0.00    -0.366 N 
HETATM   27  H10 UNK     1      20.443  -3.717  30.112  1.00  0.00     0.159 HD
HETATM   28  H11 UNK     1      20.749  -2.814  28.696  1.00  0.00     0.159 HD
ENDBRANCH  21  24
ENDBRANCH   1  18
TORSDOF 4
ENDMDL
MODEL 8
REMARK VINA RESULT:      -8.7     22.582     24.486
REMARK  4 active torsions:
REMARK  status: ('A' for Active; 'I' for Inactive)
REMARK    1  A    between atoms: C4_13  and  O1_1 
REMARK    2  A    between atoms: C8_17  and  O1_1 
REMARK    3  A    between atoms: C3_12  and  N1_5 
REMARK       I    between atoms: C17_26  and  N5_9 
REMARK    4  A    between atoms: C12_21  and  C17_26 
ROOT
HETATM    1  N1  UNK     1      15.807   6.716   9.867  1.00  0.00    -0.202 N 
HETATM    2  N2  UNK     1      17.092   6.585   9.508  1.00  0.00     0.004 NA
HETATM    3  N3  UNK     1      16.093   4.593   9.527  1.00  0.00    -0.116 NA
HETATM    4  N4  UNK     1      17.260   5.285   9.302  1.00  0.00     0.020 NA
HETATM    5  C8  UNK     1      15.236   5.502   9.868  1.00  0.00     0.286 A 
ENDROOT
BRANCH   5   6
HETATM    6  O1  UNK     1      13.942   5.277  10.186  1.00  0.00    -0.276 OA
BRANCH   6   7
HETATM    7  C4  UNK     1      12.929   5.484   9.299  1.00  0.00     0.082 A 
HETATM    8  C5  UNK     1      11.627   5.670   9.759  1.00  0.00     0.075 A 
HETATM    9  C2  UNK     1      10.608   5.880   8.832  1.00  0.00     0.092 A 
HETATM   10  C1  UNK     1      10.858   5.911   7.463  1.00  0.00    -0.002 A 
HETATM   11  O2  UNK     1       9.301   6.063   9.328  1.00  0.00    -0.275 OA
HETATM   12  C6  UNK     1      12.166   5.725   7.011  1.00  0.00     0.017 A 
HETATM   13  C11 UNK     1       9.747   6.135   6.553  1.00  0.00     0.020 A 
HETATM   14  C7  UNK     1      13.198   5.511   7.929  1.00  0.00     0.038 A 
HETATM   15  C15 UNK     1       8.512   6.308   7.030  1.00  0.00     0.083 A 
HETATM   16  C16 UNK     1       8.222   6.279   8.476  1.00  0.00     0.288 A 
HETATM   17  O3  UNK     1       7.082   6.440   8.899  1.00  0.00    -0.260 OA
ENDBRANCH   6   7
ENDBRANCH   5   6
BRANCH   1  18
HETATM   18  C3  UNK     1      15.251   7.951  10.169  1.00  0.00     0.058 A 
HETATM   19  C10 UNK     1      15.227   8.395  11.489  1.00  0.00     0.032 A 
HETATM   20  C14 UNK     1      14.667   9.636  11.793  1.00  0.00     0.019 A 
HETATM   21  C12 UNK     1      14.135  10.429  10.775  1.00  0.00     0.032 A 
HETATM   22  C13 UNK     1      14.164   9.981   9.455  1.00  0.00     0.019 A 
HETATM   23  C9  UNK     1      14.723   8.740   9.151  1.00  0.00     0.032 A 
BRANCH  21  24
HETATM   24  C17 UNK     1      13.552  11.722  11.092  1.00  0.00     0.249 C 
HETATM   25  O4  UNK     1      13.673  12.230  12.221  1.00  0.00    -0.268 OA
HETATM   26  N5  UNK     1      12.865  12.388  10.081  1.00  0.00    -0.366 N 
HETATM   27  H10 UNK     1      12.724  12.053   9.137  1.00  0.00     0.159 HD
HETATM   28  H11 UNK     1      12.454  13.296  10.275  1.00  0.00     0.159 HD
ENDBRANCH  21  24
ENDBRANCH   1  18
TORSDOF 4
ENDMDL
MODEL 9
REMARK VINA RESULT:      -8.7      2.733      6.869
REMARK  4 active torsions:
REMARK  status: ('A' for Active; 'I' for Inactive)
REMARK    1  A    between atoms: C4_13  and  O1_1 
REMARK    2  A    between atoms: C8_17  and  O1_1 
REMARK    3  A    between atoms: C3_12  and  N1_5 
REMARK       I    between atoms: C17_26  and  N5_9 
REMARK    4  A    between atoms: C12_21  and  C17_26 
ROOT
HETATM    1  N1  UNK     1      18.802   1.681  29.826  1.00  0.00    -0.202 N 
HETATM    2  N2  UNK     1      18.228   1.496  28.629  1.00  0.00     0.004 NA
HETATM    3  N3  UNK     1      18.344   3.672  29.098  1.00  0.00    -0.116 NA
HETATM    4  N4  UNK     1      17.950   2.717  28.190  1.00  0.00     0.020 NA
HETATM    5  C8  UNK     1      18.857   2.997  30.078  1.00  0.00     0.286 A 
ENDROOT
BRANCH   5   6
HETATM    6  O1  UNK     1      19.378   3.530  31.205  1.00  0.00    -0.276 OA
BRANCH   6   7
HETATM    7  C4  UNK     1      18.889   4.671  31.764  1.00  0.00     0.082 A 
HETATM    8  C5  UNK     1      19.758   5.589  32.350  1.00  0.00     0.075 A 
HETATM    9  C2  UNK     1      19.233   6.750  32.915  1.00  0.00     0.092 A 
HETATM   10  C1  UNK     1      17.867   7.014  32.908  1.00  0.00    -0.002 A 
HETATM   11  O2  UNK     1      20.138   7.658  33.501  1.00  0.00    -0.275 OA
HETATM   12  C6  UNK     1      17.003   6.089  32.319  1.00  0.00     0.017 A 
HETATM   13  C11 UNK     1      17.389   8.244  33.516  1.00  0.00     0.020 A 
HETATM   14  C7  UNK     1      17.514   4.920  31.749  1.00  0.00     0.038 A 
HETATM   15  C15 UNK     1      18.252   9.100  34.069  1.00  0.00     0.083 A 
HETATM   16  C16 UNK     1      19.704   8.842  34.089  1.00  0.00     0.288 A 
HETATM   17  O3  UNK     1      20.484   9.638  34.600  1.00  0.00    -0.260 OA
ENDBRANCH   6   7
ENDBRANCH   5   6
BRANCH   1  18
HETATM   18  C3  UNK     1      19.236   0.617  30.604  1.00  0.00     0.058 A 
HETATM   19  C10 UNK     1      18.632   0.368  31.835  1.00  0.00     0.032 A 
HETATM   20  C14 UNK     1      19.069  -0.701  32.617  1.00  0.00     0.019 A 
HETATM   21  C12 UNK     1      20.107  -1.518  32.166  1.00  0.00     0.032 A 
HETATM   22  C13 UNK     1      20.707  -1.265  30.933  1.00  0.00     0.019 A 
HETATM   23  C9  UNK     1      20.271  -0.196  30.151  1.00  0.00     0.032 A 
BRANCH  21  24
HETATM   24  C17 UNK     1      20.562  -2.631  32.982  1.00  0.00     0.249 C 
HETATM   25  O4  UNK     1      21.387  -3.457  32.551  1.00  0.00    -0.268 OA
HETATM   26  N5  UNK     1      20.059  -2.735  34.276  1.00  0.00    -0.366 N 
HETATM   27  H10 UNK     1      19.393  -2.107  34.707  1.00  0.00     0.159 HD
HETATM   28  H11 UNK     1      20.367  -3.499  34.868  1.00  0.00     0.159 HD
ENDBRANCH  21  24
ENDBRANCH   1  18
TORSDOF 4
ENDMDL
MODEL 10
REMARK VINA RESULT:      -8.7     23.436     25.515
REMARK  4 active torsions:
REMARK  status: ('A' for Active; 'I' for Inactive)
REMARK    1  A    between atoms: C4_13  and  O1_1 
REMARK    2  A    between atoms: C8_17  and  O1_1 
REMARK    3  A    between atoms: C3_12  and  N1_5 
REMARK       I    between atoms: C17_26  and  N5_9 
REMARK    4  A    between atoms: C12_21  and  C17_26 
ROOT
HETATM    1  N1  UNK     1      10.624   6.361   7.101  1.00  0.00    -0.202 N 
HETATM    2  N2  UNK     1      10.483   6.325   5.769  1.00  0.00     0.004 NA
HETATM    3  N3  UNK     1       8.518   6.734   6.740  1.00  0.00    -0.116 NA
HETATM    4  N4  UNK     1       9.193   6.553   5.555  1.00  0.00     0.020 NA
HETATM    5  C8  UNK     1       9.427   6.608   7.654  1.00  0.00     0.286 A 
ENDROOT
BRANCH   5   6
HETATM    6  O1  UNK     1       9.216   6.709   8.985  1.00  0.00    -0.276 OA
BRANCH   6   7
HETATM    7  C4  UNK     1       8.139   6.141   9.595  1.00  0.00     0.082 A 
HETATM    8  C5  UNK     1       7.840   4.799   9.373  1.00  0.00     0.075 A 
HETATM    9  C2  UNK     1       6.733   4.240  10.009  1.00  0.00     0.092 A 
HETATM   10  C1  UNK     1       5.922   4.987  10.859  1.00  0.00    -0.002 A 
HETATM   11  O2  UNK     1       6.455   2.880   9.762  1.00  0.00    -0.275 OA
HETATM   12  C6  UNK     1       6.230   6.332  11.076  1.00  0.00     0.017 A 
HETATM   13  C11 UNK     1       4.783   4.340  11.488  1.00  0.00     0.020 A 
HETATM   14  C7  UNK     1       7.336   6.906  10.445  1.00  0.00     0.038 A 
HETATM   15  C15 UNK     1       4.526   3.052  11.250  1.00  0.00     0.083 A 
HETATM   16  C16 UNK     1       5.370   2.240  10.353  1.00  0.00     0.288 A 
HETATM   17  O3  UNK     1       5.121   1.057  10.145  1.00  0.00    -0.260 OA
ENDBRANCH   6   7
ENDBRANCH   5   6
BRANCH   1  18
HETATM   18  C3  UNK     1      11.853   6.162   7.715  1.00  0.00     0.058 A 
HETATM   19  C10 UNK     1      12.687   7.250   7.961  1.00  0.00     0.032 A 
HETATM   20  C14 UNK     1      13.923   7.050   8.577  1.00  0.00     0.019 A 
HETATM   21  C12 UNK     1      14.319   5.763   8.945  1.00  0.00     0.032 A 
HETATM   22  C13 UNK     1      13.480   4.678   8.697  1.00  0.00     0.019 A 
HETATM   23  C9  UNK     1      12.245   4.877   8.081  1.00  0.00     0.032 A 
BRANCH  21  24
HETATM   24  C17 UNK     1      15.607   5.555   9.586  1.00  0.00     0.249 C 
HETATM   25  O4  UNK     1      16.203   4.467   9.506  1.00  0.00    -0.268 OA
HETATM   26  N5  UNK     1      16.166   6.625  10.279  1.00  0.00    -0.366 N 
HETATM   27  H10 UNK     1      15.755   7.543  10.389  1.00  0.00     0.159 HD
HETATM   28  H11 UNK     1      17.068   6.508  10.729  1.00  0.00     0.159 HD
ENDBRANCH  21  24
ENDBRANCH   1  18
TORSDOF 4
ENDMDL
