MODEL 1
REMARK VINA RESULT:     -10.2      0.000      0.000
REMARK  2 active torsions:
REMARK  status: ('A' for Active; 'I' for Inactive)
REMARK       I    between atoms: C11_17  and  N1_6 
REMARK    1  A    between atoms: C4_10  and  N1_6 
REMARK    2  A    between atoms: C11_17  and  C12_18 
ROOT
HETATM    1  O1  UNK     1      16.024   6.866  33.024  1.00  0.00    -0.275 OA
HETATM    2  O3  UNK     1      14.581   8.339  34.016  1.00  0.00    -0.260 OA
HETATM    3  C1  UNK     1      18.422   7.328  33.072  1.00  0.00     0.004 A 
HETATM    4  C2  UNK     1      17.348   6.517  32.699  1.00  0.00     0.092 A 
HETATM    5  C3  UNK     1      18.144   8.562  33.819  1.00  0.00    -0.043 A 
HETATM    6  C4  UNK     1      18.811   4.930  31.638  1.00  0.00     0.037 A 
HETATM    7  C5  UNK     1      17.525   5.327  31.989  1.00  0.00     0.067 A 
HETATM    8  C6  UNK     1      19.709   6.910  32.710  1.00  0.00     0.017 A 
HETATM    9  C7  UNK     1      19.902   5.720  31.999  1.00  0.00     0.030 A 
HETATM   10  C8  UNK     1      16.873   8.870  34.115  1.00  0.00     0.090 A 
HETATM   11  C9  UNK     1      19.276   9.455  34.235  1.00  0.00     0.049 C 
HETATM   12  C10 UNK     1      15.731   8.025  33.728  1.00  0.00     0.288 A 
ENDROOT
BRANCH   6  13
HETATM   13  N1  UNK     1      19.010   3.745  30.930  1.00  0.00    -0.323 N 
HETATM   14  C11 UNK     1      18.524   2.466  31.236  1.00  0.00     0.259 C 
HETATM   15  O2  UNK     1      17.826   2.154  32.194  1.00  0.00    -0.267 OA
HETATM   16  H5  UNK     1      19.599   3.842  30.108  1.00  0.00     0.169 HD
BRANCH  14  17
HETATM   17  C12 UNK     1      18.934   1.389  30.297  1.00  0.00     0.073 A 
HETATM   18  C13 UNK     1      18.384   1.358  29.033  1.00  0.00     0.132 A 
HETATM   19  F1  UNK     1      17.492   2.274  28.631  1.00  0.00    -0.205 F 
HETATM   20  C16 UNK     1      18.771   0.345  28.155  1.00  0.00     0.046 A 
HETATM   21  C17 UNK     1      19.698  -0.614  28.562  1.00  0.00     0.045 A 
HETATM   22  C15 UNK     1      20.239  -0.560  29.847  1.00  0.00     0.117 A 
HETATM   23  C14 UNK     1      19.853   0.453  30.724  1.00  0.00     0.062 A 
HETATM   24  F2  UNK     1      21.130  -1.481  30.238  1.00  0.00    -0.206 F 
ENDBRANCH  14  17
ENDBRANCH   6  13
TORSDOF 2
ENDMDL
MODEL 2
REMARK VINA RESULT:      -9.8      1.592      2.282
REMARK  2 active torsions:
REMARK  status: ('A' for Active; 'I' for Inactive)
REMARK       I    between atoms: C11_17  and  N1_6 
REMARK    1  A    between atoms: C4_10  and  N1_6 
REMARK    2  A    between atoms: C11_17  and  C12_18 
ROOT
HETATM    1  O1  UNK     1      20.255   7.722  33.470  1.00  0.00    -0.275 OA
HETATM    2  O3  UNK     1      20.988   9.527  34.669  1.00  0.00    -0.260 OA
HETATM    3  C1  UNK     1      17.885   7.545  32.906  1.00  0.00     0.004 A 
HETATM    4  C2  UNK     1      19.185   7.038  32.861  1.00  0.00     0.092 A 
HETATM    5  C3  UNK     1      17.649   8.816  33.605  1.00  0.00    -0.043 A 
HETATM    6  C4  UNK     1      18.479   5.118  31.599  1.00  0.00     0.037 A 
HETATM    7  C5  UNK     1      19.495   5.839  32.218  1.00  0.00     0.067 A 
HETATM    8  C6  UNK     1      16.876   6.805  32.277  1.00  0.00     0.017 A 
HETATM    9  C7  UNK     1      17.171   5.601  31.628  1.00  0.00     0.030 A 
HETATM   10  C8  UNK     1      18.687   9.446  34.175  1.00  0.00     0.090 A 
HETATM   11  C9  UNK     1      16.263   9.388  33.672  1.00  0.00     0.049 C 
HETATM   12  C10 UNK     1      20.064   8.923  34.136  1.00  0.00     0.288 A 
ENDROOT
BRANCH   6  13
HETATM   13  N1  UNK     1      18.767   3.917  30.949  1.00  0.00    -0.323 N 
HETATM   14  C11 UNK     1      18.411   2.619  31.340  1.00  0.00     0.259 C 
HETATM   15  O2  UNK     1      17.774   2.300  32.337  1.00  0.00    -0.267 OA
HETATM   16  H5  UNK     1      19.319   4.021  30.102  1.00  0.00     0.169 HD
BRANCH  14  17
HETATM   17  C12 UNK     1      18.891   1.532  30.447  1.00  0.00     0.073 A 
HETATM   18  C13 UNK     1      18.427   1.478  29.150  1.00  0.00     0.132 A 
HETATM   19  F1  UNK     1      17.558   2.381  28.675  1.00  0.00    -0.205 F 
HETATM   20  C16 UNK     1      18.880   0.456  28.315  1.00  0.00     0.046 A 
HETATM   21  C17 UNK     1      19.786  -0.489  28.797  1.00  0.00     0.045 A 
HETATM   22  C15 UNK     1      20.239  -0.412  30.114  1.00  0.00     0.117 A 
HETATM   23  C14 UNK     1      19.787   0.611  30.949  1.00  0.00     0.062 A 
HETATM   24  F2  UNK     1      21.108  -1.319  30.578  1.00  0.00    -0.206 F 
ENDBRANCH  14  17
ENDBRANCH   6  13
TORSDOF 2
ENDMDL
MODEL 3
REMARK VINA RESULT:      -9.6      9.448     13.564
REMARK  2 active torsions:
REMARK  status: ('A' for Active; 'I' for Inactive)
REMARK       I    between atoms: C11_17  and  N1_6 
REMARK    1  A    between atoms: C4_10  and  N1_6 
REMARK    2  A    between atoms: C11_17  and  C12_18 
ROOT
HETATM    1  O1  UNK     1      21.136  -8.785  35.141  1.00  0.00    -0.275 OA
HETATM    2  O3  UNK     1      22.214 -10.692  34.485  1.00  0.00    -0.260 OA
HETATM    3  C1  UNK     1      19.743  -8.831  37.147  1.00  0.00     0.004 A 
HETATM    4  C2  UNK     1      20.283  -8.142  36.059  1.00  0.00     0.092 A 
HETATM    5  C3  UNK     1      20.082 -10.250  37.320  1.00  0.00    -0.043 A 
HETATM    6  C4  UNK     1      19.177  -6.105  36.696  1.00  0.00     0.037 A 
HETATM    7  C5  UNK     1      20.013  -6.793  35.823  1.00  0.00     0.067 A 
HETATM    8  C6  UNK     1      18.904  -8.120  38.015  1.00  0.00     0.017 A 
HETATM    9  C7  UNK     1      18.623  -6.767  37.791  1.00  0.00     0.030 A 
HETATM   10  C8  UNK     1      20.896 -10.836  36.430  1.00  0.00     0.090 A 
HETATM   11  C9  UNK     1      19.517 -11.018  38.479  1.00  0.00     0.049 C 
HETATM   12  C10 UNK     1      21.474 -10.123  35.278  1.00  0.00     0.288 A 
ENDROOT
BRANCH   6  13
HETATM   13  N1  UNK     1      18.894  -4.756  36.479  1.00  0.00    -0.323 N 
HETATM   14  C11 UNK     1      19.774  -3.667  36.557  1.00  0.00     0.259 C 
HETATM   15  O2  UNK     1      20.967  -3.705  36.835  1.00  0.00    -0.267 OA
HETATM   16  H5  UNK     1      17.921  -4.562  36.258  1.00  0.00     0.169 HD
BRANCH  14  17
HETATM   17  C12 UNK     1      19.164  -2.337  36.298  1.00  0.00     0.073 A 
HETATM   18  C13 UNK     1      19.301  -1.771  35.048  1.00  0.00     0.132 A 
HETATM   19  F1  UNK     1      19.968  -2.390  34.064  1.00  0.00    -0.205 F 
HETATM   20  C16 UNK     1      18.727  -0.522  34.809  1.00  0.00     0.046 A 
HETATM   21  C17 UNK     1      18.031   0.133  35.825  1.00  0.00     0.045 A 
HETATM   22  C15 UNK     1      17.907  -0.463  37.080  1.00  0.00     0.117 A 
HETATM   23  C14 UNK     1      18.480  -1.712  37.320  1.00  0.00     0.062 A 
HETATM   24  F2  UNK     1      17.238   0.166  38.056  1.00  0.00    -0.206 F 
ENDBRANCH  14  17
ENDBRANCH   6  13
TORSDOF 2
ENDMDL
MODEL 4
REMARK VINA RESULT:      -9.5      3.076      8.070
REMARK  2 active torsions:
REMARK  status: ('A' for Active; 'I' for Inactive)
REMARK       I    between atoms: C11_17  and  N1_6 
REMARK    1  A    between atoms: C4_10  and  N1_6 
REMARK    2  A    between atoms: C11_17  and  C12_18 
ROOT
HETATM    1  O1  UNK     1      19.307  -0.263  32.702  1.00  0.00    -0.275 OA
HETATM    2  O3  UNK     1      20.027  -2.399  33.090  1.00  0.00    -0.260 OA
HETATM    3  C1  UNK     1      19.316   0.604  30.418  1.00  0.00     0.004 A 
HETATM    4  C2  UNK     1      19.062   0.774  31.780  1.00  0.00     0.092 A 
HETATM    5  C3  UNK     1      19.849  -0.685  29.957  1.00  0.00    -0.043 A 
HETATM    6  C4  UNK     1      18.293   3.026  31.440  1.00  0.00     0.037 A 
HETATM    7  C5  UNK     1      18.555   1.966  32.301  1.00  0.00     0.067 A 
HETATM    8  C6  UNK     1      19.046   1.684  29.567  1.00  0.00     0.017 A 
HETATM    9  C7  UNK     1      18.537   2.885  30.074  1.00  0.00     0.030 A 
HETATM   10  C8  UNK     1      20.073  -1.654  30.856  1.00  0.00     0.090 A 
HETATM   11  C9  UNK     1      20.134  -0.899  28.499  1.00  0.00     0.049 C 
HETATM   12  C10 UNK     1      19.809  -1.490  32.297  1.00  0.00     0.288 A 
ENDROOT
BRANCH   6  13
HETATM   13  N1  UNK     1      17.786   4.226  31.939  1.00  0.00    -0.323 N 
HETATM   14  C11 UNK     1      18.458   5.446  32.099  1.00  0.00     0.259 C 
HETATM   15  O2  UNK     1      19.629   5.681  31.826  1.00  0.00    -0.267 OA
HETATM   16  H5  UNK     1      16.814   4.180  32.233  1.00  0.00     0.169 HD
BRANCH  14  17
HETATM   17  C12 UNK     1      17.648   6.545  32.688  1.00  0.00     0.073 A 
HETATM   18  C13 UNK     1      17.040   7.452  31.847  1.00  0.00     0.132 A 
HETATM   19  F1  UNK     1      17.159   7.366  30.515  1.00  0.00    -0.205 F 
HETATM   20  C16 UNK     1      16.282   8.482  32.404  1.00  0.00     0.046 A 
HETATM   21  C17 UNK     1      16.151   8.583  33.789  1.00  0.00     0.045 A 
HETATM   22  C15 UNK     1      16.777   7.651  34.617  1.00  0.00     0.117 A 
HETATM   23  C14 UNK     1      17.535   6.621  34.061  1.00  0.00     0.062 A 
HETATM   24  F2  UNK     1      16.652   7.747  35.948  1.00  0.00    -0.206 F 
ENDBRANCH  14  17
ENDBRANCH   6  13
TORSDOF 2
ENDMDL
MODEL 5
REMARK VINA RESULT:      -9.4      3.213      8.243
REMARK  2 active torsions:
REMARK  status: ('A' for Active; 'I' for Inactive)
REMARK       I    between atoms: C11_17  and  N1_6 
REMARK    1  A    between atoms: C4_10  and  N1_6 
REMARK    2  A    between atoms: C11_17  and  C12_18 
ROOT
HETATM    1  O1  UNK     1      19.357  -0.420  32.791  1.00  0.00    -0.275 OA
HETATM    2  O3  UNK     1      20.176  -2.532  33.104  1.00  0.00    -0.260 OA
HETATM    3  C1  UNK     1      19.362   0.542  30.546  1.00  0.00     0.004 A 
HETATM    4  C2  UNK     1      19.076   0.641  31.908  1.00  0.00     0.092 A 
HETATM    5  C3  UNK     1      19.967  -0.699  30.042  1.00  0.00    -0.043 A 
HETATM    6  C4  UNK     1      18.201   2.865  31.646  1.00  0.00     0.037 A 
HETATM    7  C5  UNK     1      18.500   1.783  32.468  1.00  0.00     0.067 A 
HETATM    8  C6  UNK     1      19.052   1.642  29.735  1.00  0.00     0.017 A 
HETATM    9  C7  UNK     1      18.476   2.794  30.281  1.00  0.00     0.030 A 
HETATM   10  C8  UNK     1      20.224  -1.692  30.905  1.00  0.00     0.090 A 
HETATM   11  C9  UNK     1      20.287  -0.836  28.583  1.00  0.00     0.049 C 
HETATM   12  C10 UNK     1      19.927  -1.603  32.345  1.00  0.00     0.288 A 
ENDROOT
BRANCH   6  13
HETATM   13  N1  UNK     1      17.625   4.016  32.184  1.00  0.00    -0.323 N 
HETATM   14  C11 UNK     1      18.190   5.295  32.288  1.00  0.00     0.259 C 
HETATM   15  O2  UNK     1      19.308   5.637  31.920  1.00  0.00    -0.267 OA
HETATM   16  H5  UNK     1      16.689   3.881  32.557  1.00  0.00     0.169 HD
BRANCH  14  17
HETATM   17  C12 UNK     1      17.331   6.318  32.941  1.00  0.00     0.073 A 
HETATM   18  C13 UNK     1      17.779   6.931  34.092  1.00  0.00     0.132 A 
HETATM   19  F1  UNK     1      18.967   6.629  34.633  1.00  0.00    -0.205 F 
HETATM   20  C16 UNK     1      16.971   7.891  34.701  1.00  0.00     0.046 A 
HETATM   21  C17 UNK     1      15.732   8.214  34.147  1.00  0.00     0.045 A 
HETATM   22  C15 UNK     1      15.303   7.578  32.982  1.00  0.00     0.117 A 
HETATM   23  C14 UNK     1      16.112   6.619  32.371  1.00  0.00     0.062 A 
HETATM   24  F2  UNK     1      14.113   7.888  32.449  1.00  0.00    -0.206 F 
ENDBRANCH  14  17
ENDBRANCH   6  13
TORSDOF 2
ENDMDL
MODEL 6
REMARK VINA RESULT:      -9.3      9.388     13.479
REMARK  2 active torsions:
REMARK  status: ('A' for Active; 'I' for Inactive)
REMARK       I    between atoms: C11_17  and  N1_6 
REMARK    1  A    between atoms: C4_10  and  N1_6 
REMARK    2  A    between atoms: C11_17  and  C12_18 
ROOT
HETATM    1  O1  UNK     1      19.227  -8.997  38.238  1.00  0.00    -0.275 OA
HETATM    2  O3  UNK     1      19.216 -10.988  39.364  1.00  0.00    -0.260 OA
HETATM    3  C1  UNK     1      20.433  -8.829  36.121  1.00  0.00     0.004 A 
HETATM    4  C2  UNK     1      19.646  -8.252  37.119  1.00  0.00     0.092 A 
HETATM    5  C3  UNK     1      20.820 -10.240  36.257  1.00  0.00    -0.043 A 
HETATM    6  C4  UNK     1      19.618  -6.132  35.985  1.00  0.00     0.037 A 
HETATM    7  C5  UNK     1      19.235  -6.919  37.066  1.00  0.00     0.067 A 
HETATM    8  C6  UNK     1      20.809  -8.020  35.040  1.00  0.00     0.017 A 
HETATM    9  C7  UNK     1      20.404  -6.682  34.973  1.00  0.00     0.030 A 
HETATM   10  C8  UNK     1      20.406 -10.925  37.333  1.00  0.00     0.090 A 
HETATM   11  C9  UNK     1      21.666 -10.889  35.202  1.00  0.00     0.049 C 
HETATM   12  C10 UNK     1      19.576 -10.330  38.394  1.00  0.00     0.288 A 
ENDROOT
BRANCH   6  13
HETATM   13  N1  UNK     1      19.218  -4.798  35.912  1.00  0.00    -0.323 N 
HETATM   14  C11 UNK     1      19.931  -3.660  36.313  1.00  0.00     0.259 C 
HETATM   15  O2  UNK     1      21.052  -3.631  36.808  1.00  0.00    -0.267 OA
HETATM   16  H5  UNK     1      18.283  -4.661  35.536  1.00  0.00     0.169 HD
BRANCH  14  17
HETATM   17  C12 UNK     1      19.220  -2.367  36.132  1.00  0.00     0.073 A 
HETATM   18  C13 UNK     1      19.259  -1.749  34.900  1.00  0.00     0.132 A 
HETATM   19  F1  UNK     1      19.919  -2.286  33.864  1.00  0.00    -0.205 F 
HETATM   20  C16 UNK     1      18.591  -0.536  34.734  1.00  0.00     0.046 A 
HETATM   21  C17 UNK     1      17.901   0.033  35.804  1.00  0.00     0.045 A 
HETATM   22  C15 UNK     1      17.878  -0.613  37.041  1.00  0.00     0.117 A 
HETATM   23  C14 UNK     1      18.546  -1.827  37.206  1.00  0.00     0.062 A 
HETATM   24  F2  UNK     1      17.215  -0.067  38.069  1.00  0.00    -0.206 F 
ENDBRANCH  14  17
ENDBRANCH   6  13
TORSDOF 2
ENDMDL
MODEL 7
REMARK VINA RESULT:      -9.2      8.865     12.896
REMARK  2 active torsions:
REMARK  status: ('A' for Active; 'I' for Inactive)
REMARK       I    between atoms: C11_17  and  N1_6 
REMARK    1  A    between atoms: C4_10  and  N1_6 
REMARK    2  A    between atoms: C11_17  and  C12_18 
ROOT
HETATM    1  O1  UNK     1      22.442  -6.717  38.266  1.00  0.00    -0.275 OA
HETATM    2  O3  UNK     1      24.099  -8.042  39.119  1.00  0.00    -0.260 OA
HETATM    3  C1  UNK     1      21.161  -7.499  36.339  1.00  0.00     0.004 A 
HETATM    4  C2  UNK     1      21.428  -6.529  37.307  1.00  0.00     0.092 A 
HETATM    5  C3  UNK     1      21.962  -8.731  36.337  1.00  0.00    -0.043 A 
HETATM    6  C4  UNK     1      19.701  -5.089  36.457  1.00  0.00     0.037 A 
HETATM    7  C5  UNK     1      20.714  -5.331  37.379  1.00  0.00     0.067 A 
HETATM    8  C6  UNK     1      20.136  -7.236  35.420  1.00  0.00     0.017 A 
HETATM    9  C7  UNK     1      19.412  -6.040  35.480  1.00  0.00     0.030 A 
HETATM   10  C8  UNK     1      22.921  -8.883  37.262  1.00  0.00     0.090 A 
HETATM   11  C9  UNK     1      21.699  -9.792  35.310  1.00  0.00     0.049 C 
HETATM   12  C10 UNK     1      23.214  -7.869  38.290  1.00  0.00     0.288 A 
ENDROOT
BRANCH   6  13
HETATM   13  N1  UNK     1      18.974  -3.899  36.512  1.00  0.00    -0.323 N 
HETATM   14  C11 UNK     1      19.420  -2.602  36.221  1.00  0.00     0.259 C 
HETATM   15  O2  UNK     1      20.545  -2.275  35.861  1.00  0.00    -0.267 OA
HETATM   16  H5  UNK     1      18.012  -4.010  36.821  1.00  0.00     0.169 HD
BRANCH  14  17
HETATM   17  C12 UNK     1      18.409  -1.527  36.401  1.00  0.00     0.073 A 
HETATM   18  C13 UNK     1      18.123  -1.084  37.675  1.00  0.00     0.132 A 
HETATM   19  F1  UNK     1      18.734  -1.596  38.752  1.00  0.00    -0.205 F 
HETATM   20  C16 UNK     1      17.174  -0.075  37.839  1.00  0.00     0.046 A 
HETATM   21  C17 UNK     1      16.531   0.466  36.726  1.00  0.00     0.045 A 
HETATM   22  C15 UNK     1      16.838  -0.001  35.448  1.00  0.00     0.117 A 
HETATM   23  C14 UNK     1      17.789  -1.009  35.283  1.00  0.00     0.062 A 
HETATM   24  F2  UNK     1      16.221   0.519  34.378  1.00  0.00    -0.206 F 
ENDBRANCH  14  17
ENDBRANCH   6  13
TORSDOF 2
ENDMDL
MODEL 8
REMARK VINA RESULT:      -9.1      3.037      8.108
REMARK  2 active torsions:
REMARK  status: ('A' for Active; 'I' for Inactive)
REMARK       I    between atoms: C11_17  and  N1_6 
REMARK    1  A    between atoms: C4_10  and  N1_6 
REMARK    2  A    between atoms: C11_17  and  C12_18 
ROOT
HETATM    1  O1  UNK     1      19.740   0.806  29.459  1.00  0.00    -0.275 OA
HETATM    2  O3  UNK     1      20.805  -0.780  28.202  1.00  0.00    -0.260 OA
HETATM    3  C1  UNK     1      19.211   0.322  31.794  1.00  0.00     0.004 A 
HETATM    4  C2  UNK     1      19.190   1.187  30.698  1.00  0.00     0.092 A 
HETATM    5  C3  UNK     1      19.823  -1.004  31.632  1.00  0.00    -0.043 A 
HETATM    6  C4  UNK     1      18.070   2.895  31.965  1.00  0.00     0.037 A 
HETATM    7  C5  UNK     1      18.629   2.464  30.767  1.00  0.00     0.067 A 
HETATM    8  C6  UNK     1      18.643   0.776  32.991  1.00  0.00     0.017 A 
HETATM    9  C7  UNK     1      18.077   2.053  33.076  1.00  0.00     0.030 A 
HETATM   10  C8  UNK     1      20.338  -1.340  30.441  1.00  0.00     0.090 A 
HETATM   11  C9  UNK     1      19.861  -1.957  32.790  1.00  0.00     0.049 C 
HETATM   12  C10 UNK     1      20.324  -0.438  29.276  1.00  0.00     0.288 A 
ENDROOT
BRANCH   6  13
HETATM   13  N1  UNK     1      17.505   4.168  32.057  1.00  0.00    -0.323 N 
HETATM   14  C11 UNK     1      18.019   5.294  32.715  1.00  0.00     0.259 C 
HETATM   15  O2  UNK     1      19.073   5.365  33.337  1.00  0.00    -0.267 OA
HETATM   16  H5  UNK     1      16.602   4.259  31.600  1.00  0.00     0.169 HD
BRANCH  14  17
HETATM   17  C12 UNK     1      17.165   6.509  32.658  1.00  0.00     0.073 A 
HETATM   18  C13 UNK     1      17.129   7.248  31.494  1.00  0.00     0.132 A 
HETATM   19  F1  UNK     1      17.843   6.896  30.415  1.00  0.00    -0.205 F 
HETATM   20  C16 UNK     1      16.326   8.387  31.445  1.00  0.00     0.046 A 
HETATM   21  C17 UNK     1      15.579   8.763  32.561  1.00  0.00     0.045 A 
HETATM   22  C15 UNK     1      15.633   7.998  33.726  1.00  0.00     0.117 A 
HETATM   23  C14 UNK     1      16.436   6.858  33.775  1.00  0.00     0.062 A 
HETATM   24  F2  UNK     1      14.915   8.359  34.798  1.00  0.00    -0.206 F 
ENDBRANCH  14  17
ENDBRANCH   6  13
TORSDOF 2
ENDMDL
MODEL 9
REMARK VINA RESULT:      -9.0      7.778      9.776
REMARK  2 active torsions:
REMARK  status: ('A' for Active; 'I' for Inactive)
REMARK       I    between atoms: C11_17  and  N1_6 
REMARK    1  A    between atoms: C4_10  and  N1_6 
REMARK    2  A    between atoms: C11_17  and  C12_18 
ROOT
HETATM    1  O1  UNK     1      18.944  -0.435  33.998  1.00  0.00    -0.275 OA
HETATM    2  O3  UNK     1      18.320   1.411  32.800  1.00  0.00    -0.260 OA
HETATM    3  C1  UNK     1      18.372  -0.568  36.369  1.00  0.00     0.004 A 
HETATM    4  C2  UNK     1      18.962  -1.118  35.229  1.00  0.00     0.092 A 
HETATM    5  C3  UNK     1      17.725   0.747  36.262  1.00  0.00    -0.043 A 
HETATM    6  C4  UNK     1      19.646  -3.084  36.433  1.00  0.00     0.037 A 
HETATM    7  C5  UNK     1      19.596  -2.362  35.245  1.00  0.00     0.067 A 
HETATM    8  C6  UNK     1      18.432  -1.311  37.555  1.00  0.00     0.017 A 
HETATM    9  C7  UNK     1      19.064  -2.559  37.586  1.00  0.00     0.030 A 
HETATM   10  C8  UNK     1      17.723   1.374  35.077  1.00  0.00     0.090 A 
HETATM   11  C9  UNK     1      17.082   1.365  37.468  1.00  0.00     0.049 C 
HETATM   12  C10 UNK     1      18.341   0.807  33.866  1.00  0.00     0.288 A 
ENDROOT
BRANCH   6  13
HETATM   13  N1  UNK     1      20.273  -4.329  36.470  1.00  0.00    -0.323 N 
HETATM   14  C11 UNK     1      19.674  -5.595  36.538  1.00  0.00     0.259 C 
HETATM   15  O2  UNK     1      18.473  -5.839  36.577  1.00  0.00    -0.267 OA
HETATM   16  H5  UNK     1      21.289  -4.287  36.468  1.00  0.00     0.169 HD
BRANCH  14  17
HETATM   17  C12 UNK     1      20.617  -6.743  36.594  1.00  0.00     0.073 A 
HETATM   18  C13 UNK     1      21.398  -6.913  37.718  1.00  0.00     0.132 A 
HETATM   19  F1  UNK     1      21.325  -6.073  38.759  1.00  0.00    -0.205 F 
HETATM   20  C16 UNK     1      22.281  -7.991  37.766  1.00  0.00     0.046 A 
HETATM   21  C17 UNK     1      22.366  -8.873  36.688  1.00  0.00     0.045 A 
HETATM   22  C15 UNK     1      21.565  -8.677  35.563  1.00  0.00     0.117 A 
HETATM   23  C14 UNK     1      20.681  -7.599  35.515  1.00  0.00     0.062 A 
HETATM   24  F2  UNK     1      21.646  -9.524  34.527  1.00  0.00    -0.206 F 
ENDBRANCH  14  17
ENDBRANCH   6  13
TORSDOF 2
ENDMDL
MODEL 10
REMARK VINA RESULT:      -8.8     13.876     18.660
REMARK  2 active torsions:
REMARK  status: ('A' for Active; 'I' for Inactive)
REMARK       I    between atoms: C11_17  and  N1_6 
REMARK    1  A    between atoms: C4_10  and  N1_6 
REMARK    2  A    between atoms: C11_17  and  C12_18 
ROOT
HETATM    1  O1  UNK     1      21.233  -5.718  14.984  1.00  0.00    -0.275 OA
HETATM    2  O3  UNK     1      22.017  -7.739  14.254  1.00  0.00    -0.260 OA
HETATM    3  C1  UNK     1      19.476  -4.590  13.716  1.00  0.00     0.004 A 
HETATM    4  C2  UNK     1      20.356  -4.631  14.798  1.00  0.00     0.092 A 
HETATM    5  C3  UNK     1      19.479  -5.709  12.764  1.00  0.00    -0.043 A 
HETATM    6  C4  UNK     1      19.576  -2.510  15.618  1.00  0.00     0.037 A 
HETATM    7  C5  UNK     1      20.417  -3.610  15.749  1.00  0.00     0.067 A 
HETATM    8  C6  UNK     1      18.637  -3.474  13.602  1.00  0.00     0.017 A 
HETATM    9  C7  UNK     1      18.686  -2.443  14.547  1.00  0.00     0.030 A 
HETATM   10  C8  UNK     1      20.324  -6.731  12.965  1.00  0.00     0.090 A 
HETATM   11  C9  UNK     1      18.545  -5.695  11.589  1.00  0.00     0.049 C 
HETATM   12  C10 UNK     1      21.258  -6.788  14.103  1.00  0.00     0.288 A 
ENDROOT
BRANCH   6  13
HETATM   13  N1  UNK     1      19.619  -1.479  16.557  1.00  0.00    -0.323 N 
HETATM   14  C11 UNK     1      18.562  -0.962  17.320  1.00  0.00     0.259 C 
HETATM   15  O2  UNK     1      17.393  -1.329  17.300  1.00  0.00    -0.267 OA
HETATM   16  H5  UNK     1      20.535  -1.053  16.669  1.00  0.00     0.169 HD
BRANCH  14  17
HETATM   17  C12 UNK     1      18.920   0.165  18.220  1.00  0.00     0.073 A 
HETATM   18  C13 UNK     1      19.062   1.428  17.687  1.00  0.00     0.132 A 
HETATM   19  F1  UNK     1      18.883   1.664  16.380  1.00  0.00    -0.205 F 
HETATM   20  C16 UNK     1      19.398   2.483  18.535  1.00  0.00     0.046 A 
HETATM   21  C17 UNK     1      19.586   2.251  19.898  1.00  0.00     0.045 A 
HETATM   22  C15 UNK     1      19.437   0.962  20.411  1.00  0.00     0.117 A 
HETATM   23  C14 UNK     1      19.100  -0.093  19.563  1.00  0.00     0.062 A 
HETATM   24  F2  UNK     1      19.618   0.738  21.720  1.00  0.00    -0.206 F 
ENDBRANCH  14  17
ENDBRANCH   6  13
TORSDOF 2
ENDMDL
