MODEL 1
REMARK VINA RESULT:     -10.7      0.000      0.000
REMARK  2 active torsions:
REMARK  status: ('A' for Active; 'I' for Inactive)
REMARK    1  A    between atoms: C1_6  and  N1_4 
REMARK       I    between atoms: C15_20  and  N2_5 
REMARK    2  A    between atoms: C15_20  and  C16_21 
ROOT
HETATM    1  O1  UNK     1      17.085  -0.450  35.375  1.00  0.00    -0.267 OA
HETATM    2  N1  UNK     1      20.082  -4.205  36.709  1.00  0.00     0.101 N 
HETATM    3  N2  UNK     1      18.938  -1.849  35.530  1.00  0.00    -0.344 N 
HETATM    4  C11 UNK     1      20.269  -3.928  35.280  1.00  0.00     0.293 C 
HETATM    5  C12 UNK     1      18.771  -3.712  37.154  1.00  0.00     0.293 C 
HETATM    6  C13 UNK     1      20.172  -2.428  34.986  1.00  0.00     0.156 C 
HETATM    7  C14 UNK     1      18.659  -2.207  36.922  1.00  0.00     0.156 C 
HETATM    8  C15 UNK     1      18.117  -0.920  34.893  1.00  0.00     0.260 C 
ENDROOT
BRANCH   8   9
HETATM    9  C16 UNK     1      18.515  -0.460  33.548  1.00  0.00     0.108 A 
HETATM   10  C17 UNK     1      19.116  -1.366  32.768  1.00  0.00     0.037 A 
HETATM   11  C19 UNK     1      19.545  -1.007  31.424  1.00  0.00    -0.001 A 
HETATM   12  C20 UNK     1      19.321   0.288  30.970  1.00  0.00     0.089 A 
HETATM   13  C21 UNK     1      20.175  -1.920  30.576  1.00  0.00     0.014 A 
HETATM   14  O2  UNK     1      18.687   1.236  31.796  1.00  0.00    -0.274 OA
HETATM   15  C22 UNK     1      19.707   0.696  29.694  1.00  0.00     0.038 A 
HETATM   16  C18 UNK     1      18.266   0.923  33.084  1.00  0.00     0.304 A 
HETATM   17  O3  UNK     1      17.716   1.756  33.797  1.00  0.00    -0.259 OA
HETATM   18  C24 UNK     1      20.336  -0.221  28.854  1.00  0.00     0.003 A 
HETATM   19  C23 UNK     1      20.569  -1.527  29.293  1.00  0.00     0.001 A 
ENDBRANCH   8   9
BRANCH   2  20
HETATM   20  C1  UNK     1      20.211  -5.637  36.976  1.00  0.00     0.161 C 
HETATM   21  C5  UNK     1      21.485  -5.899  37.809  1.00  0.00     0.046 C 
HETATM   22  C2  UNK     1      21.635  -7.406  38.088  1.00  0.00    -0.011 C 
HETATM   23  C8  UNK     1      20.402  -7.902  38.863  1.00  0.00     0.009 C 
HETATM   24  C9  UNK     1      21.729  -8.161  36.750  1.00  0.00     0.009 C 
HETATM   25  C3  UNK     1      19.126  -7.658  38.040  1.00  0.00    -0.011 C 
HETATM   26  C10 UNK     1      19.234  -8.411  36.703  1.00  0.00     0.009 C 
HETATM   27  C6  UNK     1      18.984  -6.150  37.762  1.00  0.00     0.046 C 
HETATM   28  C4  UNK     1      20.460  -7.918  35.915  1.00  0.00    -0.011 C 
HETATM   29  C7  UNK     1      20.314  -6.410  35.643  1.00  0.00     0.046 C 
ENDBRANCH   2  20
TORSDOF 2
ENDMDL
MODEL 2
REMARK VINA RESULT:     -10.6     28.019     30.757
REMARK  2 active torsions:
REMARK  status: ('A' for Active; 'I' for Inactive)
REMARK    1  A    between atoms: C1_6  and  N1_4 
REMARK       I    between atoms: C15_20  and  N2_5 
REMARK    2  A    between atoms: C15_20  and  C16_21 
ROOT
HETATM    1  O1  UNK     1      15.578   6.507   9.579  1.00  0.00    -0.267 OA
HETATM    2  N1  UNK     1      16.757  11.318   9.008  1.00  0.00     0.101 N 
HETATM    3  N2  UNK     1      15.403   8.824   9.449  1.00  0.00    -0.344 N 
HETATM    4  C11 UNK     1      15.444  11.072   8.400  1.00  0.00     0.293 C 
HETATM    5  C12 UNK     1      17.518  10.064   9.098  1.00  0.00     0.293 C 
HETATM    6  C13 UNK     1      14.637  10.053   9.210  1.00  0.00     0.156 C 
HETATM    7  C14 UNK     1      16.764   9.041   9.943  1.00  0.00     0.156 C 
HETATM    8  C15 UNK     1      14.911   7.523   9.371  1.00  0.00     0.260 C 
ENDROOT
BRANCH   8   9
HETATM    9  C16 UNK     1      13.487   7.346   9.023  1.00  0.00     0.108 A 
HETATM   10  C17 UNK     1      13.231   6.935   7.776  1.00  0.00     0.037 A 
HETATM   11  C19 UNK     1      11.858   6.732   7.338  1.00  0.00    -0.001 A 
HETATM   12  C20 UNK     1      10.823   6.974   8.236  1.00  0.00     0.089 A 
HETATM   13  C21 UNK     1      11.545   6.305   6.046  1.00  0.00     0.014 A 
HETATM   14  O2  UNK     1      11.100   7.405   9.547  1.00  0.00    -0.274 OA
HETATM   15  C22 UNK     1       9.487   6.799   7.879  1.00  0.00     0.038 A 
HETATM   16  C18 UNK     1      12.402   7.608   9.994  1.00  0.00     0.304 A 
HETATM   17  O3  UNK     1      12.633   7.985  11.139  1.00  0.00    -0.259 OA
HETATM   18  C24 UNK     1       9.183   6.373   6.588  1.00  0.00     0.003 A 
HETATM   19  C23 UNK     1      10.209   6.124   5.673  1.00  0.00     0.001 A 
ENDBRANCH   8   9
BRANCH   2  20
HETATM   20  C1  UNK     1      17.500  12.317   8.241  1.00  0.00     0.161 C 
HETATM   21  C5  UNK     1      18.712  11.651   7.553  1.00  0.00     0.046 C 
HETATM   22  C2  UNK     1      19.506  12.698   6.750  1.00  0.00    -0.011 C 
HETATM   23  C8  UNK     1      18.588  13.321   5.685  1.00  0.00     0.009 C 
HETATM   24  C9  UNK     1      19.998  13.801   7.704  1.00  0.00     0.009 C 
HETATM   25  C3  UNK     1      17.382  13.999   6.357  1.00  0.00    -0.011 C 
HETATM   26  C10 UNK     1      17.885  15.095   7.313  1.00  0.00     0.009 C 
HETATM   27  C6  UNK     1      16.594  12.949   7.161  1.00  0.00     0.046 C 
HETATM   28  C4  UNK     1      18.799  14.481   8.387  1.00  0.00    -0.011 C 
HETATM   29  C7  UNK     1      18.007  13.430   9.185  1.00  0.00     0.046 C 
ENDBRANCH   2  20
TORSDOF 2
ENDMDL
MODEL 3
REMARK VINA RESULT:     -10.1     27.354     29.857
REMARK  2 active torsions:
REMARK  status: ('A' for Active; 'I' for Inactive)
REMARK    1  A    between atoms: C1_6  and  N1_4 
REMARK       I    between atoms: C15_20  and  N2_5 
REMARK    2  A    between atoms: C15_20  and  C16_21 
ROOT
HETATM    1  O1  UNK     1      15.158   5.212   8.875  1.00  0.00    -0.267 OA
HETATM    2  N1  UNK     1      16.230   9.945  10.019  1.00  0.00     0.101 N 
HETATM    3  N2  UNK     1      14.940   7.415   9.594  1.00  0.00    -0.344 N 
HETATM    4  C11 UNK     1      14.891   9.889   9.420  1.00  0.00     0.293 C 
HETATM    5  C12 UNK     1      17.014   8.769   9.620  1.00  0.00     0.293 C 
HETATM    6  C13 UNK     1      14.144   8.622   9.844  1.00  0.00     0.156 C 
HETATM    7  C14 UNK     1      16.321   7.486  10.073  1.00  0.00     0.156 C 
HETATM    8  C15 UNK     1      14.465   6.212   9.075  1.00  0.00     0.260 C 
ENDROOT
BRANCH   8   9
HETATM    9  C16 UNK     1      13.028   6.124   8.748  1.00  0.00     0.108 A 
HETATM   10  C17 UNK     1      12.684   6.470   7.503  1.00  0.00     0.037 A 
HETATM   11  C19 UNK     1      11.291   6.416   7.085  1.00  0.00    -0.001 A 
HETATM   12  C20 UNK     1      10.329   6.002   8.001  1.00  0.00     0.089 A 
HETATM   13  C21 UNK     1      10.886   6.768   5.795  1.00  0.00     0.014 A 
HETATM   14  O2  UNK     1      10.699   5.639   9.311  1.00  0.00    -0.274 OA
HETATM   15  C22 UNK     1       8.978   5.929   7.666  1.00  0.00     0.038 A 
HETATM   16  C18 UNK     1      12.022   5.680   9.739  1.00  0.00     0.304 A 
HETATM   17  O3  UNK     1      12.334   5.363  10.882  1.00  0.00    -0.259 OA
HETATM   18  C24 UNK     1       8.583   6.282   6.377  1.00  0.00     0.003 A 
HETATM   19  C23 UNK     1       9.534   6.699   5.443  1.00  0.00     0.001 A 
ENDBRANCH   8   9
BRANCH   2  20
HETATM   20  C1  UNK     1      16.916  11.177   9.631  1.00  0.00     0.161 C 
HETATM   21  C5  UNK     1      15.932  12.111   8.892  1.00  0.00     0.046 C 
HETATM   22  C2  UNK     1      16.648  13.407   8.470  1.00  0.00    -0.011 C 
HETATM   23  C8  UNK     1      17.189  14.117   9.724  1.00  0.00     0.009 C 
HETATM   24  C9  UNK     1      17.822  13.057   7.540  1.00  0.00     0.009 C 
HETATM   25  C3  UNK     1      18.179  13.202  10.463  1.00  0.00    -0.011 C 
HETATM   26  C10 UNK     1      19.346  12.853   9.522  1.00  0.00     0.009 C 
HETATM   27  C6  UNK     1      17.459  11.907  10.879  1.00  0.00     0.046 C 
HETATM   28  C4  UNK     1      18.817  12.136   8.268  1.00  0.00    -0.011 C 
HETATM   29  C7  UNK     1      18.095  10.844   8.690  1.00  0.00     0.046 C 
ENDBRANCH   2  20
TORSDOF 2
ENDMDL
MODEL 4
REMARK VINA RESULT:     -10.0      9.254     12.575
REMARK  2 active torsions:
REMARK  status: ('A' for Active; 'I' for Inactive)
REMARK    1  A    between atoms: C1_6  and  N1_4 
REMARK       I    between atoms: C15_20  and  N2_5 
REMARK    2  A    between atoms: C15_20  and  C16_21 
ROOT
HETATM    1  O1  UNK     1      27.654  -8.416  40.198  1.00  0.00    -0.267 OA
HETATM    2  N1  UNK     1      30.606  -6.054  36.948  1.00  0.00     0.101 N 
HETATM    3  N2  UNK     1      28.383  -7.229  38.335  1.00  0.00    -0.344 N 
HETATM    4  C11 UNK     1      29.592  -6.814  36.208  1.00  0.00     0.293 C 
HETATM    5  C12 UNK     1      30.782  -6.619  38.293  1.00  0.00     0.293 C 
HETATM    6  C13 UNK     1      28.245  -6.801  36.937  1.00  0.00     0.156 C 
HETATM    7  C14 UNK     1      29.468  -6.575  39.067  1.00  0.00     0.156 C 
HETATM    8  C15 UNK     1      27.514  -8.074  39.022  1.00  0.00     0.260 C 
ENDROOT
BRANCH   8   9
HETATM    9  C16 UNK     1      26.339  -8.592  38.295  1.00  0.00     0.108 A 
HETATM   10  C17 UNK     1      26.475  -9.800  37.735  1.00  0.00     0.037 A 
HETATM   11  C19 UNK     1      25.372 -10.395  36.997  1.00  0.00    -0.001 A 
HETATM   12  C20 UNK     1      24.179  -9.688  36.883  1.00  0.00     0.089 A 
HETATM   13  C21 UNK     1      25.470 -11.652  36.397  1.00  0.00     0.014 A 
HETATM   14  O2  UNK     1      24.042  -8.417  37.475  1.00  0.00    -0.274 OA
HETATM   15  C22 UNK     1      23.084 -10.201  36.190  1.00  0.00     0.038 A 
HETATM   16  C18 UNK     1      25.079  -7.823  38.187  1.00  0.00     0.304 A 
HETATM   17  O3  UNK     1      24.950  -6.715  38.698  1.00  0.00    -0.259 OA
HETATM   18  C24 UNK     1      23.191 -11.456  35.594  1.00  0.00     0.003 A 
HETATM   19  C23 UNK     1      24.380 -12.181  35.698  1.00  0.00     0.001 A 
ENDBRANCH   8   9
BRANCH   2  20
HETATM   20  C1  UNK     1      31.876  -6.048  36.222  1.00  0.00     0.161 C 
HETATM   21  C5  UNK     1      32.227  -7.485  35.775  1.00  0.00     0.046 C 
HETATM   22  C2  UNK     1      33.567  -7.491  35.017  1.00  0.00    -0.011 C 
HETATM   23  C8  UNK     1      33.455  -6.580  33.782  1.00  0.00     0.009 C 
HETATM   24  C9  UNK     1      34.674  -6.955  35.942  1.00  0.00     0.009 C 
HETATM   25  C3  UNK     1      33.117  -5.143  34.214  1.00  0.00    -0.011 C 
HETATM   26  C10 UNK     1      34.225  -4.619  35.144  1.00  0.00     0.009 C 
HETATM   27  C6  UNK     1      31.778  -5.144  34.974  1.00  0.00     0.046 C 
HETATM   28  C4  UNK     1      34.343  -5.519  36.386  1.00  0.00    -0.011 C 
HETATM   29  C7  UNK     1      33.001  -5.519  37.140  1.00  0.00     0.046 C 
ENDBRANCH   2  20
TORSDOF 2
ENDMDL
MODEL 5
REMARK VINA RESULT:      -9.9     27.486     30.301
REMARK  2 active torsions:
REMARK  status: ('A' for Active; 'I' for Inactive)
REMARK    1  A    between atoms: C1_6  and  N1_4 
REMARK       I    between atoms: C15_20  and  N2_5 
REMARK    2  A    between atoms: C15_20  and  C16_21 
ROOT
HETATM    1  O1  UNK     1      14.678   6.580  10.830  1.00  0.00    -0.267 OA
HETATM    2  N1  UNK     1      16.244  11.080   9.361  1.00  0.00     0.101 N 
HETATM    3  N2  UNK     1      14.713   8.708   9.890  1.00  0.00    -0.344 N 
HETATM    4  C11 UNK     1      15.378  10.512   8.320  1.00  0.00     0.293 C 
HETATM    5  C12 UNK     1      16.797  10.010  10.201  1.00  0.00     0.293 C 
HETATM    6  C13 UNK     1      14.227   9.709   8.932  1.00  0.00     0.156 C 
HETATM    7  C14 UNK     1      15.675   9.219  10.868  1.00  0.00     0.156 C 
HETATM    8  C15 UNK     1      14.251   7.400  10.015  1.00  0.00     0.260 C 
ENDROOT
BRANCH   8   9
HETATM    9  C16 UNK     1      13.166   6.965   9.113  1.00  0.00     0.108 A 
HETATM   10  C17 UNK     1      11.939   7.410   9.406  1.00  0.00     0.037 A 
HETATM   11  C19 UNK     1      10.805   7.035   8.575  1.00  0.00    -0.001 A 
HETATM   12  C20 UNK     1      11.020   6.209   7.476  1.00  0.00     0.089 A 
HETATM   13  C21 UNK     1       9.507   7.476   8.844  1.00  0.00     0.014 A 
HETATM   14  O2  UNK     1      12.314   5.745   7.172  1.00  0.00    -0.274 OA
HETATM   15  C22 UNK     1       9.977   5.813   6.640  1.00  0.00     0.038 A 
HETATM   16  C18 UNK     1      13.418   6.086   7.948  1.00  0.00     0.304 A 
HETATM   17  O3  UNK     1      14.541   5.676   7.676  1.00  0.00    -0.259 OA
HETATM   18  C24 UNK     1       8.685   6.257   6.916  1.00  0.00     0.003 A 
HETATM   19  C23 UNK     1       8.450   7.088   8.014  1.00  0.00     0.001 A 
ENDBRANCH   8   9
BRANCH   2  20
HETATM   20  C1  UNK     1      17.318  11.871   8.761  1.00  0.00     0.161 C 
HETATM   21  C5  UNK     1      18.490  10.945   8.367  1.00  0.00     0.046 C 
HETATM   22  C2  UNK     1      19.630  11.769   7.743  1.00  0.00    -0.011 C 
HETATM   23  C8  UNK     1      19.104  12.493   6.491  1.00  0.00     0.009 C 
HETATM   24  C9  UNK     1      20.118  12.812   8.763  1.00  0.00     0.009 C 
HETATM   25  C3  UNK     1      17.943  13.429   6.871  1.00  0.00    -0.011 C 
HETATM   26  C10 UNK     1      18.440  14.463   7.896  1.00  0.00     0.009 C 
HETATM   27  C6  UNK     1      16.808  12.599   7.498  1.00  0.00     0.046 C 
HETATM   28  C4  UNK     1      18.963  13.750   9.155  1.00  0.00    -0.011 C 
HETATM   29  C7  UNK     1      17.825  12.919   9.776  1.00  0.00     0.046 C 
ENDBRANCH   2  20
TORSDOF 2
ENDMDL
MODEL 6
REMARK VINA RESULT:      -9.8     11.692     13.911
REMARK  2 active torsions:
REMARK  status: ('A' for Active; 'I' for Inactive)
REMARK    1  A    between atoms: C1_6  and  N1_4 
REMARK       I    between atoms: C15_20  and  N2_5 
REMARK    2  A    between atoms: C15_20  and  C16_21 
ROOT
HETATM    1  O1  UNK     1      32.704  -4.377  34.571  1.00  0.00    -0.267 OA
HETATM    2  N1  UNK     1      30.045  -7.076  37.812  1.00  0.00     0.101 N 
HETATM    3  N2  UNK     1      32.130  -5.941  36.195  1.00  0.00    -0.344 N 
HETATM    4  C11 UNK     1      31.033  -7.946  37.162  1.00  0.00     0.293 C 
HETATM    5  C12 UNK     1      29.780  -5.897  36.977  1.00  0.00     0.293 C 
HETATM    6  C13 UNK     1      32.349  -7.203  36.911  1.00  0.00     0.156 C 
HETATM    7  C14 UNK     1      31.064  -5.104  36.748  1.00  0.00     0.156 C 
HETATM    8  C15 UNK     1      32.911  -5.442  35.155  1.00  0.00     0.260 C 
ENDROOT
BRANCH   8   9
HETATM    9  C16 UNK     1      34.076  -6.241  34.725  1.00  0.00     0.108 A 
HETATM   10  C17 UNK     1      33.902  -7.002  33.639  1.00  0.00     0.037 A 
HETATM   11  C19 UNK     1      34.992  -7.826  33.138  1.00  0.00    -0.001 A 
HETATM   12  C20 UNK     1      36.211  -7.809  33.808  1.00  0.00     0.089 A 
HETATM   13  C21 UNK     1      34.854  -8.635  32.008  1.00  0.00     0.014 A 
HETATM   14  O2  UNK     1      36.388  -7.005  34.950  1.00  0.00    -0.274 OA
HETATM   15  C22 UNK     1      37.294  -8.574  33.380  1.00  0.00     0.038 A 
HETATM   16  C18 UNK     1      35.365  -6.207  35.453  1.00  0.00     0.304 A 
HETATM   17  O3  UNK     1      35.528  -5.511  36.450  1.00  0.00    -0.259 OA
HETATM   18  C24 UNK     1      37.148  -9.379  32.252  1.00  0.00     0.003 A 
HETATM   19  C23 UNK     1      35.932  -9.409  31.566  1.00  0.00     0.001 A 
ENDBRANCH   8   9
BRANCH   2  20
HETATM   20  C1  UNK     1      28.808  -7.810  38.074  1.00  0.00     0.161 C 
HETATM   21  C5  UNK     1      29.129  -9.299  38.330  1.00  0.00     0.046 C 
HETATM   22  C2  UNK     1      27.831 -10.082  38.597  1.00  0.00    -0.011 C 
HETATM   23  C8  UNK     1      27.127  -9.489  39.830  1.00  0.00     0.009 C 
HETATM   24  C9  UNK     1      26.904  -9.958  37.376  1.00  0.00     0.009 C 
HETATM   25  C3  UNK     1      26.790  -8.008  39.584  1.00  0.00    -0.011 C 
HETATM   26  C10 UNK     1      25.869  -7.894  38.358  1.00  0.00     0.009 C 
HETATM   27  C6  UNK     1      28.091  -7.231  39.314  1.00  0.00     0.046 C 
HETATM   28  C4  UNK     1      26.565  -8.479  37.117  1.00  0.00    -0.011 C 
HETATM   29  C7  UNK     1      27.867  -7.701  36.853  1.00  0.00     0.046 C 
ENDBRANCH   2  20
TORSDOF 2
ENDMDL
MODEL 7
REMARK VINA RESULT:      -9.7     11.949     14.681
REMARK  2 active torsions:
REMARK  status: ('A' for Active; 'I' for Inactive)
REMARK    1  A    between atoms: C1_6  and  N1_4 
REMARK       I    between atoms: C15_20  and  N2_5 
REMARK    2  A    between atoms: C15_20  and  C16_21 
ROOT
HETATM    1  O1  UNK     1      29.926  -8.295  30.077  1.00  0.00    -0.267 OA
HETATM    2  N1  UNK     1      31.700  -6.430  34.347  1.00  0.00     0.101 N 
HETATM    3  N2  UNK     1      31.307  -7.889  31.905  1.00  0.00    -0.344 N 
HETATM    4  C11 UNK     1      32.016  -7.862  34.283  1.00  0.00     0.293 C 
HETATM    5  C12 UNK     1      30.562  -6.122  33.471  1.00  0.00     0.293 C 
HETATM    6  C13 UNK     1      32.353  -8.294  32.853  1.00  0.00     0.156 C 
HETATM    7  C14 UNK     1      30.883  -6.494  32.026  1.00  0.00     0.156 C 
HETATM    8  C15 UNK     1      30.805  -8.661  30.859  1.00  0.00     0.260 C 
ENDROOT
BRANCH   8   9
HETATM    9  C16 UNK     1      31.370 -10.012  30.669  1.00  0.00     0.108 A 
HETATM   10  C17 UNK     1      30.802 -10.995  31.376  1.00  0.00     0.037 A 
HETATM   11  C19 UNK     1      31.289 -12.361  31.255  1.00  0.00    -0.001 A 
HETATM   12  C20 UNK     1      32.352 -12.623  30.398  1.00  0.00     0.089 A 
HETATM   13  C21 UNK     1      30.725 -13.418  31.974  1.00  0.00     0.014 A 
HETATM   14  O2  UNK     1      32.946 -11.584  29.656  1.00  0.00    -0.274 OA
HETATM   15  C22 UNK     1      32.866 -13.909  30.237  1.00  0.00     0.038 A 
HETATM   16  C18 UNK     1      32.502 -10.268  29.750  1.00  0.00     0.304 A 
HETATM   17  O3  UNK     1      33.026  -9.369  29.101  1.00  0.00    -0.259 OA
HETATM   18  C24 UNK     1      32.299 -14.957  30.958  1.00  0.00     0.003 A 
HETATM   19  C23 UNK     1      31.230 -14.714  31.823  1.00  0.00     0.001 A 
ENDBRANCH   8   9
BRANCH   2  20
HETATM   20  C1  UNK     1      31.415  -6.028  35.724  1.00  0.00     0.161 C 
HETATM   21  C5  UNK     1      32.076  -7.021  36.705  1.00  0.00     0.046 C 
HETATM   22  C2  UNK     1      31.773  -6.611  38.158  1.00  0.00    -0.011 C 
HETATM   23  C8  UNK     1      32.321  -5.196  38.410  1.00  0.00     0.009 C 
HETATM   24  C9  UNK     1      30.249  -6.610  38.376  1.00  0.00     0.009 C 
HETATM   25  C3  UNK     1      31.662  -4.194  37.447  1.00  0.00    -0.011 C 
HETATM   26  C10 UNK     1      30.140  -4.206  37.668  1.00  0.00     0.009 C 
HETATM   27  C6  UNK     1      31.966  -4.611  35.996  1.00  0.00     0.046 C 
HETATM   28  C4  UNK     1      29.578  -5.615  37.412  1.00  0.00    -0.011 C 
HETATM   29  C7  UNK     1      29.888  -6.028  35.962  1.00  0.00     0.046 C 
ENDBRANCH   2  20
TORSDOF 2
ENDMDL
MODEL 8
REMARK VINA RESULT:      -9.7      7.194     10.122
REMARK  2 active torsions:
REMARK  status: ('A' for Active; 'I' for Inactive)
REMARK    1  A    between atoms: C1_6  and  N1_4 
REMARK       I    between atoms: C15_20  and  N2_5 
REMARK    2  A    between atoms: C15_20  and  C16_21 
ROOT
HETATM    1  O1  UNK     1      27.172  -4.656  38.668  1.00  0.00    -0.267 OA
HETATM    2  N1  UNK     1      23.470  -7.995  38.742  1.00  0.00     0.101 N 
HETATM    3  N2  UNK     1      26.022  -6.678  38.674  1.00  0.00    -0.344 N 
HETATM    4  C11 UNK     1      24.522  -8.466  37.831  1.00  0.00     0.293 C 
HETATM    5  C12 UNK     1      23.560  -6.538  38.910  1.00  0.00     0.293 C 
HETATM    6  C13 UNK     1      25.914  -8.108  38.357  1.00  0.00     0.156 C 
HETATM    7  C14 UNK     1      24.921  -6.149  39.482  1.00  0.00     0.156 C 
HETATM    8  C15 UNK     1      27.109  -5.854  38.389  1.00  0.00     0.260 C 
ENDROOT
BRANCH   8   9
HETATM    9  C16 UNK     1      28.272  -6.461  37.711  1.00  0.00     0.108 A 
HETATM   10  C17 UNK     1      29.379  -6.601  38.449  1.00  0.00     0.037 A 
HETATM   11  C19 UNK     1      30.577  -7.189  37.869  1.00  0.00    -0.001 A 
HETATM   12  C20 UNK     1      30.550  -7.597  36.540  1.00  0.00     0.089 A 
HETATM   13  C21 UNK     1      31.754  -7.355  38.603  1.00  0.00     0.014 A 
HETATM   14  O2  UNK     1      29.382  -7.447  35.769  1.00  0.00    -0.274 OA
HETATM   15  C22 UNK     1      31.664  -8.167  35.924  1.00  0.00     0.038 A 
HETATM   16  C18 UNK     1      28.221  -6.889  36.296  1.00  0.00     0.304 A 
HETATM   17  O3  UNK     1      27.208  -6.761  35.616  1.00  0.00    -0.259 OA
HETATM   18  C24 UNK     1      32.834  -8.328  36.663  1.00  0.00     0.003 A 
HETATM   19  C23 UNK     1      32.880  -7.925  37.999  1.00  0.00     0.001 A 
ENDBRANCH   8   9
BRANCH   2  20
HETATM   20  C1  UNK     1      22.150  -8.375  38.242  1.00  0.00     0.161 C 
HETATM   21  C5  UNK     1      22.301  -9.385  37.083  1.00  0.00     0.046 C 
HETATM   22  C2  UNK     1      20.916  -9.784  36.543  1.00  0.00    -0.011 C 
HETATM   23  C8  UNK     1      20.095 -10.422  37.678  1.00  0.00     0.009 C 
HETATM   24  C9  UNK     1      20.188  -8.526  36.037  1.00  0.00     0.009 C 
HETATM   25  C3  UNK     1      19.926  -9.422  38.834  1.00  0.00    -0.011 C 
HETATM   26  C10 UNK     1      19.204  -8.166  38.317  1.00  0.00     0.009 C 
HETATM   27  C6  UNK     1      21.315  -9.024  39.367  1.00  0.00     0.046 C 
HETATM   28  C4  UNK     1      20.019  -7.515  37.185  1.00  0.00    -0.011 C 
HETATM   29  C7  UNK     1      21.407  -7.123  37.723  1.00  0.00     0.046 C 
ENDBRANCH   2  20
TORSDOF 2
ENDMDL
MODEL 9
REMARK VINA RESULT:      -9.6     10.047     11.798
REMARK  2 active torsions:
REMARK  status: ('A' for Active; 'I' for Inactive)
REMARK    1  A    between atoms: C1_6  and  N1_4 
REMARK       I    between atoms: C15_20  and  N2_5 
REMARK    2  A    between atoms: C15_20  and  C16_21 
ROOT
HETATM    1  O1  UNK     1      30.588  -5.140  32.316  1.00  0.00    -0.267 OA
HETATM    2  N1  UNK     1      29.544  -8.018  36.251  1.00  0.00     0.101 N 
HETATM    3  N2  UNK     1      30.415  -6.991  33.714  1.00  0.00    -0.344 N 
HETATM    4  C11 UNK     1      29.300  -8.782  35.021  1.00  0.00     0.293 C 
HETATM    5  C12 UNK     1      29.487  -6.576  35.972  1.00  0.00     0.293 C 
HETATM    6  C13 UNK     1      30.329  -8.439  33.941  1.00  0.00     0.156 C 
HETATM    7  C14 UNK     1      30.536  -6.191  34.933  1.00  0.00     0.156 C 
HETATM    8  C15 UNK     1      30.517  -6.359  32.477  1.00  0.00     0.260 C 
ENDROOT
BRANCH   8   9
HETATM    9  C16 UNK     1      30.550  -7.210  31.271  1.00  0.00     0.108 A 
HETATM   10  C17 UNK     1      29.389  -7.769  30.909  1.00  0.00     0.037 A 
HETATM   11  C19 UNK     1      29.321  -8.624  29.734  1.00  0.00    -0.001 A 
HETATM   12  C20 UNK     1      30.480  -8.850  28.999  1.00  0.00     0.089 A 
HETATM   13  C21 UNK     1      28.131  -9.227  29.321  1.00  0.00     0.014 A 
HETATM   14  O2  UNK     1      31.699  -8.260  29.384  1.00  0.00    -0.274 OA
HETATM   15  C22 UNK     1      30.483  -9.659  27.863  1.00  0.00     0.038 A 
HETATM   16  C18 UNK     1      31.795  -7.437  30.502  1.00  0.00     0.304 A 
HETATM   17  O3  UNK     1      32.861  -6.928  30.831  1.00  0.00    -0.259 OA
HETATM   18  C24 UNK     1      29.291 -10.257  27.458  1.00  0.00     0.003 A 
HETATM   19  C23 UNK     1      28.117 -10.041  28.184  1.00  0.00     0.001 A 
ENDBRANCH   8   9
BRANCH   2  20
HETATM   20  C1  UNK     1      28.573  -8.381  37.283  1.00  0.00     0.161 C 
HETATM   21  C5  UNK     1      27.374  -9.111  36.637  1.00  0.00     0.046 C 
HETATM   22  C2  UNK     1      26.342  -9.490  37.715  1.00  0.00    -0.011 C 
HETATM   23  C8  UNK     1      27.008 -10.411  38.752  1.00  0.00     0.009 C 
HETATM   24  C9  UNK     1      25.850  -8.212  38.416  1.00  0.00     0.009 C 
HETATM   25  C3  UNK     1      28.197  -9.693  39.411  1.00  0.00    -0.011 C 
HETATM   26  C10 UNK     1      27.695  -8.413  40.103  1.00  0.00     0.009 C 
HETATM   27  C6  UNK     1      29.224  -9.313  38.329  1.00  0.00     0.046 C 
HETATM   28  C4  UNK     1      27.033  -7.481  39.074  1.00  0.00    -0.011 C 
HETATM   29  C7  UNK     1      28.063  -7.108  37.993  1.00  0.00     0.046 C 
ENDBRANCH   2  20
TORSDOF 2
ENDMDL
MODEL 10
REMARK VINA RESULT:      -9.5     28.006     29.326
REMARK  2 active torsions:
REMARK  status: ('A' for Active; 'I' for Inactive)
REMARK    1  A    between atoms: C1_6  and  N1_4 
REMARK       I    between atoms: C15_20  and  N2_5 
REMARK    2  A    between atoms: C15_20  and  C16_21 
ROOT
HETATM    1  O1  UNK     1      15.384  13.046  10.343  1.00  0.00    -0.267 OA
HETATM    2  N1  UNK     1      13.645   8.408   9.776  1.00  0.00     0.101 N 
HETATM    3  N2  UNK     1      15.292  10.728  10.171  1.00  0.00    -0.344 N 
HETATM    4  C11 UNK     1      14.941   8.520   9.094  1.00  0.00     0.293 C 
HETATM    5  C12 UNK     1      13.036   9.736   9.927  1.00  0.00     0.293 C 
HETATM    6  C13 UNK     1      15.901   9.426   9.869  1.00  0.00     0.156 C 
HETATM    7  C14 UNK     1      13.946  10.652  10.741  1.00  0.00     0.156 C 
HETATM    8  C15 UNK     1      15.921  11.968  10.082  1.00  0.00     0.260 C 
ENDROOT
BRANCH   8   9
HETATM    9  C16 UNK     1      17.333  11.993   9.653  1.00  0.00     0.108 A 
HETATM   10  C17 UNK     1      18.246  12.077  10.628  1.00  0.00     0.037 A 
HETATM   11  C19 UNK     1      19.664  12.108  10.304  1.00  0.00    -0.001 A 
HETATM   12  C20 UNK     1      20.051  12.051   8.969  1.00  0.00     0.089 A 
HETATM   13  C21 UNK     1      20.651  12.195  11.289  1.00  0.00     0.014 A 
HETATM   14  O2  UNK     1      19.085  11.962   7.948  1.00  0.00    -0.274 OA
HETATM   15  C22 UNK     1      21.392  12.077   8.592  1.00  0.00     0.038 A 
HETATM   16  C18 UNK     1      17.723  11.930   8.226  1.00  0.00     0.304 A 
HETATM   17  O3  UNK     1      16.889  11.854   7.330  1.00  0.00    -0.259 OA
HETATM   18  C24 UNK     1      22.370  12.164   9.580  1.00  0.00     0.003 A 
HETATM   19  C23 UNK     1      22.001  12.222  10.926  1.00  0.00     0.001 A 
ENDBRANCH   8   9
BRANCH   2  20
HETATM   20  C1  UNK     1      12.753   7.513   9.040  1.00  0.00     0.161 C 
HETATM   21  C5  UNK     1      12.634   6.165   9.786  1.00  0.00     0.046 C 
HETATM   22  C2  UNK     1      11.704   5.212   9.014  1.00  0.00    -0.011 C 
HETATM   23  C8  UNK     1      10.312   5.855   8.888  1.00  0.00     0.009 C 
HETATM   24  C9  UNK     1      12.280   4.972   7.607  1.00  0.00     0.009 C 
HETATM   25  C3  UNK     1      10.414   7.193   8.136  1.00  0.00    -0.011 C 
HETATM   26  C10 UNK     1      10.996   6.943   6.734  1.00  0.00     0.009 C 
HETATM   27  C6  UNK     1      11.348   8.141   8.911  1.00  0.00     0.046 C 
HETATM   28  C4  UNK     1      12.392   6.306   6.847  1.00  0.00    -0.011 C 
HETATM   29  C7  UNK     1      13.320   7.255   7.626  1.00  0.00     0.046 C 
ENDBRANCH   2  20
TORSDOF 2
ENDMDL
