MODEL 1
REMARK VINA RESULT:     -10.4      0.000      0.000
REMARK  9 active torsions:
REMARK  status: ('A' for Active; 'I' for Inactive)
REMARK    1  A    between atoms: C11_19  and  O2_2 
REMARK    2  A    between atoms: C15_23  and  O2_2 
REMARK    3  A    between atoms: N1_6  and  N2_7 
REMARK    4  A    between atoms: C27_35  and  N2_7 
REMARK    5  A    between atoms: C30_38  and  N3_8 
REMARK    6  A    between atoms: C2_10  and  C4_12 
REMARK    7  A    between atoms: C4_12  and  C7_15 
REMARK    8  A    between atoms: C15_23  and  C16_24 
REMARK    9  A    between atoms: C16_24  and  C17_25 
ROOT
HETATM    1  C15 UNK     1      22.504  -5.422  38.340  1.00  0.00     0.237 C 
ENDROOT
BRANCH   1   2
HETATM    2  O2  UNK     1      23.080  -6.477  39.110  1.00  0.00    -0.345 OA
BRANCH   2   3
HETATM    3  C11 UNK     1      24.414  -6.693  38.964  1.00  0.00     0.071 A 
HETATM    4  C10 UNK     1      25.305  -5.627  39.011  1.00  0.00     0.075 A 
HETATM    5  C5  UNK     1      26.673  -5.872  38.859  1.00  0.00     0.092 A 
HETATM    6  C3  UNK     1      27.188  -7.149  38.664  1.00  0.00     0.005 A 
HETATM    7  O1  UNK     1      27.515  -4.751  38.909  1.00  0.00    -0.274 OA
HETATM    8  C1  UNK     1      28.649  -7.315  38.512  1.00  0.00    -0.036 A 
HETATM    9  C8  UNK     1      26.269  -8.210  38.614  1.00  0.00     0.017 A 
HETATM   10  C2  UNK     1      29.445  -6.225  38.528  1.00  0.00     0.029 A 
HETATM   11  C9  UNK     1      29.164  -8.725  38.362  1.00  0.00     0.050 C 
HETATM   12  C6  UNK     1      28.887  -4.859  38.751  1.00  0.00     0.295 A 
HETATM   13  O3  UNK     1      29.601  -3.863  38.803  1.00  0.00    -0.259 OA
HETATM   14  C12 UNK     1      24.896  -7.983  38.764  1.00  0.00     0.038 A 
BRANCH  10  15
HETATM   15  C4  UNK     1      30.938  -6.244  38.322  1.00  0.00     0.084 C 
BRANCH  15  16
HETATM   16  C7  UNK     1      31.326  -5.778  36.949  1.00  0.00    -0.054 A 
HETATM   17  C13 UNK     1      30.740  -6.363  35.832  1.00  0.00     0.007 A 
HETATM   18  C18 UNK     1      31.101  -5.930  34.556  1.00  0.00     0.001 A 
HETATM   19  C20 UNK     1      32.045  -4.914  34.405  1.00  0.00     0.000 A 
HETATM   20  C19 UNK     1      32.628  -4.332  35.530  1.00  0.00     0.001 A 
HETATM   21  C14 UNK     1      32.268  -4.765  36.806  1.00  0.00     0.007 A 
ENDBRANCH  15  16
ENDBRANCH  10  15
ENDBRANCH   2   3
ENDBRANCH   1   2
BRANCH   1  22
HETATM   22  C16 UNK     1      21.077  -5.791  37.958  1.00  0.00     0.089 C 
HETATM   23  N1  UNK     1      20.171  -4.937  37.581  1.00  0.00    -0.176 NA
BRANCH  23  24
HETATM   24  N2  UNK     1      20.506  -3.633  37.560  1.00  0.00    -0.278 N 
HETATM   25  H23 UNK     1      21.123  -3.228  38.253  1.00  0.00     0.189 HD
BRANCH  24  26
HETATM   26  C27 UNK     1      19.849  -2.743  36.696  1.00  0.00     0.050 A 
HETATM   27  C28 UNK     1      18.800  -1.949  37.168  1.00  0.00     0.033 A 
HETATM   28  C31 UNK     1      18.150  -1.062  36.310  1.00  0.00     0.038 A 
HETATM   29  C30 UNK     1      18.546  -0.965  34.976  1.00  0.00     0.103 A 
HETATM   30  C32 UNK     1      19.591  -1.755  34.500  1.00  0.00     0.038 A 
HETATM   31  C29 UNK     1      20.242  -2.643  35.357  1.00  0.00     0.033 A 
BRANCH  29  32
HETATM   32  N3  UNK     1      17.880  -0.064  34.103  1.00  0.00    -0.116 N 
HETATM   33  O4  UNK     1      18.550   0.557  33.244  1.00  0.00    -0.532 OA
HETATM   34  O5  UNK     1      16.639   0.086  34.217  1.00  0.00    -0.532 OA
ENDBRANCH  29  32
ENDBRANCH  24  26
ENDBRANCH  23  24
BRANCH  22  35
HETATM   35  C17 UNK     1      20.696  -7.231  38.007  1.00  0.00    -0.008 A 
HETATM   36  C21 UNK     1      20.030  -7.702  39.117  1.00  0.00     0.014 A 
HETATM   37  C24 UNK     1      19.673  -9.050  39.161  1.00  0.00     0.007 A 
HETATM   38  C23 UNK     1      19.989  -9.890  38.095  1.00  0.00    -0.062 A 
HETATM   39  C26 UNK     1      19.607 -11.331  38.143  1.00  0.00     0.048 C 
HETATM   40  C25 UNK     1      20.663  -9.384  36.983  1.00  0.00     0.007 A 
HETATM   41  C22 UNK     1      21.021  -8.037  36.938  1.00  0.00     0.014 A 
ENDBRANCH  22  35
ENDBRANCH   1  22
TORSDOF 9
ENDMDL
MODEL 2
REMARK VINA RESULT:     -10.1      4.187      6.930
REMARK  9 active torsions:
REMARK  status: ('A' for Active; 'I' for Inactive)
REMARK    1  A    between atoms: C11_19  and  O2_2 
REMARK    2  A    between atoms: C15_23  and  O2_2 
REMARK    3  A    between atoms: N1_6  and  N2_7 
REMARK    4  A    between atoms: C27_35  and  N2_7 
REMARK    5  A    between atoms: C30_38  and  N3_8 
REMARK    6  A    between atoms: C2_10  and  C4_12 
REMARK    7  A    between atoms: C4_12  and  C7_15 
REMARK    8  A    between atoms: C15_23  and  C16_24 
REMARK    9  A    between atoms: C16_24  and  C17_25 
ROOT
HETATM    1  C15 UNK     1      27.512  -7.677  39.341  1.00  0.00     0.237 C 
ENDROOT
BRANCH   1   2
HETATM    2  O2  UNK     1      27.882  -6.304  39.467  1.00  0.00    -0.345 OA
BRANCH   2   3
HETATM    3  C11 UNK     1      29.013  -5.906  38.828  1.00  0.00     0.071 A 
HETATM    4  C10 UNK     1      30.137  -6.724  38.819  1.00  0.00     0.075 A 
HETATM    5  C5  UNK     1      31.291  -6.295  38.156  1.00  0.00     0.092 A 
HETATM    6  C3  UNK     1      31.364  -5.073  37.495  1.00  0.00     0.005 A 
HETATM    7  O1  UNK     1      32.390  -7.166  38.192  1.00  0.00    -0.274 OA
HETATM    8  C1  UNK     1      32.624  -4.700  36.821  1.00  0.00    -0.036 A 
HETATM    9  C8  UNK     1      30.219  -4.260  37.523  1.00  0.00     0.017 A 
HETATM   10  C2  UNK     1      33.686  -5.531  36.892  1.00  0.00     0.029 A 
HETATM   11  C9  UNK     1      32.635  -3.392  36.068  1.00  0.00     0.050 C 
HETATM   12  C6  UNK     1      33.596  -6.846  37.591  1.00  0.00     0.295 A 
HETATM   13  O3  UNK     1      34.541  -7.627  37.634  1.00  0.00    -0.259 OA
HETATM   14  C12 UNK     1      29.055  -4.674  38.182  1.00  0.00     0.038 A 
BRANCH  10  15
HETATM   15  C4  UNK     1      35.045  -5.246  36.306  1.00  0.00     0.084 C 
BRANCH  15  16
HETATM   16  C7  UNK     1      35.305  -6.046  35.064  1.00  0.00    -0.054 A 
HETATM   17  C13 UNK     1      36.478  -6.784  34.952  1.00  0.00     0.007 A 
HETATM   18  C18 UNK     1      36.719  -7.527  33.797  1.00  0.00     0.001 A 
HETATM   19  C20 UNK     1      35.785  -7.530  32.760  1.00  0.00     0.000 A 
HETATM   20  C19 UNK     1      34.610  -6.788  32.880  1.00  0.00     0.001 A 
HETATM   21  C14 UNK     1      34.369  -6.044  34.035  1.00  0.00     0.007 A 
ENDBRANCH  15  16
ENDBRANCH  10  15
ENDBRANCH   2   3
ENDBRANCH   1   2
BRANCH   1  22
HETATM   22  C16 UNK     1      26.873  -7.910  37.979  1.00  0.00     0.089 C 
HETATM   23  N1  UNK     1      25.591  -7.928  37.760  1.00  0.00    -0.176 NA
BRANCH  23  24
HETATM   24  N2  UNK     1      24.771  -7.766  38.815  1.00  0.00    -0.278 N 
HETATM   25  H23 UNK     1      25.125  -7.683  39.760  1.00  0.00     0.189 HD
BRANCH  24  26
HETATM   26  C27 UNK     1      23.383  -7.912  38.667  1.00  0.00     0.050 A 
HETATM   27  C28 UNK     1      22.855  -8.475  37.502  1.00  0.00     0.033 A 
HETATM   28  C31 UNK     1      21.475  -8.622  37.356  1.00  0.00     0.038 A 
HETATM   29  C30 UNK     1      20.618  -8.208  38.376  1.00  0.00     0.103 A 
HETATM   30  C32 UNK     1      21.140  -7.645  39.540  1.00  0.00     0.038 A 
HETATM   31  C29 UNK     1      22.519  -7.497  39.686  1.00  0.00     0.033 A 
BRANCH  29  32
HETATM   32  N3  UNK     1      19.214  -8.356  38.225  1.00  0.00    -0.116 N 
HETATM   33  O4  UNK     1      18.516  -7.341  37.988  1.00  0.00    -0.532 OA
HETATM   34  O5  UNK     1      18.709  -9.501  38.332  1.00  0.00    -0.532 OA
ENDBRANCH  29  32
ENDBRANCH  24  26
ENDBRANCH  23  24
BRANCH  22  35
HETATM   35  C17 UNK     1      27.780  -8.116  36.813  1.00  0.00    -0.008 A 
HETATM   36  C21 UNK     1      27.821  -7.156  35.828  1.00  0.00     0.014 A 
HETATM   37  C24 UNK     1      28.671  -7.349  34.739  1.00  0.00     0.007 A 
HETATM   38  C23 UNK     1      29.458  -8.498  34.664  1.00  0.00    -0.062 A 
HETATM   39  C26 UNK     1      30.366  -8.704  33.499  1.00  0.00     0.048 C 
HETATM   40  C25 UNK     1      29.396  -9.453  35.679  1.00  0.00     0.007 A 
HETATM   41  C22 UNK     1      28.547  -9.260  36.768  1.00  0.00     0.014 A 
ENDBRANCH  22  35
ENDBRANCH   1  22
TORSDOF 9
ENDMDL
MODEL 3
REMARK VINA RESULT:     -10.0     31.548     34.829
REMARK  9 active torsions:
REMARK  status: ('A' for Active; 'I' for Inactive)
REMARK    1  A    between atoms: C11_19  and  O2_2 
REMARK    2  A    between atoms: C15_23  and  O2_2 
REMARK    3  A    between atoms: N1_6  and  N2_7 
REMARK    4  A    between atoms: C27_35  and  N2_7 
REMARK    5  A    between atoms: C30_38  and  N3_8 
REMARK    6  A    between atoms: C2_10  and  C4_12 
REMARK    7  A    between atoms: C4_12  and  C7_15 
REMARK    8  A    between atoms: C15_23  and  C16_24 
REMARK    9  A    between atoms: C16_24  and  C17_25 
ROOT
HETATM    1  C15 UNK     1      18.410  11.725  10.028  1.00  0.00     0.237 C 
ENDROOT
BRANCH   1   2
HETATM    2  O2  UNK     1      18.389  10.309   9.852  1.00  0.00    -0.345 OA
BRANCH   2   3
HETATM    3  C11 UNK     1      17.171   9.707   9.814  1.00  0.00     0.071 A 
HETATM    4  C10 UNK     1      17.074   8.321   9.829  1.00  0.00     0.075 A 
HETATM    5  C5  UNK     1      15.812   7.722   9.789  1.00  0.00     0.092 A 
HETATM    6  C3  UNK     1      14.634   8.461   9.739  1.00  0.00     0.005 A 
HETATM    7  O1  UNK     1      15.787   6.319   9.800  1.00  0.00    -0.274 OA
HETATM    8  C1  UNK     1      13.342   7.745   9.699  1.00  0.00    -0.036 A 
HETATM    9  C8  UNK     1      14.756   9.860   9.718  1.00  0.00     0.017 A 
HETATM   10  C2  UNK     1      13.333   6.394   9.675  1.00  0.00     0.029 A 
HETATM   11  C9  UNK     1      12.092   8.589   9.703  1.00  0.00     0.050 C 
HETATM   12  C6  UNK     1      14.600   5.609   9.743  1.00  0.00     0.295 A 
HETATM   13  O3  UNK     1      14.606   4.382   9.757  1.00  0.00    -0.259 OA
HETATM   14  C12 UNK     1      16.013  10.476   9.757  1.00  0.00     0.038 A 
BRANCH  10  15
HETATM   15  C4  UNK     1      12.094   5.542   9.570  1.00  0.00     0.084 C 
BRANCH  15  16
HETATM   16  C7  UNK     1      11.344   5.789   8.295  1.00  0.00    -0.054 A 
HETATM   17  C13 UNK     1       9.963   5.946   8.328  1.00  0.00     0.007 A 
HETATM   18  C18 UNK     1       9.265   6.175   7.142  1.00  0.00     0.001 A 
HETATM   19  C20 UNK     1       9.953   6.247   5.930  1.00  0.00     0.000 A 
HETATM   20  C19 UNK     1      11.338   6.088   5.905  1.00  0.00     0.001 A 
HETATM   21  C14 UNK     1      12.036   5.859   7.091  1.00  0.00     0.007 A 
ENDBRANCH  15  16
ENDBRANCH  10  15
ENDBRANCH   2   3
ENDBRANCH   1   2
BRANCH   1  22
HETATM   22  C16 UNK     1      19.486  12.333   9.138  1.00  0.00     0.089 C 
HETATM   23  N1  UNK     1      19.311  12.668   7.893  1.00  0.00    -0.176 NA
BRANCH  23  24
HETATM   24  N2  UNK     1      18.106  12.430   7.342  1.00  0.00    -0.278 N 
HETATM   25  H23 UNK     1      17.888  11.549   6.893  1.00  0.00     0.189 HD
BRANCH  24  26
HETATM   26  C27 UNK     1      17.175  13.469   7.189  1.00  0.00     0.050 A 
HETATM   27  C28 UNK     1      17.611  14.780   6.981  1.00  0.00     0.033 A 
HETATM   28  C31 UNK     1      16.685  15.812   6.826  1.00  0.00     0.038 A 
HETATM   29  C30 UNK     1      15.318  15.536   6.878  1.00  0.00     0.103 A 
HETATM   30  C32 UNK     1      14.878  14.230   7.085  1.00  0.00     0.038 A 
HETATM   31  C29 UNK     1      15.804  13.198   7.241  1.00  0.00     0.033 A 
BRANCH  29  32
HETATM   32  N3  UNK     1      14.378  16.589   6.722  1.00  0.00    -0.116 N 
HETATM   33  O4  UNK     1      14.631  17.711   7.223  1.00  0.00    -0.532 OA
HETATM   34  O5  UNK     1      13.318  16.366   6.087  1.00  0.00    -0.532 OA
ENDBRANCH  29  32
ENDBRANCH  24  26
ENDBRANCH  23  24
BRANCH  22  35
HETATM   35  C17 UNK     1      20.830  12.573   9.739  1.00  0.00    -0.008 A 
HETATM   36  C21 UNK     1      21.157  11.923  10.908  1.00  0.00     0.014 A 
HETATM   37  C24 UNK     1      22.414  12.147  11.469  1.00  0.00     0.007 A 
HETATM   38  C23 UNK     1      23.311  13.013  10.845  1.00  0.00    -0.062 A 
HETATM   39  C26 UNK     1      24.656  13.252  11.445  1.00  0.00     0.048 C 
HETATM   40  C25 UNK     1      22.952  13.656   9.661  1.00  0.00     0.007 A 
HETATM   41  C22 UNK     1      21.695  13.433   9.100  1.00  0.00     0.014 A 
ENDBRANCH  22  35
ENDBRANCH   1  22
TORSDOF 9
ENDMDL
MODEL 4
REMARK VINA RESULT:      -9.8      7.544     11.248
REMARK  9 active torsions:
REMARK  status: ('A' for Active; 'I' for Inactive)
REMARK    1  A    between atoms: C11_19  and  O2_2 
REMARK    2  A    between atoms: C15_23  and  O2_2 
REMARK    3  A    between atoms: N1_6  and  N2_7 
REMARK    4  A    between atoms: C27_35  and  N2_7 
REMARK    5  A    between atoms: C30_38  and  N3_8 
REMARK    6  A    between atoms: C2_10  and  C4_12 
REMARK    7  A    between atoms: C4_12  and  C7_15 
REMARK    8  A    between atoms: C15_23  and  C16_24 
REMARK    9  A    between atoms: C16_24  and  C17_25 
ROOT
HETATM    1  C15 UNK     1      30.276  -5.294  36.753  1.00  0.00     0.237 C 
ENDROOT
BRANCH   1   2
HETATM    2  O2  UNK     1      29.642  -6.022  35.701  1.00  0.00    -0.345 OA
BRANCH   2   3
HETATM    3  C11 UNK     1      30.451  -6.644  34.803  1.00  0.00     0.071 A 
HETATM    4  C10 UNK     1      30.626  -8.022  34.854  1.00  0.00     0.075 A 
HETATM    5  C5  UNK     1      31.462  -8.641  33.921  1.00  0.00     0.092 A 
HETATM    6  C3  UNK     1      32.132  -7.932  32.930  1.00  0.00     0.005 A 
HETATM    7  O1  UNK     1      31.599 -10.033  34.035  1.00  0.00    -0.274 OA
HETATM    8  C1  UNK     1      32.997  -8.668  31.985  1.00  0.00    -0.036 A 
HETATM    9  C8  UNK     1      31.946  -6.540  32.901  1.00  0.00     0.017 A 
HETATM   10  C2  UNK     1      33.147 -10.003  32.126  1.00  0.00     0.029 A 
HETATM   11  C9  UNK     1      33.656  -7.864  30.892  1.00  0.00     0.050 C 
HETATM   12  C6  UNK     1      32.415 -10.759  33.183  1.00  0.00     0.295 A 
HETATM   13  O3  UNK     1      32.514 -11.976  33.302  1.00  0.00    -0.259 OA
HETATM   14  C12 UNK     1      31.112  -5.903  33.828  1.00  0.00     0.038 A 
BRANCH  10  15
HETATM   15  C4  UNK     1      34.045 -10.864  31.275  1.00  0.00     0.084 C 
BRANCH  15  16
HETATM   16  C7  UNK     1      35.477 -10.800  31.717  1.00  0.00    -0.054 A 
HETATM   17  C13 UNK     1      36.458 -10.393  30.820  1.00  0.00     0.007 A 
HETATM   18  C18 UNK     1      37.789 -10.333  31.232  1.00  0.00     0.001 A 
HETATM   19  C20 UNK     1      38.132 -10.680  32.539  1.00  0.00     0.000 A 
HETATM   20  C19 UNK     1      37.142 -11.086  33.434  1.00  0.00     0.001 A 
HETATM   21  C14 UNK     1      35.811 -11.146  33.022  1.00  0.00     0.007 A 
ENDBRANCH  15  16
ENDBRANCH  10  15
ENDBRANCH   2   3
ENDBRANCH   1   2
BRANCH   1  22
HETATM   22  C16 UNK     1      30.788  -6.264  37.808  1.00  0.00     0.089 C 
HETATM   23  N1  UNK     1      31.997  -6.261  38.288  1.00  0.00    -0.176 NA
BRANCH  23  24
HETATM   24  N2  UNK     1      32.867  -5.362  37.792  1.00  0.00    -0.278 N 
HETATM   25  H23 UNK     1      32.885  -4.402  38.112  1.00  0.00     0.189 HD
BRANCH  24  26
HETATM   26  C27 UNK     1      33.647  -5.670  36.666  1.00  0.00     0.050 A 
HETATM   27  C28 UNK     1      34.011  -4.665  35.766  1.00  0.00     0.033 A 
HETATM   28  C31 UNK     1      34.789  -4.972  34.649  1.00  0.00     0.038 A 
HETATM   29  C30 UNK     1      35.204  -6.285  34.427  1.00  0.00     0.103 A 
HETATM   30  C32 UNK     1      34.842  -7.291  35.322  1.00  0.00     0.038 A 
HETATM   31  C29 UNK     1      34.065  -6.986  36.439  1.00  0.00     0.033 A 
BRANCH  29  32
HETATM   32  N3  UNK     1      35.993  -6.595  33.287  1.00  0.00    -0.116 N 
HETATM   33  O4  UNK     1      35.934  -5.845  32.284  1.00  0.00    -0.532 OA
HETATM   34  O5  UNK     1      36.728  -7.613  33.316  1.00  0.00    -0.532 OA
ENDBRANCH  29  32
ENDBRANCH  24  26
ENDBRANCH  23  24
BRANCH  22  35
HETATM   35  C17 UNK     1      29.833  -7.279  38.339  1.00  0.00    -0.008 A 
HETATM   36  C21 UNK     1      30.134  -8.614  38.187  1.00  0.00     0.014 A 
HETATM   37  C24 UNK     1      29.240  -9.563  38.685  1.00  0.00     0.007 A 
HETATM   38  C23 UNK     1      28.071  -9.151  39.322  1.00  0.00    -0.062 A 
HETATM   39  C26 UNK     1      27.115 -10.166  39.854  1.00  0.00     0.048 C 
HETATM   40  C25 UNK     1      27.793  -7.791  39.462  1.00  0.00     0.007 A 
HETATM   41  C22 UNK     1      28.686  -6.843  38.965  1.00  0.00     0.014 A 
ENDBRANCH  22  35
ENDBRANCH   1  22
TORSDOF 9
ENDMDL
MODEL 5
REMARK VINA RESULT:      -9.8     31.720     34.988
REMARK  9 active torsions:
REMARK  status: ('A' for Active; 'I' for Inactive)
REMARK    1  A    between atoms: C11_19  and  O2_2 
REMARK    2  A    between atoms: C15_23  and  O2_2 
REMARK    3  A    between atoms: N1_6  and  N2_7 
REMARK    4  A    between atoms: C27_35  and  N2_7 
REMARK    5  A    between atoms: C30_38  and  N3_8 
REMARK    6  A    between atoms: C2_10  and  C4_12 
REMARK    7  A    between atoms: C4_12  and  C7_15 
REMARK    8  A    between atoms: C15_23  and  C16_24 
REMARK    9  A    between atoms: C16_24  and  C17_25 
ROOT
HETATM    1  C15 UNK     1      17.843  11.315   9.875  1.00  0.00     0.237 C 
ENDROOT
BRANCH   1   2
HETATM    2  O2  UNK     1      18.173   9.936  10.034  1.00  0.00    -0.345 OA
BRANCH   2   3
HETATM    3  C11 UNK     1      17.158   9.039   9.926  1.00  0.00     0.071 A 
HETATM    4  C10 UNK     1      15.844   9.479   9.812  1.00  0.00     0.075 A 
HETATM    5  C5  UNK     1      14.815   8.540   9.703  1.00  0.00     0.092 A 
HETATM    6  C3  UNK     1      15.049   7.169   9.698  1.00  0.00     0.005 A 
HETATM    7  O1  UNK     1      13.513   9.053   9.599  1.00  0.00    -0.274 OA
HETATM    8  C1  UNK     1      13.900   6.248   9.578  1.00  0.00    -0.036 A 
HETATM    9  C8  UNK     1      16.383   6.747   9.820  1.00  0.00     0.017 A 
HETATM   10  C2  UNK     1      12.649   6.753   9.514  1.00  0.00     0.029 A 
HETATM   11  C9  UNK     1      14.210   4.772   9.519  1.00  0.00     0.050 C 
HETATM   12  C6  UNK     1      12.406   8.225   9.506  1.00  0.00     0.295 A 
HETATM   13  O3  UNK     1      11.279   8.698   9.412  1.00  0.00    -0.259 OA
HETATM   14  C12 UNK     1      17.427   7.673   9.931  1.00  0.00     0.038 A 
BRANCH  10  15
HETATM   15  C4  UNK     1      11.389   5.929   9.454  1.00  0.00     0.084 C 
BRANCH  15  16
HETATM   16  C7  UNK     1      10.718   6.018   8.115  1.00  0.00    -0.054 A 
HETATM   17  C13 UNK     1      11.482   5.958   6.956  1.00  0.00     0.007 A 
HETATM   18  C18 UNK     1      10.859   6.041   5.711  1.00  0.00     0.001 A 
HETATM   19  C20 UNK     1       9.474   6.185   5.633  1.00  0.00     0.000 A 
HETATM   20  C19 UNK     1       8.712   6.245   6.800  1.00  0.00     0.001 A 
HETATM   21  C14 UNK     1       9.336   6.161   8.045  1.00  0.00     0.007 A 
ENDBRANCH  15  16
ENDBRANCH  10  15
ENDBRANCH   2   3
ENDBRANCH   1   2
BRANCH   1  22
HETATM   22  C16 UNK     1      18.849  11.976   8.943  1.00  0.00     0.089 C 
HETATM   23  N1  UNK     1      18.575  12.402   7.745  1.00  0.00    -0.176 NA
BRANCH  23  24
HETATM   24  N2  UNK     1      17.324  12.216   7.283  1.00  0.00    -0.278 N 
HETATM   25  H23 UNK     1      17.016  11.323   6.918  1.00  0.00     0.189 HD
BRANCH  24  26
HETATM   26  C27 UNK     1      16.463  13.309   7.099  1.00  0.00     0.050 A 
HETATM   27  C28 UNK     1      15.230  13.351   7.755  1.00  0.00     0.033 A 
HETATM   28  C31 UNK     1      14.375  14.439   7.574  1.00  0.00     0.038 A 
HETATM   29  C30 UNK     1      14.751  15.490   6.736  1.00  0.00     0.103 A 
HETATM   30  C32 UNK     1      15.980  15.452   6.079  1.00  0.00     0.038 A 
HETATM   31  C29 UNK     1      16.835  14.364   6.259  1.00  0.00     0.033 A 
BRANCH  29  32
HETATM   32  N3  UNK     1      13.878  16.595   6.552  1.00  0.00    -0.116 N 
HETATM   33  O4  UNK     1      12.829  16.436   5.884  1.00  0.00    -0.532 OA
HETATM   34  O5  UNK     1      14.182  17.701   7.063  1.00  0.00    -0.532 OA
ENDBRANCH  29  32
ENDBRANCH  24  26
ENDBRANCH  23  24
BRANCH  22  35
HETATM   35  C17 UNK     1      20.242  12.158   9.443  1.00  0.00    -0.008 A 
HETATM   36  C21 UNK     1      21.280  12.126   8.538  1.00  0.00     0.014 A 
HETATM   37  C24 UNK     1      22.582  12.298   9.006  1.00  0.00     0.007 A 
HETATM   38  C23 UNK     1      22.813  12.499  10.366  1.00  0.00    -0.062 A 
HETATM   39  C26 UNK     1      24.206  12.683  10.867  1.00  0.00     0.048 C 
HETATM   40  C25 UNK     1      21.741  12.528  11.259  1.00  0.00     0.007 A 
HETATM   41  C22 UNK     1      20.439  12.356  10.792  1.00  0.00     0.014 A 
ENDBRANCH  22  35
ENDBRANCH   1  22
TORSDOF 9
ENDMDL
MODEL 6
REMARK VINA RESULT:      -9.8      8.667     12.631
REMARK  9 active torsions:
REMARK  status: ('A' for Active; 'I' for Inactive)
REMARK    1  A    between atoms: C11_19  and  O2_2 
REMARK    2  A    between atoms: C15_23  and  O2_2 
REMARK    3  A    between atoms: N1_6  and  N2_7 
REMARK    4  A    between atoms: C27_35  and  N2_7 
REMARK    5  A    between atoms: C30_38  and  N3_8 
REMARK    6  A    between atoms: C2_10  and  C4_12 
REMARK    7  A    between atoms: C4_12  and  C7_15 
REMARK    8  A    between atoms: C15_23  and  C16_24 
REMARK    9  A    between atoms: C16_24  and  C17_25 
ROOT
HETATM    1  C15 UNK     1      32.038 -10.566  30.158  1.00  0.00     0.237 C 
ENDROOT
BRANCH   1   2
HETATM    2  O2  UNK     1      32.764 -11.114  31.258  1.00  0.00    -0.345 OA
BRANCH   2   3
HETATM    3  C11 UNK     1      32.827 -10.368  32.392  1.00  0.00     0.071 A 
HETATM    4  C10 UNK     1      32.219 -10.815  33.559  1.00  0.00     0.075 A 
HETATM    5  C5  UNK     1      32.295 -10.032  34.715  1.00  0.00     0.092 A 
HETATM    6  C3  UNK     1      32.965  -8.813  34.750  1.00  0.00     0.005 A 
HETATM    7  O1  UNK     1      31.653 -10.539  35.854  1.00  0.00    -0.274 OA
HETATM    8  C1  UNK     1      32.995  -8.051  36.016  1.00  0.00    -0.036 A 
HETATM    9  C8  UNK     1      33.567  -8.378  33.558  1.00  0.00     0.017 A 
HETATM   10  C2  UNK     1      32.344  -8.533  37.096  1.00  0.00     0.029 A 
HETATM   11  C9  UNK     1      33.783  -6.764  36.019  1.00  0.00     0.050 C 
HETATM   12  C6  UNK     1      31.640  -9.848  37.054  1.00  0.00     0.295 A 
HETATM   13  O3  UNK     1      31.074 -10.315  38.037  1.00  0.00    -0.259 OA
HETATM   14  C12 UNK     1      33.500  -9.149  32.391  1.00  0.00     0.038 A 
BRANCH  10  15
HETATM   15  C4  UNK     1      32.241  -7.830  38.425  1.00  0.00     0.084 C 
BRANCH  15  16
HETATM   16  C7  UNK     1      31.189  -6.761  38.420  1.00  0.00    -0.054 A 
HETATM   17  C13 UNK     1      31.566  -5.423  38.447  1.00  0.00     0.007 A 
HETATM   18  C18 UNK     1      30.588  -4.429  38.442  1.00  0.00     0.001 A 
HETATM   19  C20 UNK     1      29.238  -4.779  38.410  1.00  0.00     0.000 A 
HETATM   20  C19 UNK     1      28.867  -6.123  38.383  1.00  0.00     0.001 A 
HETATM   21  C14 UNK     1      29.845  -7.117  38.388  1.00  0.00     0.007 A 
ENDBRANCH  15  16
ENDBRANCH  10  15
ENDBRANCH   2   3
ENDBRANCH   1   2
BRANCH   1  22
HETATM   22  C16 UNK     1      30.588 -11.025  30.225  1.00  0.00     0.089 C 
HETATM   23  N1  UNK     1      30.208 -12.269  30.218  1.00  0.00    -0.176 NA
BRANCH  23  24
HETATM   24  N2  UNK     1      31.158 -13.216  30.108  1.00  0.00    -0.278 N 
HETATM   25  H23 UNK     1      31.783 -13.257  29.312  1.00  0.00     0.189 HD
BRANCH  24  26
HETATM   26  C27 UNK     1      31.184 -14.305  30.992  1.00  0.00     0.050 A 
HETATM   27  C28 UNK     1      30.969 -14.107  32.359  1.00  0.00     0.033 A 
HETATM   28  C31 UNK     1      30.992 -15.190  33.237  1.00  0.00     0.038 A 
HETATM   29  C30 UNK     1      31.230 -16.477  32.753  1.00  0.00     0.103 A 
HETATM   30  C32 UNK     1      31.446 -16.679  31.390  1.00  0.00     0.038 A 
HETATM   31  C29 UNK     1      31.423 -15.597  30.511  1.00  0.00     0.033 A 
BRANCH  29  32
HETATM   32  N3  UNK     1      31.255 -17.578  33.649  1.00  0.00    -0.116 N 
HETATM   33  O4  UNK     1      32.338 -18.181  33.842  1.00  0.00    -0.532 OA
HETATM   34  O5  UNK     1      30.192 -17.918  34.224  1.00  0.00    -0.532 OA
ENDBRANCH  29  32
ENDBRANCH  24  26
ENDBRANCH  23  24
BRANCH  22  35
HETATM   35  C17 UNK     1      29.532  -9.976  30.320  1.00  0.00    -0.008 A 
HETATM   36  C21 UNK     1      29.382  -9.293  31.506  1.00  0.00     0.014 A 
HETATM   37  C24 UNK     1      28.395  -8.311  31.593  1.00  0.00     0.007 A 
HETATM   38  C23 UNK     1      27.585  -8.038  30.492  1.00  0.00    -0.062 A 
HETATM   39  C26 UNK     1      26.529  -6.989  30.585  1.00  0.00     0.048 C 
HETATM   40  C25 UNK     1      27.761  -8.746  29.303  1.00  0.00     0.007 A 
HETATM   41  C22 UNK     1      28.748  -9.728  29.215  1.00  0.00     0.014 A 
ENDBRANCH  22  35
ENDBRANCH   1  22
TORSDOF 9
ENDMDL
MODEL 7
REMARK VINA RESULT:      -9.8      8.503     12.554
REMARK  9 active torsions:
REMARK  status: ('A' for Active; 'I' for Inactive)
REMARK    1  A    between atoms: C11_19  and  O2_2 
REMARK    2  A    between atoms: C15_23  and  O2_2 
REMARK    3  A    between atoms: N1_6  and  N2_7 
REMARK    4  A    between atoms: C27_35  and  N2_7 
REMARK    5  A    between atoms: C30_38  and  N3_8 
REMARK    6  A    between atoms: C2_10  and  C4_12 
REMARK    7  A    between atoms: C4_12  and  C7_15 
REMARK    8  A    between atoms: C15_23  and  C16_24 
REMARK    9  A    between atoms: C16_24  and  C17_25 
ROOT
HETATM    1  C15 UNK     1      32.145 -10.608  30.596  1.00  0.00     0.237 C 
ENDROOT
BRANCH   1   2
HETATM    2  O2  UNK     1      32.736 -11.292  31.701  1.00  0.00    -0.345 OA
BRANCH   2   3
HETATM    3  C11 UNK     1      32.509 -10.781  32.940  1.00  0.00     0.071 A 
HETATM    4  C10 UNK     1      32.886  -9.477  33.239  1.00  0.00     0.075 A 
HETATM    5  C5  UNK     1      32.644  -8.971  34.519  1.00  0.00     0.092 A 
HETATM    6  C3  UNK     1      32.032  -9.721  35.518  1.00  0.00     0.005 A 
HETATM    7  O1  UNK     1      33.056  -7.650  34.754  1.00  0.00    -0.274 OA
HETATM    8  C1  UNK     1      31.816  -9.106  36.843  1.00  0.00    -0.036 A 
HETATM    9  C8  UNK     1      31.666 -11.038  35.196  1.00  0.00     0.017 A 
HETATM   10  C2  UNK     1      32.248  -7.846  37.068  1.00  0.00     0.029 A 
HETATM   11  C9  UNK     1      31.097  -9.939  37.875  1.00  0.00     0.050 C 
HETATM   12  C6  UNK     1      32.891  -7.042  35.988  1.00  0.00     0.295 A 
HETATM   13  O3  UNK     1      33.256  -5.885  36.167  1.00  0.00    -0.259 OA
HETATM   14  C12 UNK     1      31.901 -11.562  33.918  1.00  0.00     0.038 A 
BRANCH  10  15
HETATM   15  C4  UNK     1      32.149  -7.123  38.387  1.00  0.00     0.084 C 
BRANCH  15  16
HETATM   16  C7  UNK     1      30.931  -6.251  38.464  1.00  0.00    -0.054 A 
HETATM   17  C13 UNK     1      31.067  -4.869  38.412  1.00  0.00     0.007 A 
HETATM   18  C18 UNK     1      29.935  -4.059  38.483  1.00  0.00     0.001 A 
HETATM   19  C20 UNK     1      28.671  -4.636  38.606  1.00  0.00     0.000 A 
HETATM   20  C19 UNK     1      28.540  -6.023  38.658  1.00  0.00     0.001 A 
HETATM   21  C14 UNK     1      29.673  -6.834  38.586  1.00  0.00     0.007 A 
ENDBRANCH  15  16
ENDBRANCH  10  15
ENDBRANCH   2   3
ENDBRANCH   1   2
BRANCH   1  22
HETATM   22  C16 UNK     1      30.705 -11.070  30.422  1.00  0.00     0.089 C 
HETATM   23  N1  UNK     1      30.344 -12.307  30.244  1.00  0.00    -0.176 NA
BRANCH  23  24
HETATM   24  N2  UNK     1      31.312 -13.240  30.174  1.00  0.00    -0.278 N 
HETATM   25  H23 UNK     1      32.037 -13.207  29.468  1.00  0.00     0.189 HD
BRANCH  24  26
HETATM   26  C27 UNK     1      31.235 -14.406  30.951  1.00  0.00     0.050 A 
HETATM   27  C28 UNK     1      30.923 -14.326  32.311  1.00  0.00     0.033 A 
HETATM   28  C31 UNK     1      30.843 -15.486  33.083  1.00  0.00     0.038 A 
HETATM   29  C30 UNK     1      31.075 -16.731  32.497  1.00  0.00     0.103 A 
HETATM   30  C32 UNK     1      31.386 -16.815  31.140  1.00  0.00     0.038 A 
HETATM   31  C29 UNK     1      31.467 -15.656  30.369  1.00  0.00     0.033 A 
BRANCH  29  32
HETATM   32  N3  UNK     1      30.996 -17.910  33.284  1.00  0.00    -0.116 N 
HETATM   33  O4  UNK     1      30.083 -18.010  34.140  1.00  0.00    -0.532 OA
HETATM   34  O5  UNK     1      31.841 -18.820  33.102  1.00  0.00    -0.532 OA
ENDBRANCH  29  32
ENDBRANCH  24  26
ENDBRANCH  23  24
BRANCH  22  35
HETATM   35  C17 UNK     1      29.633 -10.034  30.472  1.00  0.00    -0.008 A 
HETATM   36  C21 UNK     1      28.906  -9.779  29.331  1.00  0.00     0.014 A 
HETATM   37  C24 UNK     1      27.902  -8.811  29.380  1.00  0.00     0.007 A 
HETATM   38  C23 UNK     1      27.652  -8.125  30.567  1.00  0.00    -0.062 A 
HETATM   39  C26 UNK     1      26.579  -7.090  30.619  1.00  0.00     0.048 C 
HETATM   40  C25 UNK     1      28.405  -8.406  31.708  1.00  0.00     0.007 A 
HETATM   41  C22 UNK     1      29.408  -9.373  31.660  1.00  0.00     0.014 A 
ENDBRANCH  22  35
ENDBRANCH   1  22
TORSDOF 9
ENDMDL
MODEL 8
REMARK VINA RESULT:      -9.7     30.776     34.274
REMARK  9 active torsions:
REMARK  status: ('A' for Active; 'I' for Inactive)
REMARK    1  A    between atoms: C11_19  and  O2_2 
REMARK    2  A    between atoms: C15_23  and  O2_2 
REMARK    3  A    between atoms: N1_6  and  N2_7 
REMARK    4  A    between atoms: C27_35  and  N2_7 
REMARK    5  A    between atoms: C30_38  and  N3_8 
REMARK    6  A    between atoms: C2_10  and  C4_12 
REMARK    7  A    between atoms: C4_12  and  C7_15 
REMARK    8  A    between atoms: C15_23  and  C16_24 
REMARK    9  A    between atoms: C16_24  and  C17_25 
ROOT
HETATM    1  C15 UNK     1      18.565  11.827  10.751  1.00  0.00     0.237 C 
ENDROOT
BRANCH   1   2
HETATM    2  O2  UNK     1      18.461  10.706   9.873  1.00  0.00    -0.345 OA
BRANCH   2   3
HETATM    3  C11 UNK     1      17.283  10.030   9.869  1.00  0.00     0.071 A 
HETATM    4  C10 UNK     1      17.272   8.643   9.781  1.00  0.00     0.075 A 
HETATM    5  C5  UNK     1      16.048   7.966   9.778  1.00  0.00     0.092 A 
HETATM    6  C3  UNK     1      14.827   8.627   9.865  1.00  0.00     0.005 A 
HETATM    7  O1  UNK     1      16.110   6.568   9.679  1.00  0.00    -0.274 OA
HETATM    8  C1  UNK     1      13.582   7.832   9.855  1.00  0.00    -0.036 A 
HETATM    9  C8  UNK     1      14.862  10.029   9.947  1.00  0.00     0.017 A 
HETATM   10  C2  UNK     1      13.653   6.490   9.724  1.00  0.00     0.029 A 
HETATM   11  C9  UNK     1      12.286   8.589  10.010  1.00  0.00     0.050 C 
HETATM   12  C6  UNK     1      14.967   5.787   9.645  1.00  0.00     0.295 A 
HETATM   13  O3  UNK     1      15.049   4.565   9.562  1.00  0.00    -0.259 OA
HETATM   14  C12 UNK     1      16.078  10.723   9.950  1.00  0.00     0.038 A 
BRANCH  10  15
HETATM   15  C4  UNK     1      12.465   5.567   9.636  1.00  0.00     0.084 C 
BRANCH  15  16
HETATM   16  C7  UNK     1      11.644   5.819   8.406  1.00  0.00    -0.054 A 
HETATM   17  C13 UNK     1      12.270   5.932   7.170  1.00  0.00     0.007 A 
HETATM   18  C18 UNK     1      11.506   6.166   6.027  1.00  0.00     0.001 A 
HETATM   19  C20 UNK     1      10.120   6.287   6.126  1.00  0.00     0.000 A 
HETATM   20  C19 UNK     1       9.498   6.173   7.369  1.00  0.00     0.001 A 
HETATM   21  C14 UNK     1      10.262   5.939   8.512  1.00  0.00     0.007 A 
ENDBRANCH  15  16
ENDBRANCH  10  15
ENDBRANCH   2   3
ENDBRANCH   1   2
BRANCH   1  22
HETATM   22  C16 UNK     1      19.303  12.958  10.047  1.00  0.00     0.089 C 
HETATM   23  N1  UNK     1      20.466  13.415  10.408  1.00  0.00    -0.176 NA
BRANCH  23  24
HETATM   24  N2  UNK     1      21.043  12.877  11.499  1.00  0.00    -0.278 N 
HETATM   25  H23 UNK     1      20.537  12.758  12.368  1.00  0.00     0.189 HD
BRANCH  24  26
HETATM   26  C27 UNK     1      22.427  12.650  11.535  1.00  0.00     0.050 A 
HETATM   27  C28 UNK     1      23.102  12.236  10.383  1.00  0.00     0.033 A 
HETATM   28  C31 UNK     1      24.479  12.014  10.417  1.00  0.00     0.038 A 
HETATM   29  C30 UNK     1      25.187  12.203  11.605  1.00  0.00     0.103 A 
HETATM   30  C32 UNK     1      24.518  12.615  12.756  1.00  0.00     0.038 A 
HETATM   31  C29 UNK     1      23.141  12.838  12.723  1.00  0.00     0.033 A 
BRANCH  29  32
HETATM   32  N3  UNK     1      26.588  11.973  11.638  1.00  0.00    -0.116 N 
HETATM   33  O4  UNK     1      27.365  12.957  11.645  1.00  0.00    -0.532 OA
HETATM   34  O5  UNK     1      27.009  10.790  11.661  1.00  0.00    -0.532 OA
ENDBRANCH  29  32
ENDBRANCH  24  26
ENDBRANCH  23  24
BRANCH  22  35
HETATM   35  C17 UNK     1      18.654  13.574   8.855  1.00  0.00    -0.008 A 
HETATM   36  C21 UNK     1      17.395  14.114   8.992  1.00  0.00     0.014 A 
HETATM   37  C24 UNK     1      16.789  14.691   7.876  1.00  0.00     0.007 A 
HETATM   38  C23 UNK     1      17.459  14.715   6.653  1.00  0.00    -0.062 A 
HETATM   39  C26 UNK     1      16.811  15.332   5.460  1.00  0.00     0.048 C 
HETATM   40  C25 UNK     1      18.735  14.161   6.546  1.00  0.00     0.007 A 
HETATM   41  C22 UNK     1      19.341  13.584   7.660  1.00  0.00     0.014 A 
ENDBRANCH  22  35
ENDBRANCH   1  22
TORSDOF 9
ENDMDL
MODEL 9
REMARK VINA RESULT:      -9.7      7.373     11.741
REMARK  9 active torsions:
REMARK  status: ('A' for Active; 'I' for Inactive)
REMARK    1  A    between atoms: C11_19  and  O2_2 
REMARK    2  A    between atoms: C15_23  and  O2_2 
REMARK    3  A    between atoms: N1_6  and  N2_7 
REMARK    4  A    between atoms: C27_35  and  N2_7 
REMARK    5  A    between atoms: C30_38  and  N3_8 
REMARK    6  A    between atoms: C2_10  and  C4_12 
REMARK    7  A    between atoms: C4_12  and  C7_15 
REMARK    8  A    between atoms: C15_23  and  C16_24 
REMARK    9  A    between atoms: C16_24  and  C17_25 
ROOT
HETATM    1  C15 UNK     1      18.317   3.438  32.929  1.00  0.00     0.237 C 
ENDROOT
BRANCH   1   2
HETATM    2  O2  UNK     1      17.523   2.252  32.914  1.00  0.00    -0.345 OA
BRANCH   2   3
HETATM    3  C11 UNK     1      17.856   1.271  33.794  1.00  0.00     0.071 A 
HETATM    4  C10 UNK     1      18.643   0.201  33.384  1.00  0.00     0.075 A 
HETATM    5  C5  UNK     1      18.974  -0.797  34.305  1.00  0.00     0.092 A 
HETATM    6  C3  UNK     1      18.550  -0.765  35.629  1.00  0.00     0.005 A 
HETATM    7  O1  UNK     1      19.764  -1.852  33.823  1.00  0.00    -0.274 OA
HETATM    8  C1  UNK     1      18.948  -1.863  36.534  1.00  0.00    -0.036 A 
HETATM    9  C8  UNK     1      17.752   0.322  36.020  1.00  0.00     0.017 A 
HETATM   10  C2  UNK     1      19.679  -2.890  36.050  1.00  0.00     0.029 A 
HETATM   11  C9  UNK     1      18.513  -1.754  37.975  1.00  0.00     0.050 C 
HETATM   12  C6  UNK     1      20.142  -2.911  34.631  1.00  0.00     0.295 A 
HETATM   13  O3  UNK     1      20.836  -3.819  34.186  1.00  0.00    -0.259 OA
HETATM   14  C12 UNK     1      17.409   1.331  35.111  1.00  0.00     0.038 A 
BRANCH  10  15
HETATM   15  C4  UNK     1      20.098  -4.101  36.843  1.00  0.00     0.084 C 
BRANCH  15  16
HETATM   16  C7  UNK     1      19.325  -5.326  36.455  1.00  0.00    -0.054 A 
HETATM   17  C13 UNK     1      19.969  -6.368  35.798  1.00  0.00     0.007 A 
HETATM   18  C18 UNK     1      19.250  -7.508  35.437  1.00  0.00     0.001 A 
HETATM   19  C20 UNK     1      17.891  -7.599  35.735  1.00  0.00     0.000 A 
HETATM   20  C19 UNK     1      17.250  -6.549  36.394  1.00  0.00     0.001 A 
HETATM   21  C14 UNK     1      17.969  -5.410  36.756  1.00  0.00     0.007 A 
ENDBRANCH  15  16
ENDBRANCH  10  15
ENDBRANCH   2   3
ENDBRANCH   1   2
BRANCH   1  22
HETATM   22  C16 UNK     1      18.784   3.756  31.515  1.00  0.00     0.089 C 
HETATM   23  N1  UNK     1      19.196   4.925  31.121  1.00  0.00    -0.176 NA
BRANCH  23  24
HETATM   24  N2  UNK     1      19.176   5.932  32.014  1.00  0.00    -0.278 N 
HETATM   25  H23 UNK     1      19.982   6.160  32.582  1.00  0.00     0.189 HD
BRANCH  24  26
HETATM   26  C27 UNK     1      17.970   6.574  32.336  1.00  0.00     0.050 A 
HETATM   27  C28 UNK     1      17.187   7.147  31.330  1.00  0.00     0.033 A 
HETATM   28  C31 UNK     1      15.987   7.782  31.651  1.00  0.00     0.038 A 
HETATM   29  C30 UNK     1      15.565   7.848  32.980  1.00  0.00     0.103 A 
HETATM   30  C32 UNK     1      16.343   7.278  33.986  1.00  0.00     0.038 A 
HETATM   31  C29 UNK     1      17.543   6.643  33.667  1.00  0.00     0.033 A 
BRANCH  29  32
HETATM   32  N3  UNK     1      14.345   8.497  33.304  1.00  0.00    -0.116 N 
HETATM   33  O4  UNK     1      14.338   9.359  34.215  1.00  0.00    -0.532 OA
HETATM   34  O5  UNK     1      13.306   8.190  32.669  1.00  0.00    -0.532 OA
ENDBRANCH  29  32
ENDBRANCH  24  26
ENDBRANCH  23  24
BRANCH  22  35
HETATM   35  C17 UNK     1      18.781   2.648  30.517  1.00  0.00    -0.008 A 
HETATM   36  C21 UNK     1      17.868   2.688  29.487  1.00  0.00     0.014 A 
HETATM   37  C24 UNK     1      17.867   1.651  28.554  1.00  0.00     0.007 A 
HETATM   38  C23 UNK     1      18.779   0.604  28.674  1.00  0.00    -0.062 A 
HETATM   39  C26 UNK     1      18.778  -0.504  27.675  1.00  0.00     0.048 C 
HETATM   40  C25 UNK     1      19.693   0.592  29.728  1.00  0.00     0.007 A 
HETATM   41  C22 UNK     1      19.694   1.627  30.661  1.00  0.00     0.014 A 
ENDBRANCH  22  35
ENDBRANCH   1  22
TORSDOF 9
ENDMDL
MODEL 10
REMARK VINA RESULT:      -9.7     30.601     34.576
REMARK  9 active torsions:
REMARK  status: ('A' for Active; 'I' for Inactive)
REMARK    1  A    between atoms: C11_19  and  O2_2 
REMARK    2  A    between atoms: C15_23  and  O2_2 
REMARK    3  A    between atoms: N1_6  and  N2_7 
REMARK    4  A    between atoms: C27_35  and  N2_7 
REMARK    5  A    between atoms: C30_38  and  N3_8 
REMARK    6  A    between atoms: C2_10  and  C4_12 
REMARK    7  A    between atoms: C4_12  and  C7_15 
REMARK    8  A    between atoms: C15_23  and  C16_24 
REMARK    9  A    between atoms: C16_24  and  C17_25 
ROOT
HETATM    1  C15 UNK     1      18.773  11.178   8.030  1.00  0.00     0.237 C 
ENDROOT
BRANCH   1   2
HETATM    2  O2  UNK     1      18.313  10.746   9.310  1.00  0.00    -0.345 OA
BRANCH   2   3
HETATM    3  C11 UNK     1      17.106  10.123   9.357  1.00  0.00     0.071 A 
HETATM    4  C10 UNK     1      17.036   8.742   9.502  1.00  0.00     0.075 A 
HETATM    5  C5  UNK     1      15.784   8.121   9.547  1.00  0.00     0.092 A 
HETATM    6  C3  UNK     1      14.592   8.832   9.456  1.00  0.00     0.005 A 
HETATM    7  O1  UNK     1      15.787   6.725   9.688  1.00  0.00    -0.274 OA
HETATM    8  C1  UNK     1      13.313   8.093   9.513  1.00  0.00    -0.036 A 
HETATM    9  C8  UNK     1      14.687  10.225   9.303  1.00  0.00     0.017 A 
HETATM   10  C2  UNK     1      13.330   6.747   9.614  1.00  0.00     0.029 A 
HETATM   11  C9  UNK     1      12.048   8.913   9.468  1.00  0.00     0.050 C 
HETATM   12  C6  UNK     1      14.612   5.992   9.725  1.00  0.00     0.295 A 
HETATM   13  O3  UNK     1      14.641   4.772   9.853  1.00  0.00    -0.259 OA
HETATM   14  C12 UNK     1      15.932  10.863   9.255  1.00  0.00     0.038 A 
BRANCH  10  15
HETATM   15  C4  UNK     1      12.105   5.867   9.618  1.00  0.00     0.084 C 
BRANCH  15  16
HETATM   16  C7  UNK     1      11.331   5.969   8.337  1.00  0.00    -0.054 A 
HETATM   17  C13 UNK     1       9.947   6.088   8.376  1.00  0.00     0.007 A 
HETATM   18  C18 UNK     1       9.228   6.182   7.184  1.00  0.00     0.001 A 
HETATM   19  C20 UNK     1       9.897   6.158   5.961  1.00  0.00     0.000 A 
HETATM   20  C19 UNK     1      11.287   6.039   5.930  1.00  0.00     0.001 A 
HETATM   21  C14 UNK     1      12.006   5.945   7.121  1.00  0.00     0.007 A 
ENDBRANCH  15  16
ENDBRANCH  10  15
ENDBRANCH   2   3
ENDBRANCH   1   2
BRANCH   1  22
HETATM   22  C16 UNK     1      19.080  12.668   8.075  1.00  0.00     0.089 C 
HETATM   23  N1  UNK     1      20.235  13.173   8.397  1.00  0.00    -0.176 NA
BRANCH  23  24
HETATM   24  N2  UNK     1      21.217  12.322   8.750  1.00  0.00    -0.278 N 
HETATM   25  H23 UNK     1      21.466  11.526   8.176  1.00  0.00     0.189 HD
BRANCH  24  26
HETATM   26  C27 UNK     1      21.793  12.391  10.028  1.00  0.00     0.050 A 
HETATM   27  C28 UNK     1      20.996  12.256  11.167  1.00  0.00     0.033 A 
HETATM   28  C31 UNK     1      21.570  12.320  12.437  1.00  0.00     0.038 A 
HETATM   29  C30 UNK     1      22.944  12.521  12.573  1.00  0.00     0.103 A 
HETATM   30  C32 UNK     1      23.743  12.656  11.438  1.00  0.00     0.038 A 
HETATM   31  C29 UNK     1      23.170  12.592  10.168  1.00  0.00     0.033 A 
BRANCH  29  32
HETATM   32  N3  UNK     1      23.526  12.589  13.866  1.00  0.00    -0.116 N 
HETATM   33  O4  UNK     1      24.659  13.110  13.997  1.00  0.00    -0.532 OA
HETATM   34  O5  UNK     1      22.889  12.124  14.844  1.00  0.00    -0.532 OA
ENDBRANCH  29  32
ENDBRANCH  24  26
ENDBRANCH  23  24
BRANCH  22  35
HETATM   35  C17 UNK     1      17.986  13.613   7.711  1.00  0.00    -0.008 A 
HETATM   36  C21 UNK     1      17.750  13.872   6.379  1.00  0.00     0.014 A 
HETATM   37  C24 UNK     1      16.725  14.755   6.040  1.00  0.00     0.007 A 
HETATM   38  C23 UNK     1      15.962  15.355   7.041  1.00  0.00    -0.062 A 
HETATM   39  C26 UNK     1      14.866  16.299   6.678  1.00  0.00     0.048 C 
HETATM   40  C25 UNK     1      16.223  15.072   8.382  1.00  0.00     0.007 A 
HETATM   41  C22 UNK     1      17.248  14.190   8.722  1.00  0.00     0.014 A 
ENDBRANCH  22  35
ENDBRANCH   1  22
TORSDOF 9
ENDMDL
