MODEL 1
REMARK VINA RESULT:      -9.5      0.000      0.000
REMARK  2 active torsions:
REMARK  status: ('A' for Active; 'I' for Inactive)
REMARK    1  A    between atoms: C18_23  and  O4_4 
REMARK    2  A    between atoms: C4_9  and  C8_13 
ROOT
HETATM    1  O1  UNK     1      18.300  -0.935  34.463  1.00  0.00    -0.274 OA
HETATM    2  O2  UNK     1      18.568   1.476  30.955  1.00  0.00    -0.267 OA
HETATM    3  O3  UNK     1      18.539  -0.852  32.211  1.00  0.00    -0.259 OA
HETATM    4  N1  UNK     1      18.346   3.405  32.154  1.00  0.00    -0.322 N 
HETATM    5  C1  UNK     1      18.159   1.905  34.499  1.00  0.00     0.001 A 
HETATM    6  C2  UNK     1      18.054   1.115  35.749  1.00  0.00     0.009 A 
HETATM    7  C3  UNK     1      18.319   1.242  33.329  1.00  0.00     0.118 A 
HETATM    8  C4  UNK     1      18.185   4.069  33.344  1.00  0.00     0.046 A 
HETATM    9  C5  UNK     1      18.097   3.367  34.483  1.00  0.00     0.044 A 
HETATM   10  C6  UNK     1      18.129  -0.273  35.686  1.00  0.00     0.090 A 
HETATM   11  C7  UNK     1      18.423   2.033  32.042  1.00  0.00     0.263 A 
HETATM   12  C9  UNK     1      18.396  -0.246  33.268  1.00  0.00     0.305 A 
HETATM   13  C10 UNK     1      17.878   1.682  37.023  1.00  0.00     0.015 A 
HETATM   14  C11 UNK     1      18.041  -1.088  36.819  1.00  0.00     0.038 A 
HETATM   15  C14 UNK     1      17.786   0.881  38.169  1.00  0.00     0.001 A 
HETATM   16  C15 UNK     1      17.868  -0.504  38.066  1.00  0.00     0.003 A 
HETATM   17  H2  UNK     1      18.414   3.961  31.306  1.00  0.00     0.169 HD
ENDROOT
BRANCH   8  18
HETATM   18  C8  UNK     1      18.130   5.542  33.324  1.00  0.00    -0.009 A 
HETATM   19  C12 UNK     1      19.216   6.291  33.784  1.00  0.00     0.016 A 
HETATM   20  C16 UNK     1      19.163   7.685  33.765  1.00  0.00     0.037 A 
HETATM   21  C18 UNK     1      18.025   8.334  33.288  1.00  0.00     0.068 A 
HETATM   22  C17 UNK     1      16.938   7.588  32.828  1.00  0.00     0.037 A 
HETATM   23  C13 UNK     1      16.992   6.194  32.846  1.00  0.00     0.016 A 
BRANCH  21  24
HETATM   24  O4  UNK     1      17.974   9.694  33.270  1.00  0.00    -0.356 OA
HETATM   25  C19 UNK     1      16.922  10.313  34.008  1.00  0.00     0.210 C 
ENDBRANCH  21  24
ENDBRANCH   8  18
TORSDOF 2
ENDMDL
MODEL 2
REMARK VINA RESULT:      -9.0      4.597      9.651
REMARK  2 active torsions:
REMARK  status: ('A' for Active; 'I' for Inactive)
REMARK    1  A    between atoms: C18_23  and  O4_4 
REMARK    2  A    between atoms: C4_9  and  C8_13 
ROOT
HETATM    1  O1  UNK     1      18.584   0.960  31.907  1.00  0.00    -0.274 OA
HETATM    2  O2  UNK     1      17.706   0.129  35.997  1.00  0.00    -0.267 OA
HETATM    3  O3  UNK     1      17.563   1.623  33.818  1.00  0.00    -0.259 OA
HETATM    4  N1  UNK     1      18.862  -1.837  35.940  1.00  0.00    -0.322 N 
HETATM    5  C1  UNK     1      19.481  -1.375  33.259  1.00  0.00     0.001 A 
HETATM    6  C2  UNK     1      19.811  -1.139  31.833  1.00  0.00     0.009 A 
HETATM    7  C3  UNK     1      18.734  -0.452  33.910  1.00  0.00     0.118 A 
HETATM    8  C4  UNK     1      19.620  -2.767  35.275  1.00  0.00     0.046 A 
HETATM    9  C5  UNK     1      19.933  -2.562  33.987  1.00  0.00     0.044 A 
HETATM   10  C6  UNK     1      19.353   0.018  31.211  1.00  0.00     0.090 A 
HETATM   11  C7  UNK     1      18.384  -0.679  35.365  1.00  0.00     0.263 A 
HETATM   12  C9  UNK     1      18.243   0.784  33.235  1.00  0.00     0.305 A 
HETATM   13  C10 UNK     1      20.571  -2.022  31.048  1.00  0.00     0.015 A 
HETATM   14  C11 UNK     1      19.622   0.313  29.871  1.00  0.00     0.038 A 
HETATM   15  C14 UNK     1      20.850  -1.743  29.703  1.00  0.00     0.001 A 
HETATM   16  C15 UNK     1      20.376  -0.574  29.115  1.00  0.00     0.003 A 
HETATM   17  H2  UNK     1      18.642  -2.016  36.916  1.00  0.00     0.169 HD
ENDROOT
BRANCH   8  18
HETATM   18  C8  UNK     1      20.078  -3.958  36.013  1.00  0.00    -0.009 A 
HETATM   19  C12 UNK     1      20.783  -3.813  37.211  1.00  0.00     0.016 A 
HETATM   20  C16 UNK     1      21.217  -4.940  37.909  1.00  0.00     0.037 A 
HETATM   21  C18 UNK     1      20.948  -6.215  37.411  1.00  0.00     0.068 A 
HETATM   22  C17 UNK     1      20.244  -6.363  36.216  1.00  0.00     0.037 A 
HETATM   23  C13 UNK     1      19.810  -5.235  35.518  1.00  0.00     0.016 A 
BRANCH  21  24
HETATM   24  O4  UNK     1      21.372  -7.314  38.093  1.00  0.00    -0.356 OA
HETATM   25  C19 UNK     1      20.584  -7.731  39.207  1.00  0.00     0.210 C 
ENDBRANCH  21  24
ENDBRANCH   8  18
TORSDOF 2
ENDMDL
MODEL 3
REMARK VINA RESULT:      -8.9      2.033      4.085
REMARK  2 active torsions:
REMARK  status: ('A' for Active; 'I' for Inactive)
REMARK    1  A    between atoms: C18_23  and  O4_4 
REMARK    2  A    between atoms: C4_9  and  C8_13 
ROOT
HETATM    1  O1  UNK     1      19.224  -1.690  32.731  1.00  0.00    -0.274 OA
HETATM    2  O2  UNK     1      17.728   0.962  35.718  1.00  0.00    -0.267 OA
HETATM    3  O3  UNK     1      18.471  -1.425  34.852  1.00  0.00    -0.259 OA
HETATM    4  N1  UNK     1      17.855   2.758  34.316  1.00  0.00    -0.322 N 
HETATM    5  C1  UNK     1      18.842   1.096  32.304  1.00  0.00     0.001 A 
HETATM    6  C2  UNK     1      19.372   0.219  31.232  1.00  0.00     0.009 A 
HETATM    7  C3  UNK     1      18.546   0.540  33.503  1.00  0.00     0.118 A 
HETATM    8  C4  UNK     1      18.155   3.312  33.097  1.00  0.00     0.046 A 
HETATM    9  C5  UNK     1      18.627   2.531  32.115  1.00  0.00     0.044 A 
HETATM   10  C6  UNK     1      19.542  -1.139  31.483  1.00  0.00     0.090 A 
HETATM   11  C7  UNK     1      18.009   1.420  34.611  1.00  0.00     0.263 A 
HETATM   12  C9  UNK     1      18.735  -0.916  33.767  1.00  0.00     0.305 A 
HETATM   13  C10 UNK     1      19.722   0.675  29.949  1.00  0.00     0.015 A 
HETATM   14  C11 UNK     1      20.034  -2.030  30.524  1.00  0.00     0.038 A 
HETATM   15  C14 UNK     1      20.218  -0.204  28.977  1.00  0.00     0.001 A 
HETATM   16  C15 UNK     1      20.373  -1.556  29.264  1.00  0.00     0.003 A 
HETATM   17  H2  UNK     1      17.495   3.372  35.041  1.00  0.00     0.169 HD
ENDROOT
BRANCH   8  18
HETATM   18  C8  UNK     1      17.931   4.758  32.909  1.00  0.00    -0.009 A 
HETATM   19  C12 UNK     1      17.544   5.554  33.991  1.00  0.00     0.016 A 
HETATM   20  C16 UNK     1      17.332   6.921  33.812  1.00  0.00     0.037 A 
HETATM   21  C18 UNK     1      17.504   7.496  32.553  1.00  0.00     0.068 A 
HETATM   22  C17 UNK     1      17.890   6.703  31.472  1.00  0.00     0.037 A 
HETATM   23  C13 UNK     1      18.102   5.336  31.650  1.00  0.00     0.016 A 
BRANCH  21  24
HETATM   24  O4  UNK     1      17.296   8.830  32.379  1.00  0.00    -0.356 OA
HETATM   25  C19 UNK     1      16.889   9.577  33.525  1.00  0.00     0.210 C 
ENDBRANCH  21  24
ENDBRANCH   8  18
TORSDOF 2
ENDMDL
MODEL 4
REMARK VINA RESULT:      -8.7      4.976     10.086
REMARK  2 active torsions:
REMARK  status: ('A' for Active; 'I' for Inactive)
REMARK    1  A    between atoms: C18_23  and  O4_4 
REMARK    2  A    between atoms: C4_9  and  C8_13 
ROOT
HETATM    1  O1  UNK     1      18.229   0.736  33.296  1.00  0.00    -0.274 OA
HETATM    2  O2  UNK     1      17.619  -0.759  37.244  1.00  0.00    -0.267 OA
HETATM    3  O3  UNK     1      17.261   1.026  35.323  1.00  0.00    -0.259 OA
HETATM    4  N1  UNK     1      18.907  -2.599  36.844  1.00  0.00    -0.322 N 
HETATM    5  C1  UNK     1      19.357  -1.698  34.243  1.00  0.00     0.001 A 
HETATM    6  C2  UNK     1      19.597  -1.228  32.857  1.00  0.00     0.009 A 
HETATM    7  C3  UNK     1      18.579  -0.942  35.054  1.00  0.00     0.118 A 
HETATM    8  C4  UNK     1      19.695  -3.358  36.016  1.00  0.00     0.046 A 
HETATM    9  C5  UNK     1      19.928  -2.940  34.764  1.00  0.00     0.044 A 
HETATM   10  C6  UNK     1      19.027  -0.030  32.435  1.00  0.00     0.090 A 
HETATM   11  C7  UNK     1      18.319  -1.410  36.470  1.00  0.00     0.263 A 
HETATM   12  C9  UNK     1      17.968   0.338  34.594  1.00  0.00     0.305 A 
HETATM   13  C10 UNK     1      20.378  -1.923  31.918  1.00  0.00     0.015 A 
HETATM   14  C11 UNK     1      19.207   0.481  31.146  1.00  0.00     0.038 A 
HETATM   15  C14 UNK     1      20.568  -1.426  30.621  1.00  0.00     0.001 A 
HETATM   16  C15 UNK     1      19.983  -0.224  30.236  1.00  0.00     0.003 A 
HETATM   17  H2  UNK     1      18.750  -2.937  37.790  1.00  0.00     0.169 HD
ENDROOT
BRANCH   8  18
HETATM   18  C8  UNK     1      20.274  -4.606  36.547  1.00  0.00    -0.009 A 
HETATM   19  C12 UNK     1      19.993  -5.828  35.929  1.00  0.00     0.016 A 
HETATM   20  C16 UNK     1      20.540  -7.008  36.432  1.00  0.00     0.037 A 
HETATM   21  C18 UNK     1      21.368  -6.971  37.554  1.00  0.00     0.068 A 
HETATM   22  C17 UNK     1      21.650  -5.753  38.173  1.00  0.00     0.037 A 
HETATM   23  C13 UNK     1      21.103  -4.572  37.670  1.00  0.00     0.016 A 
BRANCH  21  24
HETATM   24  O4  UNK     1      21.901  -8.123  38.044  1.00  0.00    -0.356 OA
HETATM   25  C19 UNK     1      22.823  -8.819  37.206  1.00  0.00     0.210 C 
ENDBRANCH  21  24
ENDBRANCH   8  18
TORSDOF 2
ENDMDL
MODEL 5
REMARK VINA RESULT:      -8.4      5.802      8.819
REMARK  2 active torsions:
REMARK  status: ('A' for Active; 'I' for Inactive)
REMARK    1  A    between atoms: C18_23  and  O4_4 
REMARK    2  A    between atoms: C4_9  and  C8_13 
ROOT
HETATM    1  O1  UNK     1      20.653  -8.532  37.789  1.00  0.00    -0.274 OA
HETATM    2  O2  UNK     1      17.129  -6.708  36.223  1.00  0.00    -0.267 OA
HETATM    3  O3  UNK     1      18.584  -8.810  36.909  1.00  0.00    -0.259 OA
HETATM    4  N1  UNK     1      17.970  -4.609  36.529  1.00  0.00    -0.322 N 
HETATM    5  C1  UNK     1      20.310  -5.717  37.569  1.00  0.00     0.001 A 
HETATM    6  C2  UNK     1      21.555  -6.298  38.127  1.00  0.00     0.009 A 
HETATM    7  C3  UNK     1      19.329  -6.560  37.167  1.00  0.00     0.118 A 
HETATM    8  C4  UNK     1      18.970  -3.763  36.936  1.00  0.00     0.046 A 
HETATM    9  C5  UNK     1      20.104  -4.274  37.435  1.00  0.00     0.044 A 
HETATM   10  C6  UNK     1      21.682  -7.681  38.215  1.00  0.00     0.090 A 
HETATM   11  C7  UNK     1      18.049  -5.984  36.600  1.00  0.00     0.263 A 
HETATM   12  C9  UNK     1      19.470  -8.041  37.269  1.00  0.00     0.305 A 
HETATM   13  C10 UNK     1      22.641  -5.532  38.584  1.00  0.00     0.015 A 
HETATM   14  C11 UNK     1      22.824  -8.305  38.727  1.00  0.00     0.038 A 
HETATM   15  C14 UNK     1      23.793  -6.140  39.101  1.00  0.00     0.001 A 
HETATM   16  C15 UNK     1      23.884  -7.527  39.172  1.00  0.00     0.003 A 
HETATM   17  H2  UNK     1      17.122  -4.195  36.152  1.00  0.00     0.169 HD
ENDROOT
BRANCH   8  18
HETATM   18  C8  UNK     1      18.761  -2.310  36.794  1.00  0.00    -0.009 A 
HETATM   19  C12 UNK     1      18.053  -1.603  37.770  1.00  0.00     0.016 A 
HETATM   20  C16 UNK     1      17.856  -0.230  37.635  1.00  0.00     0.037 A 
HETATM   21  C18 UNK     1      18.364   0.442  36.523  1.00  0.00     0.068 A 
HETATM   22  C17 UNK     1      19.071  -0.260  35.547  1.00  0.00     0.037 A 
HETATM   23  C13 UNK     1      19.269  -1.635  35.683  1.00  0.00     0.016 A 
BRANCH  21  24
HETATM   24  O4  UNK     1      18.171   1.783  36.391  1.00  0.00    -0.356 OA
HETATM   25  C19 UNK     1      18.444   2.356  35.113  1.00  0.00     0.210 C 
ENDBRANCH  21  24
ENDBRANCH   8  18
TORSDOF 2
ENDMDL
MODEL 6
REMARK VINA RESULT:      -8.3      3.253      4.476
REMARK  2 active torsions:
REMARK  status: ('A' for Active; 'I' for Inactive)
REMARK    1  A    between atoms: C18_23  and  O4_4 
REMARK    2  A    between atoms: C4_9  and  C8_13 
ROOT
HETATM    1  O1  UNK     1      19.790  -1.620  28.785  1.00  0.00    -0.274 OA
HETATM    2  O2  UNK     1      17.998   2.082  27.655  1.00  0.00    -0.267 OA
HETATM    3  O3  UNK     1      18.878  -0.358  27.137  1.00  0.00    -0.259 OA
HETATM    4  N1  UNK     1      18.156   2.910  29.775  1.00  0.00    -0.322 N 
HETATM    5  C1  UNK     1      19.333   0.520  30.602  1.00  0.00     0.001 A 
HETATM    6  C2  UNK     1      19.955  -0.749  31.050  1.00  0.00     0.009 A 
HETATM    7  C3  UNK     1      18.979   0.640  29.300  1.00  0.00     0.118 A 
HETATM    8  C4  UNK     1      18.520   2.781  31.092  1.00  0.00     0.046 A 
HETATM    9  C5  UNK     1      19.091   1.642  31.509  1.00  0.00     0.044 A 
HETATM   10  C6  UNK     1      20.161  -1.770  30.127  1.00  0.00     0.090 A 
HETATM   11  C7  UNK     1      18.338   1.927  28.827  1.00  0.00     0.263 A 
HETATM   12  C9  UNK     1      19.199  -0.460  28.318  1.00  0.00     0.305 A 
HETATM   13  C10 UNK     1      20.360  -1.000  32.372  1.00  0.00     0.015 A 
HETATM   14  C11 UNK     1      20.743  -2.994  30.471  1.00  0.00     0.038 A 
HETATM   15  C14 UNK     1      20.943  -2.222  32.735  1.00  0.00     0.001 A 
HETATM   16  C15 UNK     1      21.135  -3.218  31.783  1.00  0.00     0.003 A 
HETATM   17  H2  UNK     1      17.729   3.786  29.485  1.00  0.00     0.169 HD
ENDROOT
BRANCH   8  18
HETATM   18  C8  UNK     1      18.280   3.917  32.001  1.00  0.00    -0.009 A 
HETATM   19  C12 UNK     1      18.317   3.728  33.385  1.00  0.00     0.016 A 
HETATM   20  C16 UNK     1      18.090   4.802  34.245  1.00  0.00     0.037 A 
HETATM   21  C18 UNK     1      17.824   6.069  33.724  1.00  0.00     0.068 A 
HETATM   22  C17 UNK     1      17.786   6.261  32.342  1.00  0.00     0.037 A 
HETATM   23  C13 UNK     1      18.014   5.186  31.483  1.00  0.00     0.016 A 
BRANCH  21  24
HETATM   24  O4  UNK     1      17.602   7.117  34.563  1.00  0.00    -0.356 OA
HETATM   25  C19 UNK     1      18.740   7.877  34.968  1.00  0.00     0.210 C 
ENDBRANCH  21  24
ENDBRANCH   8  18
TORSDOF 2
ENDMDL
MODEL 7
REMARK VINA RESULT:      -8.3     11.950     15.337
REMARK  2 active torsions:
REMARK  status: ('A' for Active; 'I' for Inactive)
REMARK    1  A    between atoms: C18_23  and  O4_4 
REMARK    2  A    between atoms: C4_9  and  C8_13 
ROOT
HETATM    1  O1  UNK     1      30.577  -8.172  38.491  1.00  0.00    -0.274 OA
HETATM    2  O2  UNK     1      27.343 -10.899  39.031  1.00  0.00    -0.267 OA
HETATM    3  O3  UNK     1      29.909 -10.322  38.746  1.00  0.00    -0.259 OA
HETATM    4  N1  UNK     1      25.802  -9.216  39.023  1.00  0.00    -0.322 N 
HETATM    5  C1  UNK     1      27.857  -7.361  38.673  1.00  0.00     0.001 A 
HETATM    6  C2  UNK     1      28.943  -6.369  38.491  1.00  0.00     0.009 A 
HETATM    7  C3  UNK     1      28.188  -8.672  38.757  1.00  0.00     0.118 A 
HETATM    8  C4  UNK     1      25.475  -7.887  38.935  1.00  0.00     0.046 A 
HETATM    9  C5  UNK     1      26.447  -6.979  38.762  1.00  0.00     0.044 A 
HETATM   10  C6  UNK     1      30.261  -6.810  38.406  1.00  0.00     0.090 A 
HETATM   11  C7  UNK     1      27.091  -9.698  38.947  1.00  0.00     0.263 A 
HETATM   12  C9  UNK     1      29.602  -9.136  38.669  1.00  0.00     0.305 A 
HETATM   13  C10 UNK     1      28.732  -4.983  38.397  1.00  0.00     0.015 A 
HETATM   14  C11 UNK     1      31.340  -5.937  38.232  1.00  0.00     0.038 A 
HETATM   15  C14 UNK     1      29.802  -4.095  38.224  1.00  0.00     0.001 A 
HETATM   16  C15 UNK     1      31.106  -4.572  38.142  1.00  0.00     0.003 A 
HETATM   17  H2  UNK     1      25.046  -9.883  39.151  1.00  0.00     0.169 HD
ENDROOT
BRANCH   8  18
HETATM   18  C8  UNK     1      24.053  -7.506  39.020  1.00  0.00    -0.009 A 
HETATM   19  C12 UNK     1      23.664  -6.186  38.777  1.00  0.00     0.016 A 
HETATM   20  C16 UNK     1      22.319  -5.827  38.857  1.00  0.00     0.037 A 
HETATM   21  C18 UNK     1      21.359  -6.785  39.181  1.00  0.00     0.068 A 
HETATM   22  C17 UNK     1      21.744  -8.104  39.424  1.00  0.00     0.037 A 
HETATM   23  C13 UNK     1      23.090  -8.463  39.343  1.00  0.00     0.016 A 
BRANCH  21  24
HETATM   24  O4  UNK     1      20.046  -6.434  39.260  1.00  0.00    -0.356 OA
HETATM   25  C19 UNK     1      19.166  -6.990  38.284  1.00  0.00     0.210 C 
ENDBRANCH  21  24
ENDBRANCH   8  18
TORSDOF 2
ENDMDL
MODEL 8
REMARK VINA RESULT:      -8.3      1.802      7.265
REMARK  2 active torsions:
REMARK  status: ('A' for Active; 'I' for Inactive)
REMARK    1  A    between atoms: C18_23  and  O4_4 
REMARK    2  A    between atoms: C4_9  and  C8_13 
ROOT
HETATM    1  O1  UNK     1      18.055   7.053  31.139  1.00  0.00    -0.274 OA
HETATM    2  O2  UNK     1      18.863   3.023  29.998  1.00  0.00    -0.267 OA
HETATM    3  O3  UNK     1      18.603   5.605  29.484  1.00  0.00    -0.259 OA
HETATM    4  N1  UNK     1      18.536   2.260  32.124  1.00  0.00    -0.322 N 
HETATM    5  C1  UNK     1      17.997   4.867  32.958  1.00  0.00     0.001 A 
HETATM    6  C2  UNK     1      17.713   6.251  33.410  1.00  0.00     0.009 A 
HETATM    7  C3  UNK     1      18.292   4.663  31.652  1.00  0.00     0.118 A 
HETATM    8  C4  UNK     1      18.235   2.475  33.445  1.00  0.00     0.046 A 
HETATM    9  C5  UNK     1      17.968   3.720  33.866  1.00  0.00     0.044 A 
HETATM   10  C6  UNK     1      17.751   7.291  32.486  1.00  0.00     0.090 A 
HETATM   11  C7  UNK     1      18.589   3.258  31.174  1.00  0.00     0.263 A 
HETATM   12  C9  UNK     1      18.334   5.783  30.668  1.00  0.00     0.305 A 
HETATM   13  C10 UNK     1      17.402   6.593  34.737  1.00  0.00     0.015 A 
HETATM   14  C11 UNK     1      17.494   8.620  32.833  1.00  0.00     0.038 A 
HETATM   15  C14 UNK     1      17.143   7.921  35.102  1.00  0.00     0.001 A 
HETATM   16  C15 UNK     1      17.188   8.934  34.150  1.00  0.00     0.003 A 
HETATM   17  H2  UNK     1      18.731   1.307  31.831  1.00  0.00     0.169 HD
ENDROOT
BRANCH   8  18
HETATM   18  C8  UNK     1      18.201   1.315  34.355  1.00  0.00    -0.009 A 
HETATM   19  C12 UNK     1      18.029   1.506  35.729  1.00  0.00     0.016 A 
HETATM   20  C16 UNK     1      17.997   0.409  36.589  1.00  0.00     0.037 A 
HETATM   21  C18 UNK     1      18.138  -0.882  36.080  1.00  0.00     0.068 A 
HETATM   22  C17 UNK     1      18.310  -1.075  34.709  1.00  0.00     0.037 A 
HETATM   23  C13 UNK     1      18.341   0.022  33.848  1.00  0.00     0.016 A 
BRANCH  21  24
HETATM   24  O4  UNK     1      18.107  -1.952  36.920  1.00  0.00    -0.356 OA
HETATM   25  C19 UNK     1      19.160  -2.906  36.795  1.00  0.00     0.210 C 
ENDBRANCH  21  24
ENDBRANCH   8  18
TORSDOF 2
ENDMDL
MODEL 9
REMARK VINA RESULT:      -8.3      1.797      4.066
REMARK  2 active torsions:
REMARK  status: ('A' for Active; 'I' for Inactive)
REMARK    1  A    between atoms: C18_23  and  O4_4 
REMARK    2  A    between atoms: C4_9  and  C8_13 
ROOT
HETATM    1  O1  UNK     1      19.207  -0.740  32.730  1.00  0.00    -0.274 OA
HETATM    2  O2  UNK     1      18.206   1.790  36.015  1.00  0.00    -0.267 OA
HETATM    3  O3  UNK     1      18.843  -0.551  34.958  1.00  0.00    -0.259 OA
HETATM    4  N1  UNK     1      18.032   3.623  34.668  1.00  0.00    -0.322 N 
HETATM    5  C1  UNK     1      18.683   2.043  32.462  1.00  0.00     0.001 A 
HETATM    6  C2  UNK     1      19.032   1.211  31.286  1.00  0.00     0.009 A 
HETATM    7  C3  UNK     1      18.623   1.448  33.678  1.00  0.00     0.118 A 
HETATM    8  C4  UNK     1      18.093   4.217  33.433  1.00  0.00     0.046 A 
HETATM    9  C5  UNK     1      18.400   3.475  32.359  1.00  0.00     0.044 A 
HETATM   10  C6  UNK     1      19.280  -0.148  31.462  1.00  0.00     0.090 A 
HETATM   11  C7  UNK     1      18.272   2.284  34.890  1.00  0.00     0.263 A 
HETATM   12  C9  UNK     1      18.893  -0.007  33.859  1.00  0.00     0.305 A 
HETATM   13  C10 UNK     1      19.134   1.709  29.976  1.00  0.00     0.015 A 
HETATM   14  C11 UNK     1      19.614  -0.999  30.404  1.00  0.00     0.038 A 
HETATM   15  C14 UNK     1      19.469   0.870  28.904  1.00  0.00     0.001 A 
HETATM   16  C15 UNK     1      19.708  -0.483  29.119  1.00  0.00     0.003 A 
HETATM   17  H2  UNK     1      17.793   4.208  35.464  1.00  0.00     0.169 HD
ENDROOT
BRANCH   8  18
HETATM   18  C8  UNK     1      17.801   5.659  33.332  1.00  0.00    -0.009 A 
HETATM   19  C12 UNK     1      16.743   6.107  32.536  1.00  0.00     0.016 A 
HETATM   20  C16 UNK     1      16.467   7.470  32.441  1.00  0.00     0.037 A 
HETATM   21  C18 UNK     1      17.249   8.391  33.139  1.00  0.00     0.068 A 
HETATM   22  C17 UNK     1      18.306   7.947  33.934  1.00  0.00     0.037 A 
HETATM   23  C13 UNK     1      18.581   6.582  34.030  1.00  0.00     0.016 A 
BRANCH  21  24
HETATM   24  O4  UNK     1      16.979   9.722  33.045  1.00  0.00    -0.356 OA
HETATM   25  C19 UNK     1      15.707  10.161  33.518  1.00  0.00     0.210 C 
ENDBRANCH  21  24
ENDBRANCH   8  18
TORSDOF 2
ENDMDL
MODEL 10
REMARK VINA RESULT:      -8.2     17.032     19.293
REMARK  2 active torsions:
REMARK  status: ('A' for Active; 'I' for Inactive)
REMARK    1  A    between atoms: C18_23  and  O4_4 
REMARK    2  A    between atoms: C4_9  and  C8_13 
ROOT
HETATM    1  O1  UNK     1      17.835  -5.984  13.895  1.00  0.00    -0.274 OA
HETATM    2  O2  UNK     1      20.334  -2.694  12.834  1.00  0.00    -0.267 OA
HETATM    3  O3  UNK     1      19.345  -5.117  12.445  1.00  0.00    -0.259 OA
HETATM    4  N1  UNK     1      19.652  -1.477  14.640  1.00  0.00    -0.322 N 
HETATM    5  C1  UNK     1      17.986  -3.580  15.406  1.00  0.00     0.001 A 
HETATM    6  C2  UNK     1      17.095  -4.691  15.818  1.00  0.00     0.009 A 
HETATM    7  C3  UNK     1      18.729  -3.731  14.284  1.00  0.00     0.118 A 
HETATM    8  C4  UNK     1      18.897  -1.333  15.776  1.00  0.00     0.046 A 
HETATM    9  C5  UNK     1      18.093  -2.333  16.165  1.00  0.00     0.044 A 
HETATM   10  C6  UNK     1      17.053  -5.851  15.049  1.00  0.00     0.090 A 
HETATM   11  C7  UNK     1      19.641  -2.604  13.847  1.00  0.00     0.263 A 
HETATM   12  C9  UNK     1      18.676  -4.975  13.464  1.00  0.00     0.305 A 
HETATM   13  C10 UNK     1      16.271  -4.655  16.955  1.00  0.00     0.015 A 
HETATM   14  C11 UNK     1      16.241  -6.942  15.372  1.00  0.00     0.038 A 
HETATM   15  C14 UNK     1      15.449  -5.739  17.292  1.00  0.00     0.001 A 
HETATM   16  C15 UNK     1      15.435  -6.883  16.500  1.00  0.00     0.003 A 
HETATM   17  H2  UNK     1      20.255  -0.705  14.371  1.00  0.00     0.169 HD
ENDROOT
BRANCH   8  18
HETATM   18  C8  UNK     1      19.013  -0.077  16.542  1.00  0.00    -0.009 A 
HETATM   19  C12 UNK     1      18.860  -0.085  17.931  1.00  0.00     0.016 A 
HETATM   20  C16 UNK     1      18.968   1.102  18.654  1.00  0.00     0.037 A 
HETATM   21  C18 UNK     1      19.230   2.301  17.991  1.00  0.00     0.068 A 
HETATM   22  C17 UNK     1      19.383   2.313  16.604  1.00  0.00     0.037 A 
HETATM   23  C13 UNK     1      19.274   1.124  15.881  1.00  0.00     0.016 A 
BRANCH  21  24
HETATM   24  O4  UNK     1      19.336   3.460  18.697  1.00  0.00    -0.356 OA
HETATM   25  C19 UNK     1      20.568   4.172  18.595  1.00  0.00     0.210 C 
ENDBRANCH  21  24
ENDBRANCH   8  18
TORSDOF 2
ENDMDL
