MODEL 1
REMARK VINA RESULT:      -9.7      0.000      0.000
REMARK  4 active torsions:
REMARK  status: ('A' for Active; 'I' for Inactive)
REMARK    1  A    between atoms: C1_10  and  S1_1 
REMARK    2  A    between atoms: N2_9  and  S1_1 
REMARK       I    between atoms: C11_20  and  N1_8 
REMARK    3  A    between atoms: C2_11  and  N1_8 
REMARK       I    between atoms: C17_26  and  N2_9 
REMARK    4  A    between atoms: C11_20  and  C4_13 
ROOT
HETATM    1  O4  UNK     1      21.330  -3.955  36.777  1.00  0.00    -0.267 OA
HETATM    2  N1  UNK     1      19.137  -4.796  36.597  1.00  0.00    -0.323 N 
HETATM    3  C11 UNK     1      20.124  -3.820  36.571  1.00  0.00     0.262 C 
HETATM    4  H6  UNK     1      18.182  -4.522  36.382  1.00  0.00     0.169 HD
ENDROOT
BRANCH   2   5
HETATM    5  C2  UNK     1      19.295  -6.177  36.866  1.00  0.00     0.035 A 
HETATM    6  C7  UNK     1      19.635  -6.582  38.146  1.00  0.00     0.031 A 
HETATM    7  C5  UNK     1      19.791  -7.943  38.411  1.00  0.00     0.027 A 
HETATM    8  C1  UNK     1      19.604  -8.878  37.393  1.00  0.00     0.080 A 
HETATM    9  C6  UNK     1      19.261  -8.452  36.109  1.00  0.00     0.027 A 
HETATM   10  C8  UNK     1      19.105  -7.092  35.844  1.00  0.00     0.031 A 
BRANCH   8  11
HETATM   11  S1  UNK     1      19.799 -10.581  37.725  1.00  0.00     0.265 S 
HETATM   12  O2  UNK     1      19.568 -10.815  39.144  1.00  0.00    -0.200 OA
HETATM   13  O3  UNK     1      19.020 -11.315  36.738  1.00  0.00    -0.200 OA
BRANCH  11  14
HETATM   14  N2  UNK     1      21.465 -10.812  37.392  1.00  0.00    -0.251 N 
HETATM   15  C17 UNK     1      22.022 -10.987  36.086  1.00  0.00     0.227 C 
HETATM   16  O6  UNK     1      21.368 -10.945  35.050  1.00  0.00    -0.273 OA
HETATM   17  C18 UNK     1      23.503 -11.235  36.097  1.00  0.00     0.118 C 
HETATM   18  H8  UNK     1      22.091 -10.891  38.204  1.00  0.00     0.181 HD
ENDBRANCH  11  14
ENDBRANCH   8  11
ENDBRANCH   2   5
BRANCH   3  19
HETATM   19  C4  UNK     1      19.584  -2.493  36.253  1.00  0.00     0.108 A 
HETATM   20  C10 UNK     1      18.890  -1.889  37.224  1.00  0.00     0.037 A 
HETATM   21  C3  UNK     1      18.315  -0.571  37.002  1.00  0.00    -0.001 A 
HETATM   22  C13 UNK     1      17.582   0.097  37.986  1.00  0.00     0.014 A 
HETATM   23  C9  UNK     1      18.501   0.047  35.769  1.00  0.00     0.089 A 
HETATM   24  C15 UNK     1      17.051   1.363  37.724  1.00  0.00     0.001 A 
HETATM   25  C16 UNK     1      17.247   1.967  36.480  1.00  0.00     0.003 A 
HETATM   26  C14 UNK     1      17.977   1.308  35.493  1.00  0.00     0.038 A 
HETATM   27  O1  UNK     1      19.235  -0.594  34.752  1.00  0.00    -0.274 OA
HETATM   28  C12 UNK     1      19.796  -1.855  34.934  1.00  0.00     0.304 A 
HETATM   29  O5  UNK     1      20.432  -2.406  34.042  1.00  0.00    -0.259 OA
ENDBRANCH   3  19
TORSDOF 4
ENDMDL
MODEL 2
REMARK VINA RESULT:      -9.5      9.807     14.849
REMARK  4 active torsions:
REMARK  status: ('A' for Active; 'I' for Inactive)
REMARK    1  A    between atoms: C1_10  and  S1_1 
REMARK    2  A    between atoms: N2_9  and  S1_1 
REMARK       I    between atoms: C11_20  and  N1_8 
REMARK    3  A    between atoms: C2_11  and  N1_8 
REMARK       I    between atoms: C17_26  and  N2_9 
REMARK    4  A    between atoms: C11_20  and  C4_13 
ROOT
HETATM    1  O4  UNK     1      17.681   3.045  33.057  1.00  0.00    -0.267 OA
HETATM    2  N1  UNK     1      18.268   4.639  31.426  1.00  0.00    -0.323 N 
HETATM    3  C11 UNK     1      18.141   3.365  31.961  1.00  0.00     0.262 C 
HETATM    4  H6  UNK     1      18.653   4.733  30.489  1.00  0.00     0.169 HD
ENDROOT
BRANCH   2   5
HETATM    5  C2  UNK     1      17.895   5.867  32.022  1.00  0.00     0.035 A 
HETATM    6  C7  UNK     1      18.872   6.673  32.582  1.00  0.00     0.031 A 
HETATM    7  C5  UNK     1      18.503   7.883  33.171  1.00  0.00     0.027 A 
HETATM    8  C1  UNK     1      17.164   8.270  33.189  1.00  0.00     0.080 A 
HETATM    9  C6  UNK     1      16.192   7.448  32.619  1.00  0.00     0.027 A 
HETATM   10  C8  UNK     1      16.560   6.237  32.031  1.00  0.00     0.031 A 
BRANCH   8  11
HETATM   11  S1  UNK     1      16.703   9.785  33.926  1.00  0.00     0.265 S 
HETATM   12  O2  UNK     1      16.378   9.549  35.326  1.00  0.00    -0.200 OA
HETATM   13  O3  UNK     1      17.718  10.770  33.579  1.00  0.00    -0.200 OA
BRANCH  11  14
HETATM   14  N2  UNK     1      15.261  10.159  33.079  1.00  0.00    -0.251 N 
HETATM   15  C17 UNK     1      14.429  11.294  33.342  1.00  0.00     0.227 C 
HETATM   16  O6  UNK     1      14.685  12.153  34.177  1.00  0.00    -0.273 OA
HETATM   17  C18 UNK     1      13.193  11.337  32.490  1.00  0.00     0.118 C 
HETATM   18  H8  UNK     1      14.948   9.478  32.375  1.00  0.00     0.181 HD
ENDBRANCH  11  14
ENDBRANCH   8  11
ENDBRANCH   2   5
BRANCH   3  19
HETATM   19  C4  UNK     1      18.637   2.327  31.049  1.00  0.00     0.108 A 
HETATM   20  C10 UNK     1      19.058   1.192  31.618  1.00  0.00     0.037 A 
HETATM   21  C3  UNK     1      19.567   0.105  30.796  1.00  0.00    -0.001 A 
HETATM   22  C13 UNK     1      20.017  -1.097  31.346  1.00  0.00     0.014 A 
HETATM   23  C9  UNK     1      19.608   0.268  29.415  1.00  0.00     0.089 A 
HETATM   24  C15 UNK     1      20.498  -2.112  30.513  1.00  0.00     0.001 A 
HETATM   25  C16 UNK     1      20.532  -1.929  29.128  1.00  0.00     0.003 A 
HETATM   26  C14 UNK     1      20.085  -0.734  28.571  1.00  0.00     0.038 A 
HETATM   27  O1  UNK     1      19.163   1.466  28.822  1.00  0.00    -0.274 OA
HETATM   28  C12 UNK     1      18.670   2.522  29.583  1.00  0.00     0.304 A 
HETATM   29  O5  UNK     1      18.286   3.562  29.057  1.00  0.00    -0.259 OA
ENDBRANCH   3  19
TORSDOF 4
ENDMDL
MODEL 3
REMARK VINA RESULT:      -9.5      9.170     14.908
REMARK  4 active torsions:
REMARK  status: ('A' for Active; 'I' for Inactive)
REMARK    1  A    between atoms: C1_10  and  S1_1 
REMARK    2  A    between atoms: N2_9  and  S1_1 
REMARK       I    between atoms: C11_20  and  N1_8 
REMARK    3  A    between atoms: C2_11  and  N1_8 
REMARK       I    between atoms: C17_26  and  N2_9 
REMARK    4  A    between atoms: C11_20  and  C4_13 
ROOT
HETATM    1  O4  UNK     1      18.477   4.805  30.526  1.00  0.00    -0.267 OA
HETATM    2  N1  UNK     1      17.725   4.572  32.746  1.00  0.00    -0.323 N 
HETATM    3  C11 UNK     1      18.262   4.142  31.540  1.00  0.00     0.262 C 
HETATM    4  H6  UNK     1      17.631   3.897  33.500  1.00  0.00     0.169 HD
ENDROOT
BRANCH   2   5
HETATM    5  C2  UNK     1      17.299   5.879  33.084  1.00  0.00     0.035 A 
HETATM    6  C7  UNK     1      17.944   6.557  34.105  1.00  0.00     0.031 A 
HETATM    7  C5  UNK     1      17.523   7.845  34.439  1.00  0.00     0.027 A 
HETATM    8  C1  UNK     1      16.466   8.435  33.748  1.00  0.00     0.080 A 
HETATM    9  C6  UNK     1      15.828   7.738  32.721  1.00  0.00     0.027 A 
HETATM   10  C8  UNK     1      16.248   6.450  32.387  1.00  0.00     0.031 A 
BRANCH   8  11
HETATM   11  S1  UNK     1      15.940  10.046  34.166  1.00  0.00     0.265 S 
HETATM   12  O2  UNK     1      15.625  10.086  35.588  1.00  0.00    -0.200 OA
HETATM   13  O3  UNK     1      16.911  10.983  33.618  1.00  0.00    -0.200 OA
BRANCH  11  14
HETATM   14  N2  UNK     1      14.483  10.181  33.273  1.00  0.00    -0.251 N 
HETATM   15  C17 UNK     1      13.580  11.289  33.342  1.00  0.00     0.227 C 
HETATM   16  O6  UNK     1      13.776  12.292  34.018  1.00  0.00    -0.273 OA
HETATM   17  C18 UNK     1      12.350  11.109  32.500  1.00  0.00     0.118 C 
HETATM   18  H8  UNK     1      14.218   9.371  32.697  1.00  0.00     0.181 HD
ENDBRANCH  11  14
ENDBRANCH   8  11
ENDBRANCH   2   5
BRANCH   3  19
HETATM   19  C4  UNK     1      18.588   2.711  31.557  1.00  0.00     0.108 A 
HETATM   20  C10 UNK     1      19.098   2.207  30.426  1.00  0.00     0.037 A 
HETATM   21  C3  UNK     1      19.452   0.799  30.346  1.00  0.00    -0.001 A 
HETATM   22  C13 UNK     1      19.986   0.230  29.187  1.00  0.00     0.014 A 
HETATM   23  C9  UNK     1      19.253  -0.010  31.461  1.00  0.00     0.089 A 
HETATM   24  C15 UNK     1      20.311  -1.130  29.161  1.00  0.00     0.001 A 
HETATM   25  C16 UNK     1      20.103  -1.926  30.290  1.00  0.00     0.003 A 
HETATM   26  C14 UNK     1      19.572  -1.367  31.450  1.00  0.00     0.038 A 
HETATM   27  O1  UNK     1      18.718   0.526  32.648  1.00  0.00    -0.274 OA
HETATM   28  C12 UNK     1      18.369   1.870  32.755  1.00  0.00     0.304 A 
HETATM   29  O5  UNK     1      17.902   2.328  33.792  1.00  0.00    -0.259 OA
ENDBRANCH   3  19
TORSDOF 4
ENDMDL
MODEL 4
REMARK VINA RESULT:      -9.5      5.758      8.887
REMARK  4 active torsions:
REMARK  status: ('A' for Active; 'I' for Inactive)
REMARK    1  A    between atoms: C1_10  and  S1_1 
REMARK    2  A    between atoms: N2_9  and  S1_1 
REMARK       I    between atoms: C11_20  and  N1_8 
REMARK    3  A    between atoms: C2_11  and  N1_8 
REMARK       I    between atoms: C17_26  and  N2_9 
REMARK    4  A    between atoms: C11_20  and  C4_13 
ROOT
HETATM    1  O4  UNK     1      26.200  -9.111  39.463  1.00  0.00    -0.267 OA
HETATM    2  N1  UNK     1      24.853  -7.497  38.402  1.00  0.00    -0.323 N 
HETATM    3  C11 UNK     1      26.026  -8.015  38.934  1.00  0.00     0.262 C 
HETATM    4  H6  UNK     1      24.882  -6.573  37.977  1.00  0.00     0.169 HD
ENDROOT
BRANCH   2   5
HETATM    5  C2  UNK     1      23.582  -8.118  38.347  1.00  0.00     0.035 A 
HETATM    6  C7  UNK     1      23.233  -8.847  37.222  1.00  0.00     0.031 A 
HETATM    7  C5  UNK     1      21.980  -9.458  37.168  1.00  0.00     0.027 A 
HETATM    8  C1  UNK     1      21.095  -9.332  38.239  1.00  0.00     0.080 A 
HETATM    9  C6  UNK     1      21.464  -8.595  39.365  1.00  0.00     0.027 A 
HETATM   10  C8  UNK     1      22.716  -7.983  39.419  1.00  0.00     0.031 A 
BRANCH   8  11
HETATM   11  S1  UNK     1      19.527 -10.097  38.171  1.00  0.00     0.265 S 
HETATM   12  O2  UNK     1      19.492 -11.001  37.029  1.00  0.00    -0.200 OA
HETATM   13  O3  UNK     1      19.227 -10.608  39.501  1.00  0.00    -0.200 OA
BRANCH  11  14
HETATM   14  N2  UNK     1      18.501  -8.762  37.850  1.00  0.00    -0.251 N 
HETATM   15  C17 UNK     1      18.570  -7.940  36.681  1.00  0.00     0.227 C 
HETATM   16  O6  UNK     1      19.346  -8.132  35.752  1.00  0.00    -0.273 OA
HETATM   17  C18 UNK     1      17.591  -6.801  36.694  1.00  0.00     0.118 C 
HETATM   18  H8  UNK     1      17.834  -8.505  38.588  1.00  0.00     0.181 HD
ENDBRANCH  11  14
ENDBRANCH   8  11
ENDBRANCH   2   5
BRANCH   3  19
HETATM   19  C4  UNK     1      27.151  -7.079  38.811  1.00  0.00     0.108 A 
HETATM   20  C10 UNK     1      28.365  -7.628  38.688  1.00  0.00     0.037 A 
HETATM   21  C3  UNK     1      29.542  -6.781  38.560  1.00  0.00    -0.001 A 
HETATM   22  C13 UNK     1      30.828  -7.310  38.430  1.00  0.00     0.014 A 
HETATM   23  C9  UNK     1      29.382  -5.399  38.569  1.00  0.00     0.089 A 
HETATM   24  C15 UNK     1      31.927  -6.454  38.310  1.00  0.00     0.001 A 
HETATM   25  C16 UNK     1      31.746  -5.069  38.322  1.00  0.00     0.003 A 
HETATM   26  C14 UNK     1      30.467  -4.533  38.451  1.00  0.00     0.038 A 
HETATM   27  O1  UNK     1      28.100  -4.828  38.698  1.00  0.00    -0.274 OA
HETATM   28  C12 UNK     1      26.956  -5.612  38.821  1.00  0.00     0.304 A 
HETATM   29  O5  UNK     1      25.845  -5.106  38.934  1.00  0.00    -0.259 OA
ENDBRANCH   3  19
TORSDOF 4
ENDMDL
MODEL 5
REMARK VINA RESULT:      -9.4      9.252     14.973
REMARK  4 active torsions:
REMARK  status: ('A' for Active; 'I' for Inactive)
REMARK    1  A    between atoms: C1_10  and  S1_1 
REMARK    2  A    between atoms: N2_9  and  S1_1 
REMARK       I    between atoms: C11_20  and  N1_8 
REMARK    3  A    between atoms: C2_11  and  N1_8 
REMARK       I    between atoms: C17_26  and  N2_9 
REMARK    4  A    between atoms: C11_20  and  C4_13 
ROOT
HETATM    1  O4  UNK     1      18.565   4.955  30.588  1.00  0.00    -0.267 OA
HETATM    2  N1  UNK     1      17.596   4.650  32.713  1.00  0.00    -0.323 N 
HETATM    3  C11 UNK     1      18.254   4.260  31.555  1.00  0.00     0.262 C 
HETATM    4  H6  UNK     1      17.430   3.952  33.433  1.00  0.00     0.169 HD
ENDROOT
BRANCH   2   5
HETATM    5  C2  UNK     1      17.129   5.945  33.046  1.00  0.00     0.035 A 
HETATM    6  C7  UNK     1      16.095   6.502  32.313  1.00  0.00     0.031 A 
HETATM    7  C5  UNK     1      15.637   7.778  32.642  1.00  0.00     0.027 A 
HETATM    8  C1  UNK     1      16.218   8.477  33.699  1.00  0.00     0.080 A 
HETATM    9  C6  UNK     1      17.258   7.901  34.428  1.00  0.00     0.027 A 
HETATM   10  C8  UNK     1      17.718   6.625  34.100  1.00  0.00     0.031 A 
BRANCH   8  11
HETATM   11  S1  UNK     1      15.644  10.074  34.110  1.00  0.00     0.265 S 
HETATM   12  O2  UNK     1      14.658  10.490  33.122  1.00  0.00    -0.200 OA
HETATM   13  O3  UNK     1      15.288  10.065  35.522  1.00  0.00    -0.200 OA
BRANCH  11  14
HETATM   14  N2  UNK     1      17.061  11.017  33.907  1.00  0.00    -0.251 N 
HETATM   15  C17 UNK     1      17.142  12.430  34.119  1.00  0.00     0.227 C 
HETATM   16  O6  UNK     1      16.208  13.118  34.517  1.00  0.00    -0.273 OA
HETATM   17  C18 UNK     1      18.492  13.004  33.803  1.00  0.00     0.118 C 
HETATM   18  H8  UNK     1      17.892  10.530  33.546  1.00  0.00     0.181 HD
ENDBRANCH  11  14
ENDBRANCH   8  11
ENDBRANCH   2   5
BRANCH   3  19
HETATM   19  C4  UNK     1      18.587   2.830  31.561  1.00  0.00     0.108 A 
HETATM   20  C10 UNK     1      19.076   2.332  30.419  1.00  0.00     0.037 A 
HETATM   21  C3  UNK     1      19.435   0.926  30.328  1.00  0.00    -0.001 A 
HETATM   22  C13 UNK     1      19.947   0.362  29.157  1.00  0.00     0.014 A 
HETATM   23  C9  UNK     1      19.261   0.112  31.443  1.00  0.00     0.089 A 
HETATM   24  C15 UNK     1      20.278  -0.996  29.120  1.00  0.00     0.001 A 
HETATM   25  C16 UNK     1      20.096  -1.796  30.250  1.00  0.00     0.003 A 
HETATM   26  C14 UNK     1      19.585  -1.243  31.422  1.00  0.00     0.038 A 
HETATM   27  O1  UNK     1      18.747   0.643  32.643  1.00  0.00    -0.274 OA
HETATM   28  C12 UNK     1      18.395   1.985  32.760  1.00  0.00     0.304 A 
HETATM   29  O5  UNK     1      17.947   2.438  33.808  1.00  0.00    -0.259 OA
ENDBRANCH   3  19
TORSDOF 4
ENDMDL
MODEL 6
REMARK VINA RESULT:      -9.4      3.476      9.716
REMARK  4 active torsions:
REMARK  status: ('A' for Active; 'I' for Inactive)
REMARK    1  A    between atoms: C1_10  and  S1_1 
REMARK    2  A    between atoms: N2_9  and  S1_1 
REMARK       I    between atoms: C11_20  and  N1_8 
REMARK    3  A    between atoms: C2_11  and  N1_8 
REMARK       I    between atoms: C17_26  and  N2_9 
REMARK    4  A    between atoms: C11_20  and  C4_13 
ROOT
HETATM    1  O4  UNK     1      21.486  -4.288  37.201  1.00  0.00    -0.267 OA
HETATM    2  N1  UNK     1      19.283  -4.114  36.386  1.00  0.00    -0.323 N 
HETATM    3  C11 UNK     1      20.423  -4.776  36.822  1.00  0.00     0.262 C 
HETATM    4  H6  UNK     1      18.472  -4.669  36.125  1.00  0.00     0.169 HD
ENDROOT
BRANCH   2   5
HETATM    5  C2  UNK     1      19.086  -2.717  36.277  1.00  0.00     0.035 A 
HETATM    6  C7  UNK     1      19.748  -2.014  35.284  1.00  0.00     0.031 A 
HETATM    7  C5  UNK     1      19.553  -0.637  35.178  1.00  0.00     0.027 A 
HETATM    8  C1  UNK     1      18.699   0.018  36.065  1.00  0.00     0.080 A 
HETATM    9  C6  UNK     1      18.039  -0.705  37.059  1.00  0.00     0.027 A 
HETATM   10  C8  UNK     1      18.234  -2.082  37.166  1.00  0.00     0.031 A 
BRANCH   8  11
HETATM   11  S1  UNK     1      18.456   1.741  35.932  1.00  0.00     0.265 S 
HETATM   12  O2  UNK     1      17.197   2.092  36.576  1.00  0.00    -0.200 OA
HETATM   13  O3  UNK     1      19.687   2.395  36.356  1.00  0.00    -0.200 OA
BRANCH  11  14
HETATM   14  N2  UNK     1      18.284   1.939  34.238  1.00  0.00    -0.251 N 
HETATM   15  C17 UNK     1      18.269   3.199  33.559  1.00  0.00     0.227 C 
HETATM   16  O6  UNK     1      18.424   4.280  34.115  1.00  0.00    -0.273 OA
HETATM   17  C18 UNK     1      18.039   3.075  32.080  1.00  0.00     0.118 C 
HETATM   18  H8  UNK     1      18.119   1.086  33.688  1.00  0.00     0.181 HD
ENDBRANCH  11  14
ENDBRANCH   8  11
ENDBRANCH   2   5
BRANCH   3  19
HETATM   19  C4  UNK     1      20.259  -6.235  36.800  1.00  0.00     0.108 A 
HETATM   20  C10 UNK     1      20.088  -6.829  37.988  1.00  0.00     0.037 A 
HETATM   21  C3  UNK     1      19.917  -8.271  38.067  1.00  0.00    -0.001 A 
HETATM   22  C13 UNK     1      19.738  -8.934  39.284  1.00  0.00     0.014 A 
HETATM   23  C9  UNK     1      19.934  -9.018  36.893  1.00  0.00     0.089 A 
HETATM   24  C15 UNK     1      19.577 -10.322  39.308  1.00  0.00     0.001 A 
HETATM   25  C16 UNK     1      19.598 -11.055  38.118  1.00  0.00     0.003 A 
HETATM   26  C14 UNK     1      19.776 -10.402  36.901  1.00  0.00     0.038 A 
HETATM   27  O1  UNK     1      20.112  -8.386  35.647  1.00  0.00    -0.274 OA
HETATM   28  C12 UNK     1      20.278  -7.008  35.539  1.00  0.00     0.304 A 
HETATM   29  O5  UNK     1      20.434  -6.468  34.449  1.00  0.00    -0.259 OA
ENDBRANCH   3  19
TORSDOF 4
ENDMDL
MODEL 7
REMARK VINA RESULT:      -9.2      3.065      4.362
REMARK  4 active torsions:
REMARK  status: ('A' for Active; 'I' for Inactive)
REMARK    1  A    between atoms: C1_10  and  S1_1 
REMARK    2  A    between atoms: N2_9  and  S1_1 
REMARK       I    between atoms: C11_20  and  N1_8 
REMARK    3  A    between atoms: C2_11  and  N1_8 
REMARK       I    between atoms: C17_26  and  N2_9 
REMARK    4  A    between atoms: C11_20  and  C4_13 
ROOT
HETATM    1  O4  UNK     1      18.592  -1.748  36.129  1.00  0.00    -0.267 OA
HETATM    2  N1  UNK     1      19.922  -3.295  34.953  1.00  0.00    -0.323 N 
HETATM    3  C11 UNK     1      19.184  -2.131  35.121  1.00  0.00     0.262 C 
HETATM    4  H6  UNK     1      20.370  -3.456  34.054  1.00  0.00     0.169 HD
ENDROOT
BRANCH   2   5
HETATM    5  C2  UNK     1      20.163  -4.311  35.909  1.00  0.00     0.035 A 
HETATM    6  C7  UNK     1      19.702  -5.594  35.664  1.00  0.00     0.031 A 
HETATM    7  C5  UNK     1      19.939  -6.594  36.607  1.00  0.00     0.027 A 
HETATM    8  C1  UNK     1      20.633  -6.298  37.779  1.00  0.00     0.080 A 
HETATM    9  C6  UNK     1      21.092  -5.000  38.010  1.00  0.00     0.027 A 
HETATM   10  C8  UNK     1      20.854  -3.999  37.068  1.00  0.00     0.031 A 
BRANCH   8  11
HETATM   11  S1  UNK     1      20.929  -7.550  38.959  1.00  0.00     0.265 S 
HETATM   12  O2  UNK     1      22.133  -7.218  39.709  1.00  0.00    -0.200 OA
HETATM   13  O3  UNK     1      19.682  -7.790  39.671  1.00  0.00    -0.200 OA
BRANCH  11  14
HETATM   14  N2  UNK     1      21.259  -8.902  37.957  1.00  0.00    -0.251 N 
HETATM   15  C17 UNK     1      22.440  -9.066  37.167  1.00  0.00     0.227 C 
HETATM   16  O6  UNK     1      23.374  -8.272  37.156  1.00  0.00    -0.273 OA
HETATM   17  C18 UNK     1      22.433 -10.317  36.336  1.00  0.00     0.118 C 
HETATM   18  H8  UNK     1      20.518  -9.610  37.879  1.00  0.00     0.181 HD
ENDBRANCH  11  14
ENDBRANCH   8  11
ENDBRANCH   2   5
BRANCH   3  19
HETATM   19  C4  UNK     1      19.154  -1.312  33.904  1.00  0.00     0.108 A 
HETATM   20  C10 UNK     1      19.759  -1.829  32.828  1.00  0.00     0.037 A 
HETATM   21  C3  UNK     1      19.782  -1.091  31.575  1.00  0.00    -0.001 A 
HETATM   22  C13 UNK     1      20.402  -1.591  30.427  1.00  0.00     0.014 A 
HETATM   23  C9  UNK     1      19.166   0.155  31.515  1.00  0.00     0.089 A 
HETATM   24  C15 UNK     1      20.396  -0.843  29.246  1.00  0.00     0.001 A 
HETATM   25  C16 UNK     1      19.773   0.407  29.207  1.00  0.00     0.003 A 
HETATM   26  C14 UNK     1      19.152   0.913  30.346  1.00  0.00     0.038 A 
HETATM   27  O1  UNK     1      18.529   0.693  32.651  1.00  0.00    -0.274 OA
HETATM   28  C12 UNK     1      18.491   0.011  33.864  1.00  0.00     0.304 A 
HETATM   29  O5  UNK     1      17.936   0.488  34.848  1.00  0.00    -0.259 OA
ENDBRANCH   3  19
TORSDOF 4
ENDMDL
MODEL 8
REMARK VINA RESULT:      -9.1      1.664      2.089
REMARK  4 active torsions:
REMARK  status: ('A' for Active; 'I' for Inactive)
REMARK    1  A    between atoms: C1_10  and  S1_1 
REMARK    2  A    between atoms: N2_9  and  S1_1 
REMARK       I    between atoms: C11_20  and  N1_8 
REMARK    3  A    between atoms: C2_11  and  N1_8 
REMARK       I    between atoms: C17_26  and  N2_9 
REMARK    4  A    between atoms: C11_20  and  C4_13 
ROOT
HETATM    1  O4  UNK     1      18.050  -4.872  36.830  1.00  0.00    -0.267 OA
HETATM    2  N1  UNK     1      20.228  -4.835  35.934  1.00  0.00    -0.323 N 
HETATM    3  C11 UNK     1      19.026  -4.287  36.361  1.00  0.00     0.262 C 
HETATM    4  H6  UNK     1      20.949  -4.207  35.587  1.00  0.00     0.169 HD
ENDROOT
BRANCH   2   5
HETATM    5  C2  UNK     1      20.607  -6.199  35.942  1.00  0.00     0.035 A 
HETATM    6  C7  UNK     1      20.408  -6.963  34.804  1.00  0.00     0.031 A 
HETATM    7  C5  UNK     1      20.780  -8.308  34.813  1.00  0.00     0.027 A 
HETATM    8  C1  UNK     1      21.346  -8.868  35.958  1.00  0.00     0.080 A 
HETATM    9  C6  UNK     1      21.541  -8.083  37.095  1.00  0.00     0.027 A 
HETATM   10  C8  UNK     1      21.168  -6.739  37.088  1.00  0.00     0.031 A 
BRANCH   8  11
HETATM   11  S1  UNK     1      21.812 -10.550  35.968  1.00  0.00     0.265 S 
HETATM   12  O2  UNK     1      21.143 -11.219  37.076  1.00  0.00    -0.200 OA
HETATM   13  O3  UNK     1      21.647 -11.062  34.615  1.00  0.00    -0.200 OA
BRANCH  11  14
HETATM   14  N2  UNK     1      23.488 -10.446  36.316  1.00  0.00    -0.251 N 
HETATM   15  C17 UNK     1      24.464 -11.421  35.937  1.00  0.00     0.227 C 
HETATM   16  O6  UNK     1      24.213 -12.422  35.276  1.00  0.00    -0.273 OA
HETATM   17  C18 UNK     1      25.846 -11.103  36.431  1.00  0.00     0.118 C 
HETATM   18  H8  UNK     1      23.790  -9.651  36.894  1.00  0.00     0.181 HD
ENDBRANCH  11  14
ENDBRANCH   8  11
ENDBRANCH   2   5
BRANCH   3  19
HETATM   19  C4  UNK     1      18.993  -2.829  36.201  1.00  0.00     0.108 A 
HETATM   20  C10 UNK     1      18.117  -2.169  36.968  1.00  0.00     0.037 A 
HETATM   21  C3  UNK     1      18.011  -0.721  36.881  1.00  0.00    -0.001 A 
HETATM   22  C13 UNK     1      17.110   0.008  37.661  1.00  0.00     0.014 A 
HETATM   23  C9  UNK     1      18.834  -0.038  35.990  1.00  0.00     0.089 A 
HETATM   24  C15 UNK     1      17.047   1.400  37.540  1.00  0.00     0.001 A 
HETATM   25  C16 UNK     1      17.881   2.068  36.640  1.00  0.00     0.003 A 
HETATM   26  C14 UNK     1      18.782   1.348  35.858  1.00  0.00     0.038 A 
HETATM   27  O1  UNK     1      19.755  -0.738  35.187  1.00  0.00    -0.274 OA
HETATM   28  C12 UNK     1      19.879  -2.123  35.248  1.00  0.00     0.304 A 
HETATM   29  O5  UNK     1      20.684  -2.724  34.544  1.00  0.00    -0.259 OA
ENDBRANCH   3  19
TORSDOF 4
ENDMDL
MODEL 9
REMARK VINA RESULT:      -9.0      3.677      9.866
REMARK  4 active torsions:
REMARK  status: ('A' for Active; 'I' for Inactive)
REMARK    1  A    between atoms: C1_10  and  S1_1 
REMARK    2  A    between atoms: N2_9  and  S1_1 
REMARK       I    between atoms: C11_20  and  N1_8 
REMARK    3  A    between atoms: C2_11  and  N1_8 
REMARK       I    between atoms: C17_26  and  N2_9 
REMARK    4  A    between atoms: C11_20  and  C4_13 
ROOT
HETATM    1  O4  UNK     1      18.380  -5.494  36.435  1.00  0.00    -0.267 OA
HETATM    2  N1  UNK     1      20.172  -4.085  35.843  1.00  0.00    -0.323 N 
HETATM    3  C11 UNK     1      19.576  -5.268  36.257  1.00  0.00     0.262 C 
HETATM    4  H6  UNK     1      21.181  -4.068  35.723  1.00  0.00     0.169 HD
ENDROOT
BRANCH   2   5
HETATM    5  C2  UNK     1      19.533  -2.861  35.530  1.00  0.00     0.035 A 
HETATM    6  C7  UNK     1      19.741  -2.288  34.286  1.00  0.00     0.031 A 
HETATM    7  C5  UNK     1      19.112  -1.081  33.979  1.00  0.00     0.027 A 
HETATM    8  C1  UNK     1      18.286  -0.465  34.918  1.00  0.00     0.080 A 
HETATM    9  C6  UNK     1      18.086  -1.057  36.166  1.00  0.00     0.027 A 
HETATM   10  C8  UNK     1      18.715  -2.263  36.474  1.00  0.00     0.031 A 
BRANCH   8  11
HETATM   11  S1  UNK     1      17.499   1.045  34.532  1.00  0.00     0.265 S 
HETATM   12  O2  UNK     1      16.063   0.821  34.445  1.00  0.00    -0.200 OA
HETATM   13  O3  UNK     1      18.015   2.057  35.444  1.00  0.00    -0.200 OA
BRANCH  11  14
HETATM   14  N2  UNK     1      18.106   1.363  32.960  1.00  0.00    -0.251 N 
HETATM   15  C17 UNK     1      18.164   2.656  32.351  1.00  0.00     0.227 C 
HETATM   16  O6  UNK     1      17.827   3.693  32.911  1.00  0.00    -0.273 OA
HETATM   17  C18 UNK     1      18.682   2.629  30.942  1.00  0.00     0.118 C 
HETATM   18  H8  UNK     1      18.387   0.547  32.401  1.00  0.00     0.181 HD
ENDBRANCH  11  14
ENDBRANCH   8  11
ENDBRANCH   2   5
BRANCH   3  19
HETATM   19  C4  UNK     1      20.560  -6.333  36.489  1.00  0.00     0.108 A 
HETATM   20  C10 UNK     1      20.481  -7.397  35.682  1.00  0.00     0.037 A 
HETATM   21  C3  UNK     1      21.413  -8.503  35.835  1.00  0.00    -0.001 A 
HETATM   22  C13 UNK     1      21.368  -9.634  35.016  1.00  0.00     0.014 A 
HETATM   23  C9  UNK     1      22.383  -8.434  36.830  1.00  0.00     0.089 A 
HETATM   24  C15 UNK     1      22.287 -10.671  35.203  1.00  0.00     0.001 A 
HETATM   25  C16 UNK     1      23.253 -10.583  36.208  1.00  0.00     0.003 A 
HETATM   26  C14 UNK     1      23.306  -9.459  37.029  1.00  0.00     0.038 A 
HETATM   27  O1  UNK     1      22.462  -7.310  37.676  1.00  0.00    -0.274 OA
HETATM   28  C12 UNK     1      21.584  -6.237  37.553  1.00  0.00     0.304 A 
HETATM   29  O5  UNK     1      21.659  -5.263  38.295  1.00  0.00    -0.259 OA
ENDBRANCH   3  19
TORSDOF 4
ENDMDL
MODEL 10
REMARK VINA RESULT:      -8.9     20.971     22.397
REMARK  4 active torsions:
REMARK  status: ('A' for Active; 'I' for Inactive)
REMARK    1  A    between atoms: C1_10  and  S1_1 
REMARK    2  A    between atoms: N2_9  and  S1_1 
REMARK       I    between atoms: C11_20  and  N1_8 
REMARK    3  A    between atoms: C2_11  and  N1_8 
REMARK       I    between atoms: C17_26  and  N2_9 
REMARK    4  A    between atoms: C11_20  and  C4_13 
ROOT
HETATM    1  O4  UNK     1      20.439  -3.370  16.091  1.00  0.00    -0.267 OA
HETATM    2  N1  UNK     1      18.392  -3.051  14.970  1.00  0.00    -0.323 N 
HETATM    3  C11 UNK     1      19.456  -2.696  15.789  1.00  0.00     0.262 C 
HETATM    4  H6  UNK     1      17.661  -2.365  14.802  1.00  0.00     0.169 HD
ENDROOT
BRANCH   2   5
HETATM    5  C2  UNK     1      18.197  -4.279  14.294  1.00  0.00     0.035 A 
HETATM    6  C7  UNK     1      17.400  -5.252  14.873  1.00  0.00     0.031 A 
HETATM    7  C5  UNK     1      17.208  -6.462  14.206  1.00  0.00     0.027 A 
HETATM    8  C1  UNK     1      17.815  -6.682  12.970  1.00  0.00     0.080 A 
HETATM    9  C6  UNK     1      18.614  -5.690  12.399  1.00  0.00     0.027 A 
HETATM   10  C8  UNK     1      18.807  -4.480  13.066  1.00  0.00     0.031 A 
BRANCH   8  11
HETATM   11  S1  UNK     1      17.575  -8.196  12.135  1.00  0.00     0.265 S 
HETATM   12  O2  UNK     1      18.766  -8.498  11.351  1.00  0.00    -0.200 OA
HETATM   13  O3  UNK     1      17.092  -9.165  13.109  1.00  0.00    -0.200 OA
BRANCH  11  14
HETATM   14  N2  UNK     1      16.294  -7.806  11.066  1.00  0.00    -0.251 N 
HETATM   15  C17 UNK     1      16.235  -8.183   9.687  1.00  0.00     0.227 C 
HETATM   16  O6  UNK     1      17.081  -8.872   9.127  1.00  0.00    -0.273 OA
HETATM   17  C18 UNK     1      15.027  -7.649   8.973  1.00  0.00     0.118 C 
HETATM   18  H8  UNK     1      15.549  -7.203  11.439  1.00  0.00     0.181 HD
ENDBRANCH  11  14
ENDBRANCH   8  11
ENDBRANCH   2   5
BRANCH   3  19
HETATM   19  C4  UNK     1      19.317  -1.334  16.318  1.00  0.00     0.108 A 
HETATM   20  C10 UNK     1      19.195  -1.225  17.647  1.00  0.00     0.037 A 
HETATM   21  C3  UNK     1      19.052   0.084  18.265  1.00  0.00    -0.001 A 
HETATM   22  C13 UNK     1      18.922   0.244  19.646  1.00  0.00     0.014 A 
HETATM   23  C9  UNK     1      19.044   1.214  17.454  1.00  0.00     0.089 A 
HETATM   24  C15 UNK     1      18.788   1.524  20.192  1.00  0.00     0.001 A 
HETATM   25  C16 UNK     1      18.781   2.648  19.362  1.00  0.00     0.003 A 
HETATM   26  C14 UNK     1      18.911   2.497  17.983  1.00  0.00     0.038 A 
HETATM   27  O1  UNK     1      19.173   1.094  16.057  1.00  0.00    -0.274 OA
HETATM   28  C12 UNK     1      19.312  -0.145  15.436  1.00  0.00     0.304 A 
HETATM   29  O5  UNK     1      19.422  -0.240  14.219  1.00  0.00    -0.259 OA
ENDBRANCH   3  19
TORSDOF 4
ENDMDL
