MODEL 1
REMARK VINA RESULT:      -9.6      0.000      0.000
REMARK  2 active torsions:
REMARK  status: ('A' for Active; 'I' for Inactive)
REMARK    1  A    between atoms: C6_12  and  O1_2 
REMARK    2  A    between atoms: C8_14  and  O1_2 
ROOT
HETATM    1  O2  UNK     1      16.317   8.246  33.266  1.00  0.00    -0.275 OA
HETATM    2  O3  UNK     1      15.638  10.271  34.083  1.00  0.00    -0.260 OA
HETATM    3  C5  UNK     1      18.683   7.647  33.371  1.00  0.00     0.004 A 
HETATM    4  C7  UNK     1      17.368   7.339  33.020  1.00  0.00     0.092 A 
HETATM    5  C8  UNK     1      18.015   5.196  32.145  1.00  0.00     0.080 A 
HETATM    6  C9  UNK     1      18.957   8.943  34.007  1.00  0.00    -0.043 A 
HETATM    7  C11 UNK     1      17.021   6.131  32.413  1.00  0.00     0.075 A 
HETATM    8  C12 UNK     1      19.670   6.692  33.093  1.00  0.00     0.017 A 
HETATM    9  C13 UNK     1      19.338   5.476  32.485  1.00  0.00     0.038 A 
HETATM   10  C15 UNK     1      17.937   9.786  34.228  1.00  0.00     0.090 A 
HETATM   11  C16 UNK     1      20.361   9.303  34.395  1.00  0.00     0.049 C 
HETATM   12  C17 UNK     1      16.545   9.475  33.865  1.00  0.00     0.288 A 
ENDROOT
BRANCH   5  13
HETATM   13  O1  UNK     1      17.698   4.013  31.554  1.00  0.00    -0.291 OA
BRANCH  13  14
HETATM   14  C6  UNK     1      18.071   2.848  32.204  1.00  0.00     0.184 A 
HETATM   15  C1  UNK     1      18.600   1.758  31.519  1.00  0.00     0.060 A 
HETATM   16  C2  UNK     1      18.891   1.511  30.140  1.00  0.00    -0.032 A 
HETATM   17  C4  UNK     1      18.931   0.657  32.298  1.00  0.00     0.114 A 
HETATM   18  C10 UNK     1      18.651   2.491  29.050  1.00  0.00     0.050 C 
HETATM   19  C3  UNK     1      19.420   0.256  29.928  1.00  0.00    -0.012 A 
HETATM   20  C14 UNK     1      19.845  -0.370  28.656  1.00  0.00     0.057 C 
HETATM   21  S1  UNK     1      19.572  -0.631  31.383  1.00  0.00    -0.074 SA
HETATM   22  N1  UNK     1      18.785   0.558  33.634  1.00  0.00    -0.234 NA
HETATM   23  C18 UNK     1      18.265   1.679  34.165  1.00  0.00     0.237 A 
HETATM   24  N2  UNK     1      17.901   2.813  33.538  1.00  0.00    -0.217 NA
ENDBRANCH  13  14
ENDBRANCH   5  13
TORSDOF 2
ENDMDL
MODEL 2
REMARK VINA RESULT:      -9.1      8.125     12.407
REMARK  2 active torsions:
REMARK  status: ('A' for Active; 'I' for Inactive)
REMARK    1  A    between atoms: C6_12  and  O1_2 
REMARK    2  A    between atoms: C8_14  and  O1_2 
ROOT
HETATM    1  O2  UNK     1      21.880  -6.796  39.169  1.00  0.00    -0.275 OA
HETATM    2  O3  UNK     1      22.498  -8.689  40.294  1.00  0.00    -0.260 OA
HETATM    3  C5  UNK     1      20.024  -6.901  37.585  1.00  0.00     0.004 A 
HETATM    4  C7  UNK     1      21.025  -6.178  38.234  1.00  0.00     0.092 A 
HETATM    5  C8  UNK     1      20.425  -4.154  37.086  1.00  0.00     0.080 A 
HETATM    6  C9  UNK     1      19.872  -8.329  37.895  1.00  0.00    -0.043 A 
HETATM    7  C11 UNK     1      21.236  -4.819  37.999  1.00  0.00     0.075 A 
HETATM    8  C12 UNK     1      19.216  -6.214  36.669  1.00  0.00     0.017 A 
HETATM    9  C13 UNK     1      19.415  -4.850  36.422  1.00  0.00     0.038 A 
HETATM   10  C15 UNK     1      20.700  -8.891  38.788  1.00  0.00     0.090 A 
HETATM   11  C16 UNK     1      18.805  -9.134  37.212  1.00  0.00     0.049 C 
HETATM   12  C17 UNK     1      21.760  -8.142  39.482  1.00  0.00     0.288 A 
ENDROOT
BRANCH   5  13
HETATM   13  O1  UNK     1      20.613  -2.829  36.842  1.00  0.00    -0.291 OA
BRANCH  13  14
HETATM   14  C6  UNK     1      20.137  -2.320  35.646  1.00  0.00     0.184 A 
HETATM   15  C1  UNK     1      19.034  -1.472  35.592  1.00  0.00     0.060 A 
HETATM   16  C2  UNK     1      18.163  -0.929  36.589  1.00  0.00    -0.032 A 
HETATM   17  C4  UNK     1      18.667  -1.037  34.325  1.00  0.00     0.114 A 
HETATM   18  C10 UNK     1      18.289  -1.202  38.043  1.00  0.00     0.050 C 
HETATM   19  C3  UNK     1      17.187  -0.118  36.051  1.00  0.00    -0.012 A 
HETATM   20  C14 UNK     1      16.107   0.621  36.745  1.00  0.00     0.057 C 
HETATM   21  S1  UNK     1      17.311  -0.005  34.349  1.00  0.00    -0.074 SA
HETATM   22  N1  UNK     1      19.277  -1.362  33.168  1.00  0.00    -0.234 NA
HETATM   23  C18 UNK     1      20.322  -2.184  33.366  1.00  0.00     0.237 A 
HETATM   24  N2  UNK     1      20.789  -2.681  34.526  1.00  0.00    -0.217 NA
ENDBRANCH  13  14
ENDBRANCH   5  13
TORSDOF 2
ENDMDL
MODEL 3
REMARK VINA RESULT:      -9.0      7.470     10.246
REMARK  2 active torsions:
REMARK  status: ('A' for Active; 'I' for Inactive)
REMARK    1  A    between atoms: C6_12  and  O1_2 
REMARK    2  A    between atoms: C8_14  and  O1_2 
ROOT
HETATM    1  O2  UNK     1      19.109  -0.724  34.014  1.00  0.00    -0.275 OA
HETATM    2  O3  UNK     1      18.266   1.075  32.882  1.00  0.00    -0.260 OA
HETATM    3  C5  UNK     1      18.563  -1.011  36.378  1.00  0.00     0.004 A 
HETATM    4  C7  UNK     1      19.212  -1.445  35.221  1.00  0.00     0.092 A 
HETATM    5  C8  UNK     1      20.130  -3.356  36.354  1.00  0.00     0.080 A 
HETATM    6  C9  UNK     1      17.763   0.220  36.317  1.00  0.00    -0.043 A 
HETATM    7  C11 UNK     1      19.991  -2.603  35.193  1.00  0.00     0.075 A 
HETATM    8  C12 UNK     1      18.715  -1.783  37.537  1.00  0.00     0.017 A 
HETATM    9  C13 UNK     1      19.492  -2.947  37.524  1.00  0.00     0.038 A 
HETATM   10  C15 UNK     1      17.684   0.886  35.155  1.00  0.00     0.090 A 
HETATM   11  C16 UNK     1      17.054   0.714  37.544  1.00  0.00     0.049 C 
HETATM   12  C17 UNK     1      18.362   0.440  33.927  1.00  0.00     0.288 A 
ENDROOT
BRANCH   5  13
HETATM   13  O1  UNK     1      20.884  -4.488  36.347  1.00  0.00    -0.291 OA
BRANCH  13  14
HETATM   14  C6  UNK     1      20.223  -5.702  36.426  1.00  0.00     0.184 A 
HETATM   15  C1  UNK     1      20.583  -6.680  37.349  1.00  0.00     0.060 A 
HETATM   16  C2  UNK     1      21.590  -6.750  38.363  1.00  0.00    -0.032 A 
HETATM   17  C4  UNK     1      19.833  -7.849  37.316  1.00  0.00     0.114 A 
HETATM   18  C10 UNK     1      22.557  -5.661  38.653  1.00  0.00     0.050 C 
HETATM   19  C3  UNK     1      21.567  -7.947  39.047  1.00  0.00    -0.012 A 
HETATM   20  C14 UNK     1      22.439  -8.400  40.155  1.00  0.00     0.057 C 
HETATM   21  S1  UNK     1      20.337  -8.990  38.477  1.00  0.00    -0.074 SA
HETATM   22  N1  UNK     1      18.808  -8.109  36.481  1.00  0.00    -0.234 NA
HETATM   23  C18 UNK     1      18.569  -7.083  35.645  1.00  0.00     0.237 A 
HETATM   24  N2  UNK     1      19.209  -5.901  35.565  1.00  0.00    -0.217 NA
ENDBRANCH  13  14
ENDBRANCH   5  13
TORSDOF 2
ENDMDL
MODEL 4
REMARK VINA RESULT:      -9.0      3.069      7.801
REMARK  2 active torsions:
REMARK  status: ('A' for Active; 'I' for Inactive)
REMARK    1  A    between atoms: C6_12  and  O1_2 
REMARK    2  A    between atoms: C8_14  and  O1_2 
ROOT
HETATM    1  O2  UNK     1      18.810   0.342  32.972  1.00  0.00    -0.275 OA
HETATM    2  O3  UNK     1      19.482  -1.782  33.487  1.00  0.00    -0.260 OA
HETATM    3  C5  UNK     1      19.199   1.206  30.720  1.00  0.00     0.004 A 
HETATM    4  C7  UNK     1      18.712   1.374  32.016  1.00  0.00     0.092 A 
HETATM    5  C8  UNK     1      17.981   3.614  31.540  1.00  0.00     0.080 A 
HETATM    6  C9  UNK     1      19.822  -0.077  30.362  1.00  0.00    -0.043 A 
HETATM    7  C11 UNK     1      18.107   2.559  32.438  1.00  0.00     0.075 A 
HETATM    8  C12 UNK     1      19.064   2.279  29.830  1.00  0.00     0.017 A 
HETATM    9  C13 UNK     1      18.458   3.474  30.237  1.00  0.00     0.038 A 
HETATM   10  C15 UNK     1      19.902  -1.040  31.292  1.00  0.00     0.090 A 
HETATM   11  C16 UNK     1      20.356  -0.289  28.976  1.00  0.00     0.049 C 
HETATM   12  C17 UNK     1      19.392  -0.878  32.663  1.00  0.00     0.288 A 
ENDROOT
BRANCH   5  13
HETATM   13  O1  UNK     1      17.394   4.777  31.930  1.00  0.00    -0.291 OA
BRANCH  13  14
HETATM   14  C6  UNK     1      18.204   5.751  32.488  1.00  0.00     0.184 A 
HETATM   15  C1  UNK     1      17.715   7.008  32.835  1.00  0.00     0.060 A 
HETATM   16  C2  UNK     1      16.424   7.618  32.748  1.00  0.00    -0.032 A 
HETATM   17  C4  UNK     1      18.640   7.885  33.387  1.00  0.00     0.114 A 
HETATM   18  C10 UNK     1      15.219   6.942  32.203  1.00  0.00     0.050 C 
HETATM   19  C3  UNK     1      16.418   8.911  33.226  1.00  0.00    -0.012 A 
HETATM   20  C14 UNK     1      15.289   9.866  33.305  1.00  0.00     0.057 C 
HETATM   21  S1  UNK     1      17.960   9.397  33.783  1.00  0.00    -0.074 SA
HETATM   22  N1  UNK     1      19.944   7.627  33.608  1.00  0.00    -0.234 NA
HETATM   23  C18 UNK     1      20.280   6.382  33.228  1.00  0.00     0.237 A 
HETATM   24  N2  UNK     1      19.496   5.431  32.685  1.00  0.00    -0.217 NA
ENDBRANCH  13  14
ENDBRANCH   5  13
TORSDOF 2
ENDMDL
MODEL 5
REMARK VINA RESULT:      -8.8      3.410      7.585
REMARK  2 active torsions:
REMARK  status: ('A' for Active; 'I' for Inactive)
REMARK    1  A    between atoms: C6_12  and  O1_2 
REMARK    2  A    between atoms: C8_14  and  O1_2 
ROOT
HETATM    1  O2  UNK     1      18.655   0.407  31.913  1.00  0.00    -0.275 OA
HETATM    2  O3  UNK     1      18.882  -1.867  31.993  1.00  0.00    -0.260 OA
HETATM    3  C5  UNK     1      18.343   1.650  33.993  1.00  0.00     0.004 A 
HETATM    4  C7  UNK     1      18.469   1.622  32.603  1.00  0.00     0.092 A 
HETATM    5  C8  UNK     1      18.238   4.009  32.451  1.00  0.00     0.080 A 
HETATM    6  C9  UNK     1      18.409   0.382  34.732  1.00  0.00    -0.043 A 
HETATM    7  C11 UNK     1      18.420   2.780  31.826  1.00  0.00     0.075 A 
HETATM    8  C12 UNK     1      18.161   2.898  34.604  1.00  0.00     0.017 A 
HETATM    9  C13 UNK     1      18.110   4.068  33.838  1.00  0.00     0.038 A 
HETATM   10  C15 UNK     1      18.586  -0.759  34.049  1.00  0.00     0.090 A 
HETATM   11  C16 UNK     1      18.276   0.379  36.227  1.00  0.00     0.049 C 
HETATM   12  C17 UNK     1      18.721  -0.805  32.584  1.00  0.00     0.288 A 
ENDROOT
BRANCH   5  13
HETATM   13  O1  UNK     1      18.187   5.150  31.712  1.00  0.00    -0.291 OA
BRANCH  13  14
HETATM   14  C6  UNK     1      17.397   6.186  32.180  1.00  0.00     0.184 A 
HETATM   15  C1  UNK     1      17.932   7.261  32.885  1.00  0.00     0.060 A 
HETATM   16  C2  UNK     1      19.259   7.604  33.295  1.00  0.00    -0.032 A 
HETATM   17  C4  UNK     1      17.022   8.229  33.294  1.00  0.00     0.114 A 
HETATM   18  C10 UNK     1      20.458   6.775  33.013  1.00  0.00     0.050 C 
HETATM   19  C3  UNK     1      19.305   8.796  33.988  1.00  0.00    -0.012 A 
HETATM   20  C14 UNK     1      20.478   9.484  34.573  1.00  0.00     0.057 C 
HETATM   21  S1  UNK     1      17.758   9.508  34.147  1.00  0.00    -0.074 SA
HETATM   22  N1  UNK     1      15.693   8.213  33.070  1.00  0.00    -0.234 NA
HETATM   23  C18 UNK     1      15.314   7.121  32.381  1.00  0.00     0.237 A 
HETATM   24  N2  UNK     1      16.079   6.112  31.924  1.00  0.00    -0.217 NA
ENDBRANCH  13  14
ENDBRANCH   5  13
TORSDOF 2
ENDMDL
MODEL 6
REMARK VINA RESULT:      -8.8      3.087      7.875
REMARK  2 active torsions:
REMARK  status: ('A' for Active; 'I' for Inactive)
REMARK    1  A    between atoms: C6_12  and  O1_2 
REMARK    2  A    between atoms: C8_14  and  O1_2 
ROOT
HETATM    1  O2  UNK     1      19.592   1.177  29.292  1.00  0.00    -0.275 OA
HETATM    2  O3  UNK     1      20.556  -0.585  28.200  1.00  0.00    -0.260 OA
HETATM    3  C5  UNK     1      18.930   0.917  31.629  1.00  0.00     0.004 A 
HETATM    4  C7  UNK     1      19.031   1.697  30.476  1.00  0.00     0.092 A 
HETATM    5  C8  UNK     1      18.024   3.587  31.567  1.00  0.00     0.080 A 
HETATM    6  C9  UNK     1      19.424  -0.466  31.589  1.00  0.00    -0.043 A 
HETATM    7  C11 UNK     1      18.587   3.019  30.429  1.00  0.00     0.075 A 
HETATM    8  C12 UNK     1      18.360   1.507  32.765  1.00  0.00     0.017 A 
HETATM    9  C13 UNK     1      17.911   2.832  32.734  1.00  0.00     0.038 A 
HETATM   10  C15 UNK     1      19.953  -0.934  30.449  1.00  0.00     0.090 A 
HETATM   11  C16 UNK     1      19.330  -1.330  32.812  1.00  0.00     0.049 C 
HETATM   12  C17 UNK     1      20.066  -0.124  29.225  1.00  0.00     0.288 A 
ENDROOT
BRANCH   5  13
HETATM   13  O1  UNK     1      17.585   4.874  31.542  1.00  0.00    -0.291 OA
BRANCH  13  14
HETATM   14  C6  UNK     1      18.338   5.824  32.211  1.00  0.00     0.184 A 
HETATM   15  C1  UNK     1      17.786   7.021  32.659  1.00  0.00     0.060 A 
HETATM   16  C2  UNK     1      16.472   7.584  32.592  1.00  0.00    -0.032 A 
HETATM   17  C4  UNK     1      18.658   7.880  33.316  1.00  0.00     0.114 A 
HETATM   18  C10 UNK     1      15.312   6.913  31.953  1.00  0.00     0.050 C 
HETATM   19  C3  UNK     1      16.398   8.824  33.188  1.00  0.00    -0.012 A 
HETATM   20  C14 UNK     1      15.228   9.721  33.323  1.00  0.00     0.057 C 
HETATM   21  S1  UNK     1      17.904   9.319  33.832  1.00  0.00    -0.074 SA
HETATM   22  N1  UNK     1      19.967   7.656  33.550  1.00  0.00    -0.234 NA
HETATM   23  C18 UNK     1      20.365   6.467  33.065  1.00  0.00     0.237 A 
HETATM   24  N2  UNK     1      19.637   5.540  32.414  1.00  0.00    -0.217 NA
ENDBRANCH  13  14
ENDBRANCH   5  13
TORSDOF 2
ENDMDL
MODEL 7
REMARK VINA RESULT:      -8.7      3.411      7.213
REMARK  2 active torsions:
REMARK  status: ('A' for Active; 'I' for Inactive)
REMARK    1  A    between atoms: C6_12  and  O1_2 
REMARK    2  A    between atoms: C8_14  and  O1_2 
ROOT
HETATM    1  O2  UNK     1      18.265   2.769  35.721  1.00  0.00    -0.275 OA
HETATM    2  O3  UNK     1      18.265   1.612  37.694  1.00  0.00    -0.260 OA
HETATM    3  C5  UNK     1      18.294   1.535  33.613  1.00  0.00     0.004 A 
HETATM    4  C7  UNK     1      18.275   2.742  34.311  1.00  0.00     0.092 A 
HETATM    5  C8  UNK     1      18.274   4.017  32.274  1.00  0.00     0.080 A 
HETATM    6  C9  UNK     1      18.303   0.279  34.377  1.00  0.00    -0.043 A 
HETATM    7  C11 UNK     1      18.265   3.979  33.664  1.00  0.00     0.075 A 
HETATM    8  C12 UNK     1      18.303   1.594  32.213  1.00  0.00     0.017 A 
HETATM    9  C13 UNK     1      18.293   2.826  31.549  1.00  0.00     0.038 A 
HETATM   10  C15 UNK     1      18.294   0.335  35.717  1.00  0.00     0.090 A 
HETATM   11  C16 UNK     1      18.325  -1.036  33.654  1.00  0.00     0.049 C 
HETATM   12  C17 UNK     1      18.273   1.601  36.468  1.00  0.00     0.288 A 
ENDROOT
BRANCH   5  13
HETATM   13  O1  UNK     1      18.264   5.211  31.623  1.00  0.00    -0.291 OA
BRANCH  13  14
HETATM   14  C6  UNK     1      17.451   6.212  32.127  1.00  0.00     0.184 A 
HETATM   15  C1  UNK     1      17.962   7.276  32.866  1.00  0.00     0.060 A 
HETATM   16  C2  UNK     1      19.282   7.636  33.285  1.00  0.00    -0.032 A 
HETATM   17  C4  UNK     1      17.032   8.208  33.308  1.00  0.00     0.114 A 
HETATM   18  C10 UNK     1      20.500   6.845  32.974  1.00  0.00     0.050 C 
HETATM   19  C3  UNK     1      19.302   8.804  34.017  1.00  0.00    -0.012 A 
HETATM   20  C14 UNK     1      20.460   9.500  34.623  1.00  0.00     0.057 C 
HETATM   21  S1  UNK     1      17.739   9.474  34.202  1.00  0.00    -0.074 SA
HETATM   22  N1  UNK     1      15.703   8.168  33.086  1.00  0.00    -0.234 NA
HETATM   23  C18 UNK     1      15.348   7.091  32.362  1.00  0.00     0.237 A 
HETATM   24  N2  UNK     1      16.134   6.116  31.870  1.00  0.00    -0.217 NA
ENDBRANCH  13  14
ENDBRANCH   5  13
TORSDOF 2
ENDMDL
MODEL 8
REMARK VINA RESULT:      -8.7     22.583     24.726
REMARK  2 active torsions:
REMARK  status: ('A' for Active; 'I' for Inactive)
REMARK    1  A    between atoms: C6_12  and  O1_2 
REMARK    2  A    between atoms: C8_14  and  O1_2 
ROOT
HETATM    1  O2  UNK     1       9.494   5.707   9.433  1.00  0.00    -0.275 OA
HETATM    2  O3  UNK     1       7.256   5.645   8.965  1.00  0.00    -0.260 OA
HETATM    3  C5  UNK     1      11.085   6.081   7.617  1.00  0.00     0.004 A 
HETATM    4  C7  UNK     1      10.816   5.858   8.968  1.00  0.00     0.092 A 
HETATM    5  C8  UNK     1      13.153   5.913   9.526  1.00  0.00     0.080 A 
HETATM    6  C9  UNK     1       9.956   6.158   6.678  1.00  0.00    -0.043 A 
HETATM    7  C11 UNK     1      11.829   5.772   9.925  1.00  0.00     0.075 A 
HETATM    8  C12 UNK     1      12.425   6.221   7.235  1.00  0.00     0.017 A 
HETATM    9  C13 UNK     1      13.452   6.138   8.183  1.00  0.00     0.038 A 
HETATM   10  C15 UNK     1       8.709   6.010   7.149  1.00  0.00     0.090 A 
HETATM   11  C16 UNK     1      10.212   6.397   5.219  1.00  0.00     0.049 C 
HETATM   12  C17 UNK     1       8.410   5.775   8.571  1.00  0.00     0.288 A 
ENDROOT
BRANCH   5  13
HETATM   13  O1  UNK     1      14.155   5.832  10.443  1.00  0.00    -0.291 OA
BRANCH  13  14
HETATM   14  C6  UNK     1      15.379   6.387  10.110  1.00  0.00     0.184 A 
HETATM   15  C1  UNK     1      15.648   7.741  10.287  1.00  0.00     0.060 A 
HETATM   16  C2  UNK     1      14.879   8.838  10.789  1.00  0.00    -0.032 A 
HETATM   17  C4  UNK     1      16.918   8.160   9.911  1.00  0.00     0.114 A 
HETATM   18  C10 UNK     1      13.480   8.722  11.274  1.00  0.00     0.050 C 
HETATM   19  C3  UNK     1      15.581  10.025  10.775  1.00  0.00    -0.012 A 
HETATM   20  C14 UNK     1      15.139  11.370  11.208  1.00  0.00     0.057 C 
HETATM   21  S1  UNK     1      17.165   9.828  10.160  1.00  0.00    -0.074 SA
HETATM   22  N1  UNK     1      17.891   7.380   9.399  1.00  0.00    -0.234 NA
HETATM   23  C18 UNK     1      17.497   6.099   9.282  1.00  0.00     0.237 A 
HETATM   24  N2  UNK     1      16.308   5.556   9.605  1.00  0.00    -0.217 NA
ENDBRANCH  13  14
ENDBRANCH   5  13
TORSDOF 2
ENDMDL
MODEL 9
REMARK VINA RESULT:      -8.6     22.626     25.084
REMARK  2 active torsions:
REMARK  status: ('A' for Active; 'I' for Inactive)
REMARK    1  A    between atoms: C6_12  and  O1_2 
REMARK    2  A    between atoms: C8_14  and  O1_2 
ROOT
HETATM    1  O2  UNK     1      11.229   5.373  10.081  1.00  0.00    -0.275 OA
HETATM    2  O3  UNK     1      13.509   5.284  10.231  1.00  0.00    -0.260 OA
HETATM    3  C5  UNK     1      10.190   5.869   7.926  1.00  0.00     0.004 A 
HETATM    4  C7  UNK     1      10.082   5.575   9.286  1.00  0.00     0.092 A 
HETATM    5  C8  UNK     1       7.682   5.653   9.196  1.00  0.00     0.080 A 
HETATM    6  C9  UNK     1      11.531   5.965   7.331  1.00  0.00    -0.043 A 
HETATM    7  C11 UNK     1       8.849   5.464   9.929  1.00  0.00     0.075 A 
HETATM    8  C12 UNK     1       9.004   6.055   7.205  1.00  0.00     0.017 A 
HETATM    9  C13 UNK     1       7.759   5.947   7.836  1.00  0.00     0.038 A 
HETATM   10  C15 UNK     1      12.603   5.769   8.112  1.00  0.00     0.090 A 
HETATM   11  C16 UNK     1      11.681   6.281   5.872  1.00  0.00     0.049 C 
HETATM   12  C17 UNK     1      12.505   5.458   9.548  1.00  0.00     0.288 A 
ENDROOT
BRANCH   5  13
HETATM   13  O1  UNK     1       6.469   5.549   9.804  1.00  0.00    -0.291 OA
BRANCH  13  14
HETATM   14  C6  UNK     1       6.134   4.331  10.370  1.00  0.00     0.184 A 
HETATM   15  C1  UNK     1       5.856   4.198  11.727  1.00  0.00     0.060 A 
HETATM   16  C2  UNK     1       5.828   5.123  12.819  1.00  0.00    -0.032 A 
HETATM   17  C4  UNK     1       5.534   2.917  12.157  1.00  0.00     0.114 A 
HETATM   18  C10 UNK     1       6.127   6.572  12.690  1.00  0.00     0.050 C 
HETATM   19  C3  UNK     1       5.492   4.520  14.012  1.00  0.00    -0.012 A 
HETATM   20  C14 UNK     1       5.358   5.130  15.355  1.00  0.00     0.057 C 
HETATM   21  S1  UNK     1       5.208   2.844  13.828  1.00  0.00    -0.074 SA
HETATM   22  N1  UNK     1       5.469   1.815  11.384  1.00  0.00    -0.234 NA
HETATM   23  C18 UNK     1       5.759   2.086  10.099  1.00  0.00     0.237 A 
HETATM   24  N2  UNK     1       6.086   3.269   9.545  1.00  0.00    -0.217 NA
ENDBRANCH  13  14
ENDBRANCH   5  13
TORSDOF 2
ENDMDL
MODEL 10
REMARK VINA RESULT:      -8.5      7.517     11.934
REMARK  2 active torsions:
REMARK  status: ('A' for Active; 'I' for Inactive)
REMARK    1  A    between atoms: C6_12  and  O1_2 
REMARK    2  A    between atoms: C8_14  and  O1_2 
ROOT
HETATM    1  O2  UNK     1      18.309  -6.722  35.868  1.00  0.00    -0.275 OA
HETATM    2  O3  UNK     1      17.161  -8.655  35.446  1.00  0.00    -0.260 OA
HETATM    3  C5  UNK     1      20.150  -6.752  37.473  1.00  0.00     0.004 A 
HETATM    4  C7  UNK     1      19.341  -6.065  36.568  1.00  0.00     0.092 A 
HETATM    5  C8  UNK     1      20.507  -4.001  36.965  1.00  0.00     0.080 A 
HETATM    6  C9  UNK     1      19.907  -8.185  37.687  1.00  0.00    -0.043 A 
HETATM    7  C11 UNK     1      19.505  -4.703  36.305  1.00  0.00     0.075 A 
HETATM    8  C12 UNK     1      21.154  -6.027  38.128  1.00  0.00     0.017 A 
HETATM    9  C13 UNK     1      21.331  -4.661  37.875  1.00  0.00     0.038 A 
HETATM   10  C15 UNK     1      18.918  -8.784  37.008  1.00  0.00     0.090 A 
HETATM   11  C16 UNK     1      20.759  -8.952  38.655  1.00  0.00     0.049 C 
HETATM   12  C17 UNK     1      18.057  -8.073  36.049  1.00  0.00     0.288 A 
ENDROOT
BRANCH   5  13
HETATM   13  O1  UNK     1      20.683  -2.674  36.724  1.00  0.00    -0.291 OA
BRANCH  13  14
HETATM   14  C6  UNK     1      20.161  -2.158  35.550  1.00  0.00     0.184 A 
HETATM   15  C1  UNK     1      19.035  -1.339  35.539  1.00  0.00     0.060 A 
HETATM   16  C2  UNK     1      18.177  -0.837  36.568  1.00  0.00    -0.032 A 
HETATM   17  C4  UNK     1      18.623  -0.893  34.290  1.00  0.00     0.114 A 
HETATM   18  C10 UNK     1      18.348  -1.131  38.013  1.00  0.00     0.050 C 
HETATM   19  C3  UNK     1      17.165  -0.044  36.069  1.00  0.00    -0.012 A 
HETATM   20  C14 UNK     1      16.085   0.653  36.804  1.00  0.00     0.057 C 
HETATM   21  S1  UNK     1      17.242   0.101  34.367  1.00  0.00    -0.074 SA
HETATM   22  N1  UNK     1      19.211  -1.181  33.112  1.00  0.00    -0.234 NA
HETATM   23  C18 UNK     1      20.283  -1.978  33.268  1.00  0.00     0.237 A 
HETATM   24  N2  UNK     1      20.794  -2.482  34.408  1.00  0.00    -0.217 NA
ENDBRANCH  13  14
ENDBRANCH   5  13
TORSDOF 2
ENDMDL
