MODEL 1
REMARK VINA RESULT:      -9.1      0.000      0.000
REMARK  7 active torsions:
REMARK  status: ('A' for Active; 'I' for Inactive)
REMARK    1  A    between atoms: C19_26  and  O3_4 
REMARK    2  A    between atoms: C18_25  and  N1_6 
REMARK    3  A    between atoms: C4_11  and  N1_6 
REMARK    4  A    between atoms: C10_17  and  N2_7 
REMARK    5  A    between atoms: C18_25  and  N2_7 
REMARK    6  A    between atoms: C17_24  and  C9_16 
REMARK    7  A    between atoms: C17_24  and  C19_26 
ROOT
HETATM    1  S1  UNK     1      17.898  -1.453  37.591  1.00  0.00    -0.041 SA
HETATM    2  C18 UNK     1      18.820  -2.445  36.588  1.00  0.00     0.176 C 
ENDROOT
BRANCH   2   3
HETATM    3  N1  UNK     1      18.697  -3.831  36.464  1.00  0.00    -0.333 N 
HETATM    4  H5  UNK     1      17.741  -4.156  36.559  1.00  0.00     0.168 HD
BRANCH   3   5
HETATM    5  C4  UNK     1      19.599  -4.868  36.707  1.00  0.00     0.036 A 
HETATM    6  C5  UNK     1      19.694  -5.935  35.820  1.00  0.00     0.067 A 
HETATM    7  C2  UNK     1      20.603  -6.961  36.082  1.00  0.00     0.092 A 
HETATM    8  C1  UNK     1      21.427  -6.956  37.208  1.00  0.00     0.004 A 
HETATM    9  O1  UNK     1      20.653  -8.013  35.147  1.00  0.00    -0.275 OA
HETATM   10  C3  UNK     1      22.356  -8.078  37.405  1.00  0.00    -0.043 A 
HETATM   11  C6  UNK     1      21.317  -5.872  38.090  1.00  0.00     0.017 A 
HETATM   12  C11 UNK     1      23.255  -8.103  38.606  1.00  0.00     0.049 C 
HETATM   13  C8  UNK     1      22.382  -9.066  36.499  1.00  0.00     0.090 A 
HETATM   14  C12 UNK     1      21.518  -9.085  35.306  1.00  0.00     0.288 A 
HETATM   15  O2  UNK     1      21.570 -10.006  34.499  1.00  0.00    -0.260 OA
HETATM   16  C7  UNK     1      20.410  -4.837  37.841  1.00  0.00     0.030 A 
ENDBRANCH   3   5
ENDBRANCH   2   3
BRANCH   2  17
HETATM   17  N2  UNK     1      19.700  -1.809  35.723  1.00  0.00    -0.333 N 
HETATM   18  H15 UNK     1      20.246  -1.072  36.161  1.00  0.00     0.168 HD
BRANCH  17  19
HETATM   19  C10 UNK     1      19.820  -1.857  34.312  1.00  0.00     0.034 A 
HETATM   20  C15 UNK     1      18.886  -1.199  33.532  1.00  0.00     0.030 A 
HETATM   21  C13 UNK     1      19.005  -1.246  32.143  1.00  0.00     0.010 A 
HETATM   22  C9  UNK     1      20.057  -1.949  31.556  1.00  0.00    -0.048 A 
HETATM   23  C14 UNK     1      20.990  -2.606  32.358  1.00  0.00     0.010 A 
HETATM   24  C16 UNK     1      20.871  -2.559  33.747  1.00  0.00     0.030 A 
BRANCH  22  25
HETATM   25  C17 UNK     1      20.184  -1.998  30.071  1.00  0.00     0.148 C 
BRANCH  25  26
HETATM   26  C19 UNK     1      20.324  -0.631  29.430  1.00  0.00     0.143 C 
HETATM   27  O4  UNK     1      19.895  -0.324  28.326  1.00  0.00    -0.650 OA
BRANCH  26  28
HETATM   28  O3  UNK     1      20.995   0.237  30.232  1.00  0.00    -0.776 OA
HETATM   29  H16 UNK     1      20.567   1.120  30.251  1.00  0.00     0.167 HD
ENDBRANCH  26  28
ENDBRANCH  25  26
ENDBRANCH  22  25
ENDBRANCH  17  19
ENDBRANCH   2  17
TORSDOF 7
ENDMDL
MODEL 2
REMARK VINA RESULT:      -9.0      5.929      8.502
REMARK  7 active torsions:
REMARK  status: ('A' for Active; 'I' for Inactive)
REMARK    1  A    between atoms: C19_26  and  O3_4 
REMARK    2  A    between atoms: C18_25  and  N1_6 
REMARK    3  A    between atoms: C4_11  and  N1_6 
REMARK    4  A    between atoms: C10_17  and  N2_7 
REMARK    5  A    between atoms: C18_25  and  N2_7 
REMARK    6  A    between atoms: C17_24  and  C9_16 
REMARK    7  A    between atoms: C17_24  and  C19_26 
ROOT
HETATM    1  S1  UNK     1      17.876   1.771  28.597  1.00  0.00    -0.041 SA
HETATM    2  C18 UNK     1      18.736   1.510  30.024  1.00  0.00     0.176 C 
ENDROOT
BRANCH   2   3
HETATM    3  N1  UNK     1      18.932   0.278  30.652  1.00  0.00    -0.333 N 
HETATM    4  H5  UNK     1      18.736  -0.513  30.047  1.00  0.00     0.168 HD
BRANCH   3   5
HETATM    5  C4  UNK     1      18.875  -0.099  31.994  1.00  0.00     0.036 A 
HETATM    6  C5  UNK     1      18.285   0.740  32.933  1.00  0.00     0.067 A 
HETATM    7  C2  UNK     1      18.239   0.342  34.270  1.00  0.00     0.092 A 
HETATM    8  C1  UNK     1      18.764  -0.875  34.703  1.00  0.00     0.004 A 
HETATM    9  O1  UNK     1      17.629   1.236  35.173  1.00  0.00    -0.275 OA
HETATM   10  C3  UNK     1      18.671  -1.214  36.131  1.00  0.00    -0.043 A 
HETATM   11  C6  UNK     1      19.354  -1.708  33.743  1.00  0.00     0.017 A 
HETATM   12  C11 UNK     1      19.227  -2.516  36.629  1.00  0.00     0.049 C 
HETATM   13  C8  UNK     1      18.086  -0.345  36.967  1.00  0.00     0.090 A 
HETATM   14  C12 UNK     1      17.527   0.944  36.524  1.00  0.00     0.288 A 
HETATM   15  O2  UNK     1      16.998   1.714  37.318  1.00  0.00    -0.260 OA
HETATM   16  C7  UNK     1      19.408  -1.323  32.399  1.00  0.00     0.030 A 
ENDBRANCH   3   5
ENDBRANCH   2   3
BRANCH   2  17
HETATM   17  N2  UNK     1      19.406   2.603  30.555  1.00  0.00    -0.333 N 
HETATM   18  H15 UNK     1      20.372   2.408  30.809  1.00  0.00     0.168 HD
BRANCH  17  19
HETATM   19  C10 UNK     1      18.934   3.863  30.998  1.00  0.00     0.034 A 
HETATM   20  C15 UNK     1      18.165   3.931  32.146  1.00  0.00     0.030 A 
HETATM   21  C13 UNK     1      17.701   5.171  32.583  1.00  0.00     0.010 A 
HETATM   22  C9  UNK     1      18.015   6.325  31.865  1.00  0.00    -0.048 A 
HETATM   23  C14 UNK     1      18.791   6.239  30.710  1.00  0.00     0.010 A 
HETATM   24  C16 UNK     1      19.255   4.998  30.273  1.00  0.00     0.030 A 
BRANCH  22  25
HETATM   25  C17 UNK     1      17.519   7.652  32.333  1.00  0.00     0.148 C 
BRANCH  25  26
HETATM   26  C19 UNK     1      16.062   7.906  31.996  1.00  0.00     0.143 C 
HETATM   27  O4  UNK     1      15.113   7.612  32.709  1.00  0.00    -0.650 OA
BRANCH  26  28
HETATM   28  O3  UNK     1      15.920   8.509  30.786  1.00  0.00    -0.776 OA
HETATM   29  H16 UNK     1      15.016   8.868  30.661  1.00  0.00     0.167 HD
ENDBRANCH  26  28
ENDBRANCH  25  26
ENDBRANCH  22  25
ENDBRANCH  17  19
ENDBRANCH   2  17
TORSDOF 7
ENDMDL
MODEL 3
REMARK VINA RESULT:      -9.0      5.683      7.809
REMARK  7 active torsions:
REMARK  status: ('A' for Active; 'I' for Inactive)
REMARK    1  A    between atoms: C19_26  and  O3_4 
REMARK    2  A    between atoms: C18_25  and  N1_6 
REMARK    3  A    between atoms: C4_11  and  N1_6 
REMARK    4  A    between atoms: C10_17  and  N2_7 
REMARK    5  A    between atoms: C18_25  and  N2_7 
REMARK    6  A    between atoms: C17_24  and  C9_16 
REMARK    7  A    between atoms: C17_24  and  C19_26 
ROOT
HETATM    1  S1  UNK     1      17.869   1.705  28.738  1.00  0.00    -0.041 SA
HETATM    2  C18 UNK     1      18.767   1.497  30.149  1.00  0.00     0.176 C 
ENDROOT
BRANCH   2   3
HETATM    3  N1  UNK     1      18.994   0.286  30.808  1.00  0.00    -0.333 N 
HETATM    4  H5  UNK     1      18.853  -0.523  30.213  1.00  0.00     0.168 HD
BRANCH   3   5
HETATM    5  C4  UNK     1      18.906  -0.068  32.155  1.00  0.00     0.036 A 
HETATM    6  C5  UNK     1      19.516  -1.230  32.614  1.00  0.00     0.067 A 
HETATM    7  C2  UNK     1      19.417  -1.564  33.966  1.00  0.00     0.092 A 
HETATM    8  C1  UNK     1      18.725  -0.770  34.880  1.00  0.00     0.004 A 
HETATM    9  O1  UNK     1      20.055  -2.754  34.369  1.00  0.00    -0.275 OA
HETATM   10  C3  UNK     1      18.672  -1.198  36.285  1.00  0.00    -0.043 A 
HETATM   11  C6  UNK     1      18.118   0.398  34.399  1.00  0.00     0.017 A 
HETATM   12  C11 UNK     1      17.935  -0.365  37.294  1.00  0.00     0.049 C 
HETATM   13  C8  UNK     1      19.289  -2.334  36.641  1.00  0.00     0.090 A 
HETATM   14  C12 UNK     1      20.022  -3.183  35.687  1.00  0.00     0.288 A 
HETATM   15  O2  UNK     1      20.574  -4.216  36.050  1.00  0.00    -0.260 OA
HETATM   16  C7  UNK     1      18.209   0.746  33.047  1.00  0.00     0.030 A 
ENDBRANCH   3   5
ENDBRANCH   2   3
BRANCH   2  17
HETATM   17  N2  UNK     1      19.437   2.613  30.630  1.00  0.00    -0.333 N 
HETATM   18  H15 UNK     1      20.412   2.438  30.863  1.00  0.00     0.168 HD
BRANCH  17  19
HETATM   19  C10 UNK     1      18.961   3.879  31.051  1.00  0.00     0.034 A 
HETATM   20  C15 UNK     1      18.202   3.966  32.203  1.00  0.00     0.030 A 
HETATM   21  C13 UNK     1      17.734   5.213  32.618  1.00  0.00     0.010 A 
HETATM   22  C9  UNK     1      18.034   6.354  31.874  1.00  0.00    -0.048 A 
HETATM   23  C14 UNK     1      18.801   6.248  30.714  1.00  0.00     0.010 A 
HETATM   24  C16 UNK     1      19.269   5.001  30.299  1.00  0.00     0.030 A 
BRANCH  22  25
HETATM   25  C17 UNK     1      17.533   7.687  32.317  1.00  0.00     0.148 C 
BRANCH  25  26
HETATM   26  C19 UNK     1      16.070   7.921  31.995  1.00  0.00     0.143 C 
HETATM   27  O4  UNK     1      15.132   7.611  32.717  1.00  0.00    -0.650 OA
BRANCH  26  28
HETATM   28  O3  UNK     1      15.908   8.527  30.790  1.00  0.00    -0.776 OA
HETATM   29  H16 UNK     1      16.645   8.320  30.176  1.00  0.00     0.167 HD
ENDBRANCH  26  28
ENDBRANCH  25  26
ENDBRANCH  22  25
ENDBRANCH  17  19
ENDBRANCH   2  17
TORSDOF 7
ENDMDL
MODEL 4
REMARK VINA RESULT:      -8.8      6.871     11.438
REMARK  7 active torsions:
REMARK  status: ('A' for Active; 'I' for Inactive)
REMARK    1  A    between atoms: C19_26  and  O3_4 
REMARK    2  A    between atoms: C18_25  and  N1_6 
REMARK    3  A    between atoms: C4_11  and  N1_6 
REMARK    4  A    between atoms: C10_17  and  N2_7 
REMARK    5  A    between atoms: C18_25  and  N2_7 
REMARK    6  A    between atoms: C17_24  and  C9_16 
REMARK    7  A    between atoms: C17_24  and  C19_26 
ROOT
HETATM    1  S1  UNK     1      17.849   1.703  28.783  1.00  0.00    -0.041 SA
HETATM    2  C18 UNK     1      18.929   2.494  29.807  1.00  0.00     0.176 C 
ENDROOT
BRANCH   2   3
HETATM    3  N1  UNK     1      19.196   3.866  29.819  1.00  0.00    -0.333 N 
HETATM    4  H5  UNK     1      19.894   4.141  29.137  1.00  0.00     0.168 HD
BRANCH   3   5
HETATM    5  C4  UNK     1      19.082   4.824  30.827  1.00  0.00     0.036 A 
HETATM    6  C5  UNK     1      17.844   5.092  31.402  1.00  0.00     0.067 A 
HETATM    7  C2  UNK     1      17.755   6.054  32.409  1.00  0.00     0.092 A 
HETATM    8  C1  UNK     1      18.867   6.761  32.865  1.00  0.00     0.004 A 
HETATM    9  O1  UNK     1      16.474   6.280  32.951  1.00  0.00    -0.275 OA
HETATM   10  C3  UNK     1      18.680   7.756  33.930  1.00  0.00    -0.043 A 
HETATM   11  C6  UNK     1      20.106   6.477  32.275  1.00  0.00     0.017 A 
HETATM   12  C11 UNK     1      19.857   8.534  34.443  1.00  0.00     0.049 C 
HETATM   13  C8  UNK     1      17.451   7.951  34.428  1.00  0.00     0.090 A 
HETATM   14  C12 UNK     1      16.267   7.213  33.956  1.00  0.00     0.288 A 
HETATM   15  O2  UNK     1      15.157   7.418  34.435  1.00  0.00    -0.260 OA
HETATM   16  C7  UNK     1      20.212   5.515  31.264  1.00  0.00     0.030 A 
ENDBRANCH   3   5
ENDBRANCH   2   3
BRANCH   2  17
HETATM   17  N2  UNK     1      19.517   1.728  30.803  1.00  0.00    -0.333 N 
HETATM   18  H15 UNK     1      20.462   1.423  30.583  1.00  0.00     0.168 HD
BRANCH  17  19
HETATM   19  C10 UNK     1      18.970   1.123  31.962  1.00  0.00     0.034 A 
HETATM   20  C15 UNK     1      18.406   1.923  32.939  1.00  0.00     0.030 A 
HETATM   21  C13 UNK     1      17.867   1.328  34.080  1.00  0.00     0.010 A 
HETATM   22  C9  UNK     1      17.901  -0.059  34.225  1.00  0.00    -0.048 A 
HETATM   23  C14 UNK     1      18.475  -0.851  33.230  1.00  0.00     0.010 A 
HETATM   24  C16 UNK     1      19.013  -0.255  32.089  1.00  0.00     0.030 A 
BRANCH  22  25
HETATM   25  C17 UNK     1      17.326  -0.696  35.445  1.00  0.00     0.148 C 
BRANCH  25  26
HETATM   26  C19 UNK     1      16.272   0.152  36.129  1.00  0.00     0.143 C 
HETATM   27  O4  UNK     1      15.159   0.390  35.681  1.00  0.00    -0.650 OA
BRANCH  26  28
HETATM   28  O3  UNK     1      16.707   0.633  37.323  1.00  0.00    -0.776 OA
HETATM   29  H16 UNK     1      16.007   1.136  37.791  1.00  0.00     0.167 HD
ENDBRANCH  26  28
ENDBRANCH  25  26
ENDBRANCH  22  25
ENDBRANCH  17  19
ENDBRANCH   2  17
TORSDOF 7
ENDMDL
MODEL 5
REMARK VINA RESULT:      -8.7      1.606      2.075
REMARK  7 active torsions:
REMARK  status: ('A' for Active; 'I' for Inactive)
REMARK    1  A    between atoms: C19_26  and  O3_4 
REMARK    2  A    between atoms: C18_25  and  N1_6 
REMARK    3  A    between atoms: C4_11  and  N1_6 
REMARK    4  A    between atoms: C10_17  and  N2_7 
REMARK    5  A    between atoms: C18_25  and  N2_7 
REMARK    6  A    between atoms: C17_24  and  C9_16 
REMARK    7  A    between atoms: C17_24  and  C19_26 
ROOT
HETATM    1  S1  UNK     1      20.493  -3.394  37.767  1.00  0.00    -0.041 SA
HETATM    2  C18 UNK     1      19.849  -3.619  36.226  1.00  0.00     0.176 C 
ENDROOT
BRANCH   2   3
HETATM    3  N1  UNK     1      19.387  -4.827  35.696  1.00  0.00    -0.333 N 
HETATM    4  H5  UNK     1      18.529  -4.726  35.166  1.00  0.00     0.168 HD
BRANCH   3   5
HETATM    5  C4  UNK     1      19.564  -6.148  36.108  1.00  0.00     0.036 A 
HETATM    6  C5  UNK     1      20.466  -6.973  35.445  1.00  0.00     0.067 A 
HETATM    7  C2  UNK     1      20.627  -8.291  35.874  1.00  0.00     0.092 A 
HETATM    8  C1  UNK     1      19.913  -8.817  36.951  1.00  0.00     0.004 A 
HETATM    9  O1  UNK     1      21.556  -9.077  35.163  1.00  0.00    -0.275 OA
HETATM   10  C3  UNK     1      20.147 -10.216  37.335  1.00  0.00    -0.043 A 
HETATM   11  C6  UNK     1      19.009  -7.970  37.607  1.00  0.00     0.017 A 
HETATM   12  C11 UNK     1      19.394 -10.811  38.490  1.00  0.00     0.049 C 
HETATM   13  C8  UNK     1      21.036 -10.940  36.641  1.00  0.00     0.090 A 
HETATM   14  C12 UNK     1      21.797 -10.399  35.501  1.00  0.00     0.288 A 
HETATM   15  O2  UNK     1      22.602 -11.092  34.889  1.00  0.00    -0.260 OA
HETATM   16  C7  UNK     1      18.837  -6.646  37.188  1.00  0.00     0.030 A 
ENDBRANCH   3   5
ENDBRANCH   2   3
BRANCH   2  17
HETATM   17  N2  UNK     1      19.652  -2.478  35.461  1.00  0.00    -0.333 N 
HETATM   18  H15 UNK     1      19.182  -1.726  35.960  1.00  0.00     0.168 HD
BRANCH  17  19
HETATM   19  C10 UNK     1      19.792  -2.250  34.070  1.00  0.00     0.034 A 
HETATM   20  C15 UNK     1      20.872  -2.796  33.401  1.00  0.00     0.030 A 
HETATM   21  C13 UNK     1      21.010  -2.572  32.031  1.00  0.00     0.010 A 
HETATM   22  C9  UNK     1      20.063  -1.805  31.352  1.00  0.00    -0.048 A 
HETATM   23  C14 UNK     1      18.980  -1.262  32.042  1.00  0.00     0.010 A 
HETATM   24  C16 UNK     1      18.842  -1.486  33.412  1.00  0.00     0.030 A 
BRANCH  22  25
HETATM   25  C17 UNK     1      20.211  -1.565  29.887  1.00  0.00     0.148 C 
BRANCH  25  26
HETATM   26  C19 UNK     1      20.045  -0.110  29.493  1.00  0.00     0.143 C 
HETATM   27  O4  UNK     1      19.410   0.289  28.527  1.00  0.00    -0.650 OA
BRANCH  26  28
HETATM   28  O3  UNK     1      20.694   0.723  30.348  1.00  0.00    -0.776 OA
HETATM   29  H16 UNK     1      21.369   1.265  29.887  1.00  0.00     0.167 HD
ENDBRANCH  26  28
ENDBRANCH  25  26
ENDBRANCH  22  25
ENDBRANCH  17  19
ENDBRANCH   2  17
TORSDOF 7
ENDMDL
MODEL 6
REMARK VINA RESULT:      -8.7      1.534      8.478
REMARK  7 active torsions:
REMARK  status: ('A' for Active; 'I' for Inactive)
REMARK    1  A    between atoms: C19_26  and  O3_4 
REMARK    2  A    between atoms: C18_25  and  N1_6 
REMARK    3  A    between atoms: C4_11  and  N1_6 
REMARK    4  A    between atoms: C10_17  and  N2_7 
REMARK    5  A    between atoms: C18_25  and  N2_7 
REMARK    6  A    between atoms: C17_24  and  C9_16 
REMARK    7  A    between atoms: C17_24  and  C19_26 
ROOT
HETATM    1  S1  UNK     1      18.231  -1.831  36.948  1.00  0.00    -0.041 SA
HETATM    2  C18 UNK     1      19.065  -3.020  36.092  1.00  0.00     0.176 C 
ENDROOT
BRANCH   2   3
HETATM    3  N1  UNK     1      20.049  -2.799  35.125  1.00  0.00    -0.333 N 
HETATM    4  H5  UNK     1      20.987  -2.773  35.511  1.00  0.00     0.168 HD
BRANCH   3   5
HETATM    5  C4  UNK     1      20.005  -2.161  33.885  1.00  0.00     0.036 A 
HETATM    6  C5  UNK     1      19.272  -0.991  33.725  1.00  0.00     0.067 A 
HETATM    7  C2  UNK     1      19.244  -0.369  32.476  1.00  0.00     0.092 A 
HETATM    8  C1  UNK     1      19.928  -0.881  31.373  1.00  0.00     0.004 A 
HETATM    9  O1  UNK     1      18.483   0.813  32.377  1.00  0.00    -0.275 OA
HETATM   10  C3  UNK     1      19.843  -0.161  30.095  1.00  0.00    -0.043 A 
HETATM   11  C6  UNK     1      20.663  -2.061  31.554  1.00  0.00     0.017 A 
HETATM   12  C11 UNK     1      20.568  -0.685  28.890  1.00  0.00     0.049 C 
HETATM   13  C8  UNK     1      19.112   0.962  30.030  1.00  0.00     0.090 A 
HETATM   14  C12 UNK     1      18.383   1.513  31.185  1.00  0.00     0.288 A 
HETATM   15  O2  UNK     1      17.725   2.543  31.088  1.00  0.00    -0.260 OA
HETATM   16  C7  UNK     1      20.701  -2.696  32.801  1.00  0.00     0.030 A 
ENDBRANCH   3   5
ENDBRANCH   2   3
BRANCH   2  17
HETATM   17  N2  UNK     1      18.834  -4.335  36.469  1.00  0.00    -0.333 N 
HETATM   18  H15 UNK     1      17.986  -4.463  37.016  1.00  0.00     0.168 HD
BRANCH  17  19
HETATM   19  C10 UNK     1      19.664  -5.482  36.415  1.00  0.00     0.034 A 
HETATM   20  C15 UNK     1      20.584  -5.698  37.425  1.00  0.00     0.030 A 
HETATM   21  C13 UNK     1      21.401  -6.828  37.372  1.00  0.00     0.010 A 
HETATM   22  C9  UNK     1      21.284  -7.723  36.309  1.00  0.00    -0.048 A 
HETATM   23  C14 UNK     1      20.351  -7.489  35.299  1.00  0.00     0.010 A 
HETATM   24  C16 UNK     1      19.534  -6.360  35.352  1.00  0.00     0.030 A 
BRANCH  22  25
HETATM   25  C17 UNK     1      22.158  -8.931  36.251  1.00  0.00     0.148 C 
BRANCH  25  26
HETATM   26  C19 UNK     1      21.540 -10.089  35.492  1.00  0.00     0.143 C 
HETATM   27  O4  UNK     1      21.763 -10.362  34.321  1.00  0.00    -0.650 OA
BRANCH  26  28
HETATM   28  O3  UNK     1      20.690 -10.808  36.271  1.00  0.00    -0.776 OA
HETATM   29  H16 UNK     1      20.960 -10.795  37.214  1.00  0.00     0.167 HD
ENDBRANCH  26  28
ENDBRANCH  25  26
ENDBRANCH  22  25
ENDBRANCH  17  19
ENDBRANCH   2  17
TORSDOF 7
ENDMDL
MODEL 7
REMARK VINA RESULT:      -8.6      6.954     11.783
REMARK  7 active torsions:
REMARK  status: ('A' for Active; 'I' for Inactive)
REMARK    1  A    between atoms: C19_26  and  O3_4 
REMARK    2  A    between atoms: C18_25  and  N1_6 
REMARK    3  A    between atoms: C4_11  and  N1_6 
REMARK    4  A    between atoms: C10_17  and  N2_7 
REMARK    5  A    between atoms: C18_25  and  N2_7 
REMARK    6  A    between atoms: C17_24  and  C9_16 
REMARK    7  A    between atoms: C17_24  and  C19_26 
ROOT
HETATM    1  S1  UNK     1      18.212   1.963  29.273  1.00  0.00    -0.041 SA
HETATM    2  C18 UNK     1      18.565   2.893  30.634  1.00  0.00     0.176 C 
ENDROOT
BRANCH   2   3
HETATM    3  N1  UNK     1      19.333   4.060  30.655  1.00  0.00    -0.333 N 
HETATM    4  H5  UNK     1      20.275   3.923  30.305  1.00  0.00     0.168 HD
BRANCH   3   5
HETATM    5  C4  UNK     1      19.263   5.203  31.453  1.00  0.00     0.036 A 
HETATM    6  C5  UNK     1      18.060   5.885  31.595  1.00  0.00     0.067 A 
HETATM    7  C2  UNK     1      18.013   7.025  32.399  1.00  0.00     0.092 A 
HETATM    8  C1  UNK     1      19.135   7.509  33.072  1.00  0.00     0.004 A 
HETATM    9  O1  UNK     1      16.766   7.673  32.502  1.00  0.00    -0.275 OA
HETATM   10  C3  UNK     1      18.995   8.717  33.897  1.00  0.00    -0.043 A 
HETATM   11  C6  UNK     1      20.339   6.807  32.917  1.00  0.00     0.017 A 
HETATM   12  C11 UNK     1      20.184   9.262  34.634  1.00  0.00     0.049 C 
HETATM   13  C8  UNK     1      17.796   9.312  33.978  1.00  0.00     0.090 A 
HETATM   14  C12 UNK     1      16.603   8.813  33.273  1.00  0.00     0.288 A 
HETATM   15  O2  UNK     1      15.523   9.385  33.370  1.00  0.00    -0.260 OA
HETATM   16  C7  UNK     1      20.402   5.663  32.115  1.00  0.00     0.030 A 
ENDBRANCH   3   5
ENDBRANCH   2   3
BRANCH   2  17
HETATM   17  N2  UNK     1      17.936   2.530  31.816  1.00  0.00    -0.333 N 
HETATM   18  H15 UNK     1      17.249   3.207  32.141  1.00  0.00     0.168 HD
BRANCH  17  19
HETATM   19  C10 UNK     1      18.225   1.505  32.751  1.00  0.00     0.034 A 
HETATM   20  C15 UNK     1      18.135   1.781  34.104  1.00  0.00     0.030 A 
HETATM   21  C13 UNK     1      18.419   0.772  35.024  1.00  0.00     0.010 A 
HETATM   22  C9  UNK     1      18.788  -0.497  34.577  1.00  0.00    -0.048 A 
HETATM   23  C14 UNK     1      18.872  -0.757  33.210  1.00  0.00     0.010 A 
HETATM   24  C16 UNK     1      18.589   0.252  32.289  1.00  0.00     0.030 A 
BRANCH  22  25
HETATM   25  C17 UNK     1      19.091  -1.575  35.562  1.00  0.00     0.148 C 
BRANCH  25  26
HETATM   26  C19 UNK     1      20.346  -2.361  35.231  1.00  0.00     0.143 C 
HETATM   27  O4  UNK     1      21.484  -1.915  35.263  1.00  0.00    -0.650 OA
BRANCH  26  28
HETATM   28  O3  UNK     1      20.063  -3.643  34.884  1.00  0.00    -0.776 OA
HETATM   29  H16 UNK     1      19.184  -3.926  35.216  1.00  0.00     0.167 HD
ENDBRANCH  26  28
ENDBRANCH  25  26
ENDBRANCH  22  25
ENDBRANCH  17  19
ENDBRANCH   2  17
TORSDOF 7
ENDMDL
MODEL 8
REMARK VINA RESULT:      -8.6      1.634      2.036
REMARK  7 active torsions:
REMARK  status: ('A' for Active; 'I' for Inactive)
REMARK    1  A    between atoms: C19_26  and  O3_4 
REMARK    2  A    between atoms: C18_25  and  N1_6 
REMARK    3  A    between atoms: C4_11  and  N1_6 
REMARK    4  A    between atoms: C10_17  and  N2_7 
REMARK    5  A    between atoms: C18_25  and  N2_7 
REMARK    6  A    between atoms: C17_24  and  C9_16 
REMARK    7  A    between atoms: C17_24  and  C19_26 
ROOT
HETATM    1  S1  UNK     1      18.339  -1.413  37.108  1.00  0.00    -0.041 SA
HETATM    2  C18 UNK     1      19.208  -2.516  36.176  1.00  0.00     0.176 C 
ENDROOT
BRANCH   2   3
HETATM    3  N1  UNK     1      19.022  -3.900  36.154  1.00  0.00    -0.333 N 
HETATM    4  H5  UNK     1      18.102  -4.173  35.828  1.00  0.00     0.168 HD
BRANCH   3   5
HETATM    5  C4  UNK     1      19.610  -4.927  36.893  1.00  0.00     0.036 A 
HETATM    6  C5  UNK     1      19.017  -6.185  36.940  1.00  0.00     0.067 A 
HETATM    7  C2  UNK     1      19.624  -7.197  37.684  1.00  0.00     0.092 A 
HETATM    8  C1  UNK     1      20.811  -6.995  38.388  1.00  0.00     0.004 A 
HETATM    9  O1  UNK     1      18.975  -8.448  37.692  1.00  0.00    -0.275 OA
HETATM   10  C3  UNK     1      21.380  -8.119  39.147  1.00  0.00    -0.043 A 
HETATM   11  C6  UNK     1      21.394  -5.722  38.329  1.00  0.00     0.017 A 
HETATM   12  C11 UNK     1      22.656  -7.933  39.915  1.00  0.00     0.049 C 
HETATM   13  C8  UNK     1      20.741  -9.298  39.136  1.00  0.00     0.090 A 
HETATM   14  C12 UNK     1      19.488  -9.526  38.398  1.00  0.00     0.288 A 
HETATM   15  O2  UNK     1      18.932 -10.619  38.412  1.00  0.00    -0.260 OA
HETATM   16  C7  UNK     1      20.798  -4.696  37.587  1.00  0.00     0.030 A 
ENDBRANCH   3   5
ENDBRANCH   2   3
BRANCH   2  17
HETATM   17  N2  UNK     1      20.107  -1.985  35.262  1.00  0.00    -0.333 N 
HETATM   18  H15 UNK     1      20.797  -1.363  35.678  1.00  0.00     0.168 HD
BRANCH  17  19
HETATM   19  C10 UNK     1      20.109  -1.984  33.845  1.00  0.00     0.034 A 
HETATM   20  C15 UNK     1      21.109  -2.661  33.170  1.00  0.00     0.030 A 
HETATM   21  C13 UNK     1      21.110  -2.660  31.775  1.00  0.00     0.010 A 
HETATM   22  C9  UNK     1      20.110  -1.982  31.077  1.00  0.00    -0.048 A 
HETATM   23  C14 UNK     1      19.110  -1.305  31.774  1.00  0.00     0.010 A 
HETATM   24  C16 UNK     1      19.109  -1.306  33.169  1.00  0.00     0.030 A 
BRANCH  22  25
HETATM   25  C17 UNK     1      20.111  -1.981  29.586  1.00  0.00     0.148 C 
BRANCH  25  26
HETATM   26  C19 UNK     1      19.976  -0.597  28.982  1.00  0.00     0.143 C 
HETATM   27  O4  UNK     1      20.525   0.412  29.403  1.00  0.00    -0.650 OA
BRANCH  26  28
HETATM   28  O3  UNK     1      19.158  -0.596  27.897  1.00  0.00    -0.776 OA
HETATM   29  H16 UNK     1      18.378  -1.177  28.028  1.00  0.00     0.167 HD
ENDBRANCH  26  28
ENDBRANCH  25  26
ENDBRANCH  22  25
ENDBRANCH  17  19
ENDBRANCH   2  17
TORSDOF 7
ENDMDL
MODEL 9
REMARK VINA RESULT:      -8.4      1.361      2.024
REMARK  7 active torsions:
REMARK  status: ('A' for Active; 'I' for Inactive)
REMARK    1  A    between atoms: C19_26  and  O3_4 
REMARK    2  A    between atoms: C18_25  and  N1_6 
REMARK    3  A    between atoms: C4_11  and  N1_6 
REMARK    4  A    between atoms: C10_17  and  N2_7 
REMARK    5  A    between atoms: C18_25  and  N2_7 
REMARK    6  A    between atoms: C17_24  and  C9_16 
REMARK    7  A    between atoms: C17_24  and  C19_26 
ROOT
HETATM    1  S1  UNK     1      17.703  -1.364  36.944  1.00  0.00    -0.041 SA
HETATM    2  C18 UNK     1      18.722  -2.639  36.523  1.00  0.00     0.176 C 
ENDROOT
BRANCH   2   3
HETATM    3  N1  UNK     1      18.515  -3.989  36.818  1.00  0.00    -0.333 N 
HETATM    4  H5  UNK     1      17.829  -4.136  37.550  1.00  0.00     0.168 HD
BRANCH   3   5
HETATM    5  C4  UNK     1      19.339  -5.107  36.679  1.00  0.00     0.036 A 
HETATM    6  C5  UNK     1      20.303  -5.389  37.642  1.00  0.00     0.067 A 
HETATM    7  C2  UNK     1      21.115  -6.513  37.483  1.00  0.00     0.092 A 
HETATM    8  C1  UNK     1      20.996  -7.370  36.390  1.00  0.00     0.004 A 
HETATM    9  O1  UNK     1      22.072  -6.745  38.491  1.00  0.00    -0.275 OA
HETATM   10  C3  UNK     1      21.894  -8.531  36.304  1.00  0.00    -0.043 A 
HETATM   11  C6  UNK     1      20.019  -7.070  35.431  1.00  0.00     0.017 A 
HETATM   12  C11 UNK     1      21.791  -9.472  35.139  1.00  0.00     0.049 C 
HETATM   13  C8  UNK     1      22.795  -8.727  37.277  1.00  0.00     0.090 A 
HETATM   14  C12 UNK     1      22.933  -7.831  38.437  1.00  0.00     0.288 A 
HETATM   15  O2  UNK     1      23.769  -8.043  39.308  1.00  0.00    -0.260 OA
HETATM   16  C7  UNK     1      19.197  -5.947  35.575  1.00  0.00     0.030 A 
ENDBRANCH   3   5
ENDBRANCH   2   3
BRANCH   2  17
HETATM   17  N2  UNK     1      19.803  -2.329  35.710  1.00  0.00    -0.333 N 
HETATM   18  H15 UNK     1      20.625  -2.016  36.222  1.00  0.00     0.168 HD
BRANCH  17  19
HETATM   19  C10 UNK     1      19.900  -2.168  34.306  1.00  0.00     0.034 A 
HETATM   20  C15 UNK     1      18.984  -1.362  33.654  1.00  0.00     0.030 A 
HETATM   21  C13 UNK     1      19.080  -1.203  32.271  1.00  0.00     0.010 A 
HETATM   22  C9  UNK     1      20.091  -1.852  31.563  1.00  0.00    -0.048 A 
HETATM   23  C14 UNK     1      21.006  -2.660  32.237  1.00  0.00     0.010 A 
HETATM   24  C16 UNK     1      20.911  -2.819  33.619  1.00  0.00     0.030 A 
BRANCH  22  25
HETATM   25  C17 UNK     1      20.194  -1.682  30.085  1.00  0.00     0.148 C 
BRANCH  25  26
HETATM   26  C19 UNK     1      20.123  -0.235  29.636  1.00  0.00     0.143 C 
HETATM   27  O4  UNK     1      19.485   0.174  28.675  1.00  0.00    -0.650 OA
BRANCH  26  28
HETATM   28  O3  UNK     1      20.862   0.579  30.434  1.00  0.00    -0.776 OA
HETATM   29  H16 UNK     1      21.740   0.774  30.043  1.00  0.00     0.167 HD
ENDBRANCH  26  28
ENDBRANCH  25  26
ENDBRANCH  22  25
ENDBRANCH  17  19
ENDBRANCH   2  17
TORSDOF 7
ENDMDL
MODEL 10
REMARK VINA RESULT:      -8.4      6.802     11.605
REMARK  7 active torsions:
REMARK  status: ('A' for Active; 'I' for Inactive)
REMARK    1  A    between atoms: C19_26  and  O3_4 
REMARK    2  A    between atoms: C18_25  and  N1_6 
REMARK    3  A    between atoms: C4_11  and  N1_6 
REMARK    4  A    between atoms: C10_17  and  N2_7 
REMARK    5  A    between atoms: C18_25  and  N2_7 
REMARK    6  A    between atoms: C17_24  and  C9_16 
REMARK    7  A    between atoms: C17_24  and  C19_26 
ROOT
HETATM    1  S1  UNK     1      17.908   2.024  28.820  1.00  0.00    -0.041 SA
HETATM    2  C18 UNK     1      19.028   2.497  29.987  1.00  0.00     0.176 C 
ENDROOT
BRANCH   2   3
HETATM    3  N1  UNK     1      19.422   3.808  30.265  1.00  0.00    -0.333 N 
HETATM    4  H5  UNK     1      20.394   3.989  30.037  1.00  0.00     0.168 HD
BRANCH   3   5
HETATM    5  C4  UNK     1      18.947   4.745  31.183  1.00  0.00     0.036 A 
HETATM    6  C5  UNK     1      19.815   5.672  31.751  1.00  0.00     0.067 A 
HETATM    7  C2  UNK     1      19.317   6.601  32.666  1.00  0.00     0.092 A 
HETATM    8  C1  UNK     1      17.972   6.636  33.035  1.00  0.00     0.004 A 
HETATM    9  O1  UNK     1      20.245   7.513  33.206  1.00  0.00    -0.275 OA
HETATM   10  C3  UNK     1      17.535   7.649  34.006  1.00  0.00    -0.043 A 
HETATM   11  C6  UNK     1      17.112   5.695  32.452  1.00  0.00     0.017 A 
HETATM   12  C11 UNK     1      16.094   7.713  34.423  1.00  0.00     0.049 C 
HETATM   13  C8  UNK     1      18.439   8.504  34.503  1.00  0.00     0.090 A 
HETATM   14  C12 UNK     1      19.862   8.479  34.124  1.00  0.00     0.288 A 
HETATM   15  O2  UNK     1      20.661   9.278  34.600  1.00  0.00    -0.260 OA
HETATM   16  C7  UNK     1      17.597   4.757  31.533  1.00  0.00     0.030 A 
ENDBRANCH   3   5
ENDBRANCH   2   3
BRANCH   2  17
HETATM   17  N2  UNK     1      19.513   1.502  30.824  1.00  0.00    -0.333 N 
HETATM   18  H15 UNK     1      20.303   0.990  30.439  1.00  0.00     0.168 HD
BRANCH  17  19
HETATM   19  C10 UNK     1      18.980   0.936  32.009  1.00  0.00     0.034 A 
HETATM   20  C15 UNK     1      18.968  -0.440  32.155  1.00  0.00     0.030 A 
HETATM   21  C13 UNK     1      18.444  -0.997  33.321  1.00  0.00     0.010 A 
HETATM   22  C9  UNK     1      17.940  -0.169  34.324  1.00  0.00    -0.048 A 
HETATM   23  C14 UNK     1      17.960   1.216  34.161  1.00  0.00     0.010 A 
HETATM   24  C16 UNK     1      18.484   1.773  32.994  1.00  0.00     0.030 A 
BRANCH  22  25
HETATM   25  C17 UNK     1      17.379  -0.764  35.572  1.00  0.00     0.148 C 
BRANCH  25  26
HETATM   26  C19 UNK     1      16.395   0.142  36.285  1.00  0.00     0.143 C 
HETATM   27  O4  UNK     1      16.595   0.690  37.361  1.00  0.00    -0.650 OA
BRANCH  26  28
HETATM   28  O3  UNK     1      15.239   0.283  35.586  1.00  0.00    -0.776 OA
HETATM   29  H16 UNK     1      14.667  -0.511  35.661  1.00  0.00     0.167 HD
ENDBRANCH  26  28
ENDBRANCH  25  26
ENDBRANCH  22  25
ENDBRANCH  17  19
ENDBRANCH   2  17
TORSDOF 7
ENDMDL
