MODEL 1
REMARK VINA RESULT:      -9.4      0.000      0.000
REMARK  4 active torsions:
REMARK  status: ('A' for Active; 'I' for Inactive)
REMARK    1  A    between atoms: C14_23  and  O2_3 
REMARK    2  A    between atoms: C10_19  and  N1_8 
REMARK       I    between atoms: C8_17  and  N1_8 
REMARK    3  A    between atoms: C7_16  and  N2_9 
REMARK    4  A    between atoms: C3_12  and  C8_17 
ROOT
HETATM    1  O1  UNK     1      19.145   1.410  28.822  1.00  0.00    -0.274 OA
HETATM    2  O4  UNK     1      18.262   3.515  28.927  1.00  0.00    -0.259 OA
HETATM    3  C1  UNK     1      19.642   0.212  30.878  1.00  0.00     0.001 A 
HETATM    4  C2  UNK     1      19.622   0.264  29.489  1.00  0.00     0.089 A 
HETATM    5  C3  UNK     1      18.707   2.445  30.993  1.00  0.00     0.108 A 
HETATM    6  C4  UNK     1      19.160   1.359  31.632  1.00  0.00     0.037 A 
HETATM    7  C5  UNK     1      20.123  -0.941  31.504  1.00  0.00     0.050 A 
HETATM    8  C6  UNK     1      20.070  -0.800  28.709  1.00  0.00     0.041 A 
HETATM    9  C7  UNK     1      20.574  -2.017  30.734  1.00  0.00     0.103 A 
HETATM   10  C9  UNK     1      18.678   2.522  29.515  1.00  0.00     0.304 A 
HETATM   11  C11 UNK     1      20.547  -1.947  29.340  1.00  0.00     0.039 A 
ENDROOT
BRANCH   5  12
HETATM   12  C8  UNK     1      18.243   3.550  31.841  1.00  0.00     0.262 C 
HETATM   13  O3  UNK     1      17.599   3.308  32.861  1.00  0.00    -0.267 OA
HETATM   14  N1  UNK     1      18.618   4.788  31.339  1.00  0.00    -0.323 N 
HETATM   15  H5  UNK     1      19.173   4.816  30.486  1.00  0.00     0.169 HD
BRANCH  14  16
HETATM   16  C10 UNK     1      18.344   6.063  31.890  1.00  0.00     0.036 A 
HETATM   17  C12 UNK     1      19.250   6.629  32.771  1.00  0.00     0.056 A 
HETATM   18  C15 UNK     1      18.979   7.885  33.315  1.00  0.00     0.069 A 
HETATM   19  C14 UNK     1      17.806   8.556  32.969  1.00  0.00     0.090 A 
HETATM   20 Cl1  UNK     1      20.112   8.585  34.411  1.00  0.00    -0.081 Cl
HETATM   21  C16 UNK     1      16.903   7.971  32.080  1.00  0.00     0.041 A 
HETATM   22  C13 UNK     1      17.174   6.715  31.537  1.00  0.00     0.032 A 
BRANCH  19  23
HETATM   23  O2  UNK     1      17.515   9.783  33.485  1.00  0.00    -0.354 OA
HETATM   24  C17 UNK     1      16.188   9.987  33.965  1.00  0.00     0.210 C 
ENDBRANCH  19  23
ENDBRANCH  14  16
ENDBRANCH   5  12
BRANCH   9  25
HETATM   25  N2  UNK     1      21.062  -3.188  31.373  1.00  0.00    -0.116 N 
HETATM   26  O5  UNK     1      21.427  -4.159  30.666  1.00  0.00    -0.532 OA
HETATM   27  O6  UNK     1      21.117  -3.219  32.626  1.00  0.00    -0.532 OA
ENDBRANCH   9  25
TORSDOF 4
ENDMDL
MODEL 2
REMARK VINA RESULT:      -8.9     14.837     18.997
REMARK  4 active torsions:
REMARK  status: ('A' for Active; 'I' for Inactive)
REMARK    1  A    between atoms: C14_23  and  O2_3 
REMARK    2  A    between atoms: C10_19  and  N1_8 
REMARK       I    between atoms: C8_17  and  N1_8 
REMARK    3  A    between atoms: C7_16  and  N2_9 
REMARK    4  A    between atoms: C3_12  and  C8_17 
ROOT
HETATM    1  O1  UNK     1      19.290   0.802  15.018  1.00  0.00    -0.274 OA
HETATM    2  O4  UNK     1      19.255  -0.759  13.350  1.00  0.00    -0.259 OA
HETATM    3  C1  UNK     1      18.917   0.111  17.318  1.00  0.00     0.001 A 
HETATM    4  C2  UNK     1      19.176   1.111  16.387  1.00  0.00     0.089 A 
HETATM    5  C3  UNK     1      18.878  -1.548  15.552  1.00  0.00     0.108 A 
HETATM    6  C4  UNK     1      18.768  -1.260  16.855  1.00  0.00     0.037 A 
HETATM    7  C5  UNK     1      18.810   0.456  18.668  1.00  0.00     0.050 A 
HETATM    8  C6  UNK     1      19.329   2.443  16.766  1.00  0.00     0.041 A 
HETATM    9  C7  UNK     1      18.963   1.788  19.063  1.00  0.00     0.103 A 
HETATM   10  C9  UNK     1      19.152  -0.499  14.544  1.00  0.00     0.304 A 
HETATM   11  C11 UNK     1      19.222   2.780  18.114  1.00  0.00     0.039 A 
ENDROOT
BRANCH   5  12
HETATM   12  C8  UNK     1      18.711  -2.959  15.183  1.00  0.00     0.262 C 
HETATM   13  O3  UNK     1      17.709  -3.571  15.548  1.00  0.00    -0.267 OA
HETATM   14  N1  UNK     1      19.776  -3.432  14.428  1.00  0.00    -0.323 N 
HETATM   15  H5  UNK     1      20.525  -2.786  14.191  1.00  0.00     0.169 HD
BRANCH  14  16
HETATM   16  C10 UNK     1      19.951  -4.736  13.904  1.00  0.00     0.036 A 
HETATM   17  C12 UNK     1      19.287  -5.092  12.742  1.00  0.00     0.056 A 
HETATM   18  C15 UNK     1      19.460  -6.377  12.225  1.00  0.00     0.069 A 
HETATM   19  C14 UNK     1      20.293  -7.285  12.879  1.00  0.00     0.090 A 
HETATM   20 Cl1  UNK     1      18.631  -6.815  10.778  1.00  0.00    -0.081 Cl
HETATM   21  C16 UNK     1      20.953  -6.909  14.050  1.00  0.00     0.041 A 
HETATM   22  C13 UNK     1      20.780  -5.625  14.565  1.00  0.00     0.032 A 
BRANCH  19  23
HETATM   23  O2  UNK     1      20.479  -8.546  12.398  1.00  0.00    -0.354 OA
HETATM   24  C17 UNK     1      21.746  -9.153  12.641  1.00  0.00     0.210 C 
ENDBRANCH  19  23
ENDBRANCH  14  16
ENDBRANCH   5  12
BRANCH   9  25
HETATM   25  N2  UNK     1      18.854   2.136  20.436  1.00  0.00    -0.116 N 
HETATM   26  O5  UNK     1      19.880   2.518  21.049  1.00  0.00    -0.532 OA
HETATM   27  O6  UNK     1      17.735   2.053  20.997  1.00  0.00    -0.532 OA
ENDBRANCH   9  25
TORSDOF 4
ENDMDL
MODEL 3
REMARK VINA RESULT:      -8.8     14.725     17.113
REMARK  4 active torsions:
REMARK  status: ('A' for Active; 'I' for Inactive)
REMARK    1  A    between atoms: C14_23  and  O2_3 
REMARK    2  A    between atoms: C10_19  and  N1_8 
REMARK       I    between atoms: C8_17  and  N1_8 
REMARK    3  A    between atoms: C7_16  and  N2_9 
REMARK    4  A    between atoms: C3_12  and  C8_17 
ROOT
HETATM    1  O1  UNK     1      19.161  -2.771  12.486  1.00  0.00    -0.274 OA
HETATM    2  O4  UNK     1      19.067  -0.748  13.542  1.00  0.00    -0.259 OA
HETATM    3  C1  UNK     1      18.476  -4.779  13.673  1.00  0.00     0.001 A 
HETATM    4  C2  UNK     1      18.959  -4.165  12.523  1.00  0.00     0.089 A 
HETATM    5  C3  UNK     1      18.376  -2.635  14.798  1.00  0.00     0.108 A 
HETATM    6  C4  UNK     1      18.183  -3.958  14.839  1.00  0.00     0.037 A 
HETATM    7  C5  UNK     1      18.289  -6.164  13.672  1.00  0.00     0.050 A 
HETATM    8  C6  UNK     1      19.260  -4.894  11.374  1.00  0.00     0.041 A 
HETATM    9  C7  UNK     1      18.586  -6.908  12.526  1.00  0.00     0.103 A 
HETATM   10  C9  UNK     1      18.890  -1.960  13.584  1.00  0.00     0.304 A 
HETATM   11  C11 UNK     1      19.070  -6.274  11.380  1.00  0.00     0.039 A 
ENDROOT
BRANCH   5  12
HETATM   12  C8  UNK     1      18.051  -1.893  16.022  1.00  0.00     0.262 C 
HETATM   13  O3  UNK     1      17.006  -2.136  16.623  1.00  0.00    -0.267 OA
HETATM   14  N1  UNK     1      19.030  -0.964  16.347  1.00  0.00    -0.323 N 
HETATM   15  H5  UNK     1      19.852  -0.900  15.752  1.00  0.00     0.169 HD
BRANCH  14  16
HETATM   16  C10 UNK     1      19.047  -0.079  17.452  1.00  0.00     0.036 A 
HETATM   17  C12 UNK     1      19.157   1.283  17.227  1.00  0.00     0.056 A 
HETATM   18  C15 UNK     1      19.174   2.155  18.316  1.00  0.00     0.069 A 
HETATM   19  C14 UNK     1      19.080   1.651  19.613  1.00  0.00     0.090 A 
HETATM   20 Cl1  UNK     1      19.312   3.850  18.029  1.00  0.00    -0.081 Cl
HETATM   21  C16 UNK     1      18.969   0.276  19.823  1.00  0.00     0.041 A 
HETATM   22  C13 UNK     1      18.953  -0.595  18.734  1.00  0.00     0.032 A 
BRANCH  19  23
HETATM   23  O2  UNK     1      19.095   2.479  20.696  1.00  0.00    -0.354 OA
HETATM   24  C17 UNK     1      19.907   2.089  21.800  1.00  0.00     0.210 C 
ENDBRANCH  19  23
ENDBRANCH  14  16
ENDBRANCH   5  12
BRANCH   9  25
HETATM   25  N2  UNK     1      18.395  -8.315  12.528  1.00  0.00    -0.116 N 
HETATM   26  O5  UNK     1      17.236  -8.771  12.687  1.00  0.00    -0.532 OA
HETATM   27  O6  UNK     1      19.389  -9.064  12.369  1.00  0.00    -0.532 OA
ENDBRANCH   9  25
TORSDOF 4
ENDMDL
MODEL 4
REMARK VINA RESULT:      -8.7      5.704     10.236
REMARK  4 active torsions:
REMARK  status: ('A' for Active; 'I' for Inactive)
REMARK    1  A    between atoms: C14_23  and  O2_3 
REMARK    2  A    between atoms: C10_19  and  N1_8 
REMARK       I    between atoms: C8_17  and  N1_8 
REMARK    3  A    between atoms: C7_16  and  N2_9 
REMARK    4  A    between atoms: C3_12  and  C8_17 
ROOT
HETATM    1  O1  UNK     1      20.857  -2.768  30.534  1.00  0.00    -0.274 OA
HETATM    2  O4  UNK     1      21.518  -4.362  32.032  1.00  0.00    -0.259 OA
HETATM    3  C1  UNK     1      19.759  -0.751  31.333  1.00  0.00     0.001 A 
HETATM    4  C2  UNK     1      20.252  -1.520  30.284  1.00  0.00     0.089 A 
HETATM    5  C3  UNK     1      20.457  -2.441  32.924  1.00  0.00     0.108 A 
HETATM    6  C4  UNK     1      19.880  -1.255  32.693  1.00  0.00     0.037 A 
HETATM    7  C5  UNK     1      19.165   0.480  31.046  1.00  0.00     0.050 A 
HETATM    8  C6  UNK     1      20.166  -1.095  28.960  1.00  0.00     0.041 A 
HETATM    9  C7  UNK     1      19.073   0.920  29.722  1.00  0.00     0.103 A 
HETATM   10  C9  UNK     1      20.987  -3.276  31.823  1.00  0.00     0.304 A 
HETATM   11  C11 UNK     1      19.573   0.134  28.682  1.00  0.00     0.039 A 
ENDROOT
BRANCH   5  12
HETATM   12  C8  UNK     1      20.533  -2.863  34.328  1.00  0.00     0.262 C 
HETATM   13  O3  UNK     1      20.938  -2.075  35.181  1.00  0.00    -0.267 OA
HETATM   14  N1  UNK     1      20.111  -4.173  34.505  1.00  0.00    -0.323 N 
HETATM   15  H5  UNK     1      19.782  -4.689  33.691  1.00  0.00     0.169 HD
BRANCH  14  16
HETATM   16  C10 UNK     1      20.051  -4.906  35.715  1.00  0.00     0.036 A 
HETATM   17  C12 UNK     1      19.493  -6.173  35.713  1.00  0.00     0.056 A 
HETATM   18  C15 UNK     1      19.434  -6.894  36.905  1.00  0.00     0.069 A 
HETATM   19  C14 UNK     1      19.935  -6.337  38.082  1.00  0.00     0.090 A 
HETATM   20 Cl1  UNK     1      18.738  -8.472  36.896  1.00  0.00    -0.081 Cl
HETATM   21  C16 UNK     1      20.494  -5.059  38.067  1.00  0.00     0.041 A 
HETATM   22  C13 UNK     1      20.552  -4.338  36.874  1.00  0.00     0.032 A 
BRANCH  19  23
HETATM   23  O2  UNK     1      19.890  -7.018  39.262  1.00  0.00    -0.354 OA
HETATM   24  C17 UNK     1      21.024  -7.817  39.593  1.00  0.00     0.210 C 
ENDBRANCH  19  23
ENDBRANCH  14  16
ENDBRANCH   5  12
BRANCH   9  25
HETATM   25  N2  UNK     1      18.469   2.172  29.434  1.00  0.00    -0.116 N 
HETATM   26  O5  UNK     1      17.982   2.364  28.293  1.00  0.00    -0.532 OA
HETATM   27  O6  UNK     1      18.437   3.052  30.328  1.00  0.00    -0.532 OA
ENDBRANCH   9  25
TORSDOF 4
ENDMDL
MODEL 5
REMARK VINA RESULT:      -8.6     14.300     16.095
REMARK  4 active torsions:
REMARK  status: ('A' for Active; 'I' for Inactive)
REMARK    1  A    between atoms: C14_23  and  O2_3 
REMARK    2  A    between atoms: C10_19  and  N1_8 
REMARK       I    between atoms: C8_17  and  N1_8 
REMARK    3  A    between atoms: C7_16  and  N2_9 
REMARK    4  A    between atoms: C3_12  and  C8_17 
ROOT
HETATM    1  O1  UNK     1      27.967  -4.692  38.674  1.00  0.00    -0.274 OA
HETATM    2  O4  UNK     1      25.731  -5.041  38.989  1.00  0.00    -0.259 OA
HETATM    3  C1  UNK     1      29.458  -6.598  38.436  1.00  0.00     0.001 A 
HETATM    4  C2  UNK     1      29.258  -5.222  38.482  1.00  0.00     0.089 A 
HETATM    5  C3  UNK     1      27.088  -6.972  38.771  1.00  0.00     0.108 A 
HETATM    6  C4  UNK     1      28.312  -7.481  38.589  1.00  0.00     0.037 A 
HETATM    7  C5  UNK     1      30.754  -7.086  38.245  1.00  0.00     0.050 A 
HETATM    8  C6  UNK     1      30.314  -4.323  38.343  1.00  0.00     0.041 A 
HETATM    9  C7  UNK     1      31.822  -6.195  38.103  1.00  0.00     0.103 A 
HETATM   10  C9  UNK     1      26.852  -5.512  38.824  1.00  0.00     0.304 A 
HETATM   11  C11 UNK     1      31.602  -4.817  38.152  1.00  0.00     0.039 A 
ENDROOT
BRANCH   5  12
HETATM   12  C8  UNK     1      25.996  -7.943  38.915  1.00  0.00     0.262 C 
HETATM   13  O3  UNK     1      26.221  -9.045  39.413  1.00  0.00    -0.267 OA
HETATM   14  N1  UNK     1      24.790  -7.450  38.437  1.00  0.00    -0.323 N 
HETATM   15  H5  UNK     1      24.767  -6.501  38.071  1.00  0.00     0.169 HD
BRANCH  14  16
HETATM   16  C10 UNK     1      23.536  -8.107  38.414  1.00  0.00     0.036 A 
HETATM   17  C12 UNK     1      23.140  -8.769  37.265  1.00  0.00     0.056 A 
HETATM   18  C15 UNK     1      21.905  -9.417  37.242  1.00  0.00     0.069 A 
HETATM   19  C14 UNK     1      21.085  -9.394  38.371  1.00  0.00     0.090 A 
HETATM   20 Cl1  UNK     1      21.416 -10.240  35.807  1.00  0.00    -0.081 Cl
HETATM   21  C16 UNK     1      21.500  -8.722  39.521  1.00  0.00     0.041 A 
HETATM   22  C13 UNK     1      22.734  -8.074  39.543  1.00  0.00     0.032 A 
BRANCH  19  23
HETATM   23  O2  UNK     1      19.873 -10.017  38.378  1.00  0.00    -0.354 OA
HETATM   24  C17 UNK     1      18.733  -9.224  38.056  1.00  0.00     0.210 C 
ENDBRANCH  19  23
ENDBRANCH  14  16
ENDBRANCH   5  12
BRANCH   9  25
HETATM   25  N2  UNK     1      33.137  -6.694  37.908  1.00  0.00    -0.116 N 
HETATM   26  O5  UNK     1      33.302  -7.928  37.750  1.00  0.00    -0.532 OA
HETATM   27  O6  UNK     1      34.098  -5.887  37.897  1.00  0.00    -0.532 OA
ENDBRANCH   9  25
TORSDOF 4
ENDMDL
MODEL 6
REMARK VINA RESULT:      -8.6      7.329     12.257
REMARK  4 active torsions:
REMARK  status: ('A' for Active; 'I' for Inactive)
REMARK    1  A    between atoms: C14_23  and  O2_3 
REMARK    2  A    between atoms: C10_19  and  N1_8 
REMARK       I    between atoms: C8_17  and  N1_8 
REMARK    3  A    between atoms: C7_16  and  N2_9 
REMARK    4  A    between atoms: C3_12  and  C8_17 
ROOT
HETATM    1  O1  UNK     1      19.577  -1.317  33.989  1.00  0.00    -0.274 OA
HETATM    2  O4  UNK     1      21.015  -3.074  33.727  1.00  0.00    -0.259 OA
HETATM    3  C1  UNK     1      18.145  -1.220  35.951  1.00  0.00     0.001 A 
HETATM    4  C2  UNK     1      18.586  -0.670  34.752  1.00  0.00     0.089 A 
HETATM    5  C3  UNK     1      19.668  -3.085  35.676  1.00  0.00     0.108 A 
HETATM    6  C4  UNK     1      18.726  -2.475  36.405  1.00  0.00     0.037 A 
HETATM    7  C5  UNK     1      17.160  -0.549  36.680  1.00  0.00     0.050 A 
HETATM    8  C6  UNK     1      18.069   0.528  34.262  1.00  0.00     0.041 A 
HETATM    9  C7  UNK     1      16.634   0.654  36.201  1.00  0.00     0.103 A 
HETATM   10  C9  UNK     1      20.151  -2.518  34.397  1.00  0.00     0.304 A 
HETATM   11  C11 UNK     1      17.088   1.191  34.995  1.00  0.00     0.039 A 
ENDROOT
BRANCH   5  12
HETATM   12  C8  UNK     1      20.192  -4.345  36.217  1.00  0.00     0.262 C 
HETATM   13  O3  UNK     1      21.238  -4.343  36.864  1.00  0.00    -0.267 OA
HETATM   14  N1  UNK     1      19.383  -5.428  35.901  1.00  0.00    -0.323 N 
HETATM   15  H5  UNK     1      18.532  -5.256  35.370  1.00  0.00     0.169 HD
BRANCH  14  16
HETATM   16  C10 UNK     1      19.580  -6.785  36.253  1.00  0.00     0.036 A 
HETATM   17  C12 UNK     1      20.437  -7.564  35.494  1.00  0.00     0.056 A 
HETATM   18  C15 UNK     1      20.631  -8.901  35.841  1.00  0.00     0.069 A 
HETATM   19  C14 UNK     1      19.965  -9.438  36.943  1.00  0.00     0.090 A 
HETATM   20 Cl1  UNK     1      21.700  -9.866  34.892  1.00  0.00    -0.081 Cl
HETATM   21  C16 UNK     1      19.104  -8.639  37.697  1.00  0.00     0.041 A 
HETATM   22  C13 UNK     1      18.911  -7.303  37.349  1.00  0.00     0.032 A 
BRANCH  19  23
HETATM   23  O2  UNK     1      20.134 -10.741  37.305  1.00  0.00    -0.354 OA
HETATM   24  C17 UNK     1      19.509 -11.166  38.514  1.00  0.00     0.210 C 
ENDBRANCH  19  23
ENDBRANCH  14  16
ENDBRANCH   5  12
BRANCH   9  25
HETATM   25  N2  UNK     1      15.633   1.334  36.945  1.00  0.00    -0.116 N 
HETATM   26  O5  UNK     1      14.426   1.108  36.687  1.00  0.00    -0.532 OA
HETATM   27  O6  UNK     1      15.983   2.142  37.839  1.00  0.00    -0.532 OA
ENDBRANCH   9  25
TORSDOF 4
ENDMDL
MODEL 7
REMARK VINA RESULT:      -8.6      3.281      4.191
REMARK  4 active torsions:
REMARK  status: ('A' for Active; 'I' for Inactive)
REMARK    1  A    between atoms: C14_23  and  O2_3 
REMARK    2  A    between atoms: C10_19  and  N1_8 
REMARK       I    between atoms: C8_17  and  N1_8 
REMARK    3  A    between atoms: C7_16  and  N2_9 
REMARK    4  A    between atoms: C3_12  and  C8_17 
ROOT
HETATM    1  O1  UNK     1      18.314   1.035  32.313  1.00  0.00    -0.274 OA
HETATM    2  O4  UNK     1      18.392   2.619  30.668  1.00  0.00    -0.259 OA
HETATM    3  C1  UNK     1      18.206   1.726  34.642  1.00  0.00     0.001 A 
HETATM    4  C2  UNK     1      18.249   0.718  33.684  1.00  0.00     0.089 A 
HETATM    5  C3  UNK     1      18.289   3.409  32.900  1.00  0.00     0.108 A 
HETATM    6  C4  UNK     1      18.228   3.114  34.204  1.00  0.00     0.037 A 
HETATM    7  C5  UNK     1      18.142   1.373  35.992  1.00  0.00     0.050 A 
HETATM    8  C6  UNK     1      18.232  -0.630  34.038  1.00  0.00     0.041 A 
HETATM    9  C7  UNK     1      18.123   0.025  36.361  1.00  0.00     0.103 A 
HETATM   10  C9  UNK     1      18.337   2.352  31.864  1.00  0.00     0.304 A 
HETATM   11  C11 UNK     1      18.167  -0.974  35.386  1.00  0.00     0.039 A 
ENDROOT
BRANCH   5  12
HETATM   12  C8  UNK     1      18.307   4.836  32.558  1.00  0.00     0.262 C 
HETATM   13  O3  UNK     1      18.353   5.180  31.378  1.00  0.00    -0.267 OA
HETATM   14  N1  UNK     1      18.268   5.646  33.685  1.00  0.00    -0.323 N 
HETATM   15  H5  UNK     1      18.210   5.200  34.598  1.00  0.00     0.169 HD
BRANCH  14  16
HETATM   16  C10 UNK     1      18.272   7.061  33.732  1.00  0.00     0.036 A 
HETATM   17  C12 UNK     1      19.436   7.722  34.086  1.00  0.00     0.056 A 
HETATM   18  C15 UNK     1      19.441   9.116  34.133  1.00  0.00     0.069 A 
HETATM   19  C14 UNK     1      18.281   9.828  33.825  1.00  0.00     0.090 A 
HETATM   20 Cl1  UNK     1      20.894   9.935  34.574  1.00  0.00    -0.081 Cl
HETATM   21  C16 UNK     1      17.116   9.145  33.470  1.00  0.00     0.041 A 
HETATM   22  C13 UNK     1      17.113   7.752  33.424  1.00  0.00     0.032 A 
BRANCH  19  23
HETATM   23  O2  UNK     1      18.256  11.190  33.863  1.00  0.00    -0.354 OA
HETATM   24  C17 UNK     1      17.037  11.805  34.271  1.00  0.00     0.210 C 
ENDBRANCH  19  23
ENDBRANCH  14  16
ENDBRANCH   5  12
BRANCH   9  25
HETATM   25  N2  UNK     1      18.058  -0.332  37.734  1.00  0.00    -0.116 N 
HETATM   26  O5  UNK     1      18.157  -1.541  38.054  1.00  0.00    -0.532 OA
HETATM   27  O6  UNK     1      17.903   0.573  38.590  1.00  0.00    -0.532 OA
ENDBRANCH   9  25
TORSDOF 4
ENDMDL
MODEL 8
REMARK VINA RESULT:      -8.5      6.244     10.996
REMARK  4 active torsions:
REMARK  status: ('A' for Active; 'I' for Inactive)
REMARK    1  A    between atoms: C14_23  and  O2_3 
REMARK    2  A    between atoms: C10_19  and  N1_8 
REMARK       I    between atoms: C8_17  and  N1_8 
REMARK    3  A    between atoms: C7_16  and  N2_9 
REMARK    4  A    between atoms: C3_12  and  C8_17 
ROOT
HETATM    1  O1  UNK     1      18.699  -0.293  34.445  1.00  0.00    -0.274 OA
HETATM    2  O4  UNK     1      18.733  -1.247  36.521  1.00  0.00    -0.259 OA
HETATM    3  C1  UNK     1      19.846  -1.388  32.601  1.00  0.00     0.001 A 
HETATM    4  C2  UNK     1      19.078  -0.335  33.088  1.00  0.00     0.089 A 
HETATM    5  C3  UNK     1      19.885  -2.402  34.802  1.00  0.00     0.108 A 
HETATM    6  C4  UNK     1      20.249  -2.446  33.515  1.00  0.00     0.037 A 
HETATM    7  C5  UNK     1      20.203  -1.394  31.250  1.00  0.00     0.050 A 
HETATM    8  C6  UNK     1      18.661   0.710  32.266  1.00  0.00     0.041 A 
HETATM    9  C7  UNK     1      19.790  -0.353  30.414  1.00  0.00     0.103 A 
HETATM   10  C9  UNK     1      19.070  -1.290  35.342  1.00  0.00     0.304 A 
HETATM   11  C11 UNK     1      19.020   0.696  30.920  1.00  0.00     0.039 A 
ENDROOT
BRANCH   5  12
HETATM   12  C8  UNK     1      20.340  -3.514  35.644  1.00  0.00     0.262 C 
HETATM   13  O3  UNK     1      21.141  -3.304  36.553  1.00  0.00    -0.267 OA
HETATM   14  N1  UNK     1      19.767  -4.722  35.270  1.00  0.00    -0.323 N 
HETATM   15  H5  UNK     1      19.100  -4.724  34.502  1.00  0.00     0.169 HD
BRANCH  14  16
HETATM   16  C10 UNK     1      19.976  -5.995  35.855  1.00  0.00     0.036 A 
HETATM   17  C12 UNK     1      19.841  -6.141  37.225  1.00  0.00     0.056 A 
HETATM   18  C15 UNK     1      20.047  -7.394  37.801  1.00  0.00     0.069 A 
HETATM   19  C14 UNK     1      20.385  -8.483  36.997  1.00  0.00     0.090 A 
HETATM   20 Cl1  UNK     1      19.876  -7.570  39.508  1.00  0.00    -0.081 Cl
HETATM   21  C16 UNK     1      20.518  -8.319  35.618  1.00  0.00     0.041 A 
HETATM   22  C13 UNK     1      20.312  -7.065  35.043  1.00  0.00     0.032 A 
BRANCH  19  23
HETATM   23  O2  UNK     1      20.593  -9.719  37.532  1.00  0.00    -0.354 OA
HETATM   24  C17 UNK     1      19.505 -10.638  37.486  1.00  0.00     0.210 C 
ENDBRANCH  19  23
ENDBRANCH  14  16
ENDBRANCH   5  12
BRANCH   9  25
HETATM   25  N2  UNK     1      20.154  -0.363  29.041  1.00  0.00    -0.116 N 
HETATM   26  O5  UNK     1      19.366   0.132  28.199  1.00  0.00    -0.532 OA
HETATM   27  O6  UNK     1      21.255  -0.864  28.708  1.00  0.00    -0.532 OA
ENDBRANCH   9  25
TORSDOF 4
ENDMDL
MODEL 9
REMARK VINA RESULT:      -8.4     14.949     17.512
REMARK  4 active torsions:
REMARK  status: ('A' for Active; 'I' for Inactive)
REMARK    1  A    between atoms: C14_23  and  O2_3 
REMARK    2  A    between atoms: C10_19  and  N1_8 
REMARK       I    between atoms: C8_17  and  N1_8 
REMARK    3  A    between atoms: C7_16  and  N2_9 
REMARK    4  A    between atoms: C3_12  and  C8_17 
ROOT
HETATM    1  O1  UNK     1      18.198  -5.100  13.881  1.00  0.00    -0.274 OA
HETATM    2  O4  UNK     1      17.183  -4.864  15.915  1.00  0.00    -0.259 OA
HETATM    3  C1  UNK     1      19.340  -3.200  12.882  1.00  0.00     0.001 A 
HETATM    4  C2  UNK     1      18.945  -4.532  12.830  1.00  0.00     0.089 A 
HETATM    5  C3  UNK     1      18.263  -2.946  15.038  1.00  0.00     0.108 A 
HETATM    6  C4  UNK     1      18.971  -2.401  14.042  1.00  0.00     0.037 A 
HETATM    7  C5  UNK     1      20.078  -2.672  11.820  1.00  0.00     0.050 A 
HETATM    8  C6  UNK     1      19.265  -5.350  11.747  1.00  0.00     0.041 A 
HETATM    9  C7  UNK     1      20.408  -3.481  10.728  1.00  0.00     0.103 A 
HETATM   10  C9  UNK     1      17.831  -4.362  15.003  1.00  0.00     0.304 A 
HETATM   11  C11 UNK     1      20.002  -4.817  10.692  1.00  0.00     0.039 A 
ENDROOT
BRANCH   5  12
HETATM   12  C8  UNK     1      17.940  -2.061  16.164  1.00  0.00     0.262 C 
HETATM   13  O3  UNK     1      16.820  -2.101  16.670  1.00  0.00    -0.267 OA
HETATM   14  N1  UNK     1      19.012  -1.253  16.519  1.00  0.00    -0.323 N 
HETATM   15  H5  UNK     1      19.886  -1.358  16.009  1.00  0.00     0.169 HD
BRANCH  14  16
HETATM   16  C10 UNK     1      19.058  -0.285  17.551  1.00  0.00     0.036 A 
HETATM   17  C12 UNK     1      19.131   1.057  17.217  1.00  0.00     0.056 A 
HETATM   18  C15 UNK     1      19.177   2.011  18.234  1.00  0.00     0.069 A 
HETATM   19  C14 UNK     1      19.149   1.608  19.569  1.00  0.00     0.090 A 
HETATM   20 Cl1  UNK     1      19.267   3.681  17.812  1.00  0.00    -0.081 Cl
HETATM   21  C16 UNK     1      19.076   0.251  19.888  1.00  0.00     0.041 A 
HETATM   22  C13 UNK     1      19.030  -0.701  18.871  1.00  0.00     0.032 A 
BRANCH  19  23
HETATM   23  O2  UNK     1      19.193   2.517  20.583  1.00  0.00    -0.354 OA
HETATM   24  C17 UNK     1      19.828   2.110  21.793  1.00  0.00     0.210 C 
ENDBRANCH  19  23
ENDBRANCH  14  16
ENDBRANCH   5  12
BRANCH   9  25
HETATM   25  N2  UNK     1      21.159  -2.942   9.650  1.00  0.00    -0.116 N 
HETATM   26  O5  UNK     1      21.393  -1.710   9.628  1.00  0.00    -0.532 OA
HETATM   27  O6  UNK     1      21.568  -3.714   8.749  1.00  0.00    -0.532 OA
ENDBRANCH   9  25
TORSDOF 4
ENDMDL
MODEL 10
REMARK VINA RESULT:      -8.4      6.873     11.560
REMARK  4 active torsions:
REMARK  status: ('A' for Active; 'I' for Inactive)
REMARK    1  A    between atoms: C14_23  and  O2_3 
REMARK    2  A    between atoms: C10_19  and  N1_8 
REMARK       I    between atoms: C8_17  and  N1_8 
REMARK    3  A    between atoms: C7_16  and  N2_9 
REMARK    4  A    between atoms: C3_12  and  C8_17 
ROOT
HETATM    1  O1  UNK     1      18.272  -0.229  36.580  1.00  0.00    -0.274 OA
HETATM    2  O4  UNK     1      18.586  -1.801  38.209  1.00  0.00    -0.259 OA
HETATM    3  C1  UNK     1      18.952  -0.714  34.297  1.00  0.00     0.001 A 
HETATM    4  C2  UNK     1      18.394   0.154  35.230  1.00  0.00     0.089 A 
HETATM    5  C3  UNK     1      19.287  -2.383  36.022  1.00  0.00     0.108 A 
HETATM    6  C4  UNK     1      19.406  -2.024  34.737  1.00  0.00     0.037 A 
HETATM    7  C5  UNK     1      19.056  -0.298  32.967  1.00  0.00     0.050 A 
HETATM    8  C6  UNK     1      17.941   1.422  34.873  1.00  0.00     0.041 A 
HETATM    9  C7  UNK     1      18.604   0.971  32.594  1.00  0.00     0.103 A 
HETATM   10  C9  UNK     1      18.698  -1.475  37.032  1.00  0.00     0.304 A 
HETATM   11  C11 UNK     1      18.048   1.829  33.545  1.00  0.00     0.039 A 
ENDROOT
BRANCH   5  12
HETATM   12  C8  UNK     1      19.774  -3.723  36.368  1.00  0.00     0.262 C 
HETATM   13  O3  UNK     1      20.979  -3.914  36.521  1.00  0.00    -0.267 OA
HETATM   14  N1  UNK     1      18.740  -4.643  36.480  1.00  0.00    -0.323 N 
HETATM   15  H5  UNK     1      17.786  -4.317  36.342  1.00  0.00     0.169 HD
BRANCH  14  16
HETATM   16  C10 UNK     1      18.840  -6.019  36.798  1.00  0.00     0.036 A 
HETATM   17  C12 UNK     1      19.472  -6.400  37.970  1.00  0.00     0.056 A 
HETATM   18  C15 UNK     1      19.570  -7.756  38.282  1.00  0.00     0.069 A 
HETATM   19  C14 UNK     1      19.034  -8.711  37.418  1.00  0.00     0.090 A 
HETATM   20 Cl1  UNK     1      20.358  -8.223  39.743  1.00  0.00    -0.081 Cl
HETATM   21  C16 UNK     1      18.400  -8.310  36.241  1.00  0.00     0.041 A 
HETATM   22  C13 UNK     1      18.303  -6.955  35.929  1.00  0.00     0.032 A 
BRANCH  19  23
HETATM   23  O2  UNK     1      19.116 -10.042  37.697  1.00  0.00    -0.354 OA
HETATM   24  C17 UNK     1      20.203 -10.761  37.120  1.00  0.00     0.210 C 
ENDBRANCH  19  23
ENDBRANCH  14  16
ENDBRANCH   5  12
BRANCH   9  25
HETATM   25  N2  UNK     1      18.711   1.391  31.241  1.00  0.00    -0.116 N 
HETATM   26  O5  UNK     1      17.861   2.192  30.784  1.00  0.00    -0.532 OA
HETATM   27  O6  UNK     1      19.655   0.949  30.541  1.00  0.00    -0.532 OA
ENDBRANCH   9  25
TORSDOF 4
ENDMDL
