MODEL 1
REMARK VINA RESULT:      -8.2      0.000      0.000
REMARK  7 active torsions:
REMARK  status: ('A' for Active; 'I' for Inactive)
REMARK    1  A    between atoms: C4_8  and  N1_4 
REMARK       I    between atoms: C9_13  and  N1_4 
REMARK    2  A    between atoms: C1_5  and  C2_6 
REMARK    3  A    between atoms: C1_5  and  C3_7 
REMARK    4  A    between atoms: C1_5  and  C4_8 
REMARK    5  A    between atoms: C2_6  and  C5_9 
REMARK    6  A    between atoms: C5_9  and  C6_10 
REMARK    7  A    between atoms: C10_14  and  C9_13 
ROOT
HETATM    1  O2  UNK     1      18.051   3.206  28.680  1.00  0.00    -0.267 OA
HETATM    2  N1  UNK     1      19.171   4.243  30.443  1.00  0.00    -0.356 N 
HETATM    3  C9  UNK     1      18.675   3.161  29.735  1.00  0.00     0.257 C 
HETATM    4  H15 UNK     1      19.734   4.087  31.273  1.00  0.00     0.162 HD
ENDROOT
BRANCH   3   5
HETATM    5  C10 UNK     1      18.973   1.868  30.378  1.00  0.00     0.108 A 
HETATM    6  C11 UNK     1      19.606   0.964  29.621  1.00  0.00     0.037 A 
HETATM    7  C12 UNK     1      19.943  -0.341  30.167  1.00  0.00    -0.001 A 
HETATM    8  C14 UNK     1      19.594  -0.631  31.483  1.00  0.00     0.089 A 
HETATM    9  C15 UNK     1      20.604  -1.316  29.415  1.00  0.00     0.014 A 
HETATM   10  O1  UNK     1      18.929   0.325  32.274  1.00  0.00    -0.274 OA
HETATM   11  C16 UNK     1      19.887  -1.862  32.065  1.00  0.00     0.038 A 
HETATM   12  C13 UNK     1      18.593   1.582  31.780  1.00  0.00     0.304 A 
HETATM   13  O3  UNK     1      18.012   2.408  32.474  1.00  0.00    -0.259 OA
HETATM   14  C18 UNK     1      20.547  -2.828  31.309  1.00  0.00     0.003 A 
HETATM   15  C17 UNK     1      20.905  -2.556  29.986  1.00  0.00     0.001 A 
ENDBRANCH   3   5
BRANCH   2  16
HETATM   16  C4  UNK     1      19.007   5.605  30.013  1.00  0.00     0.127 C 
BRANCH  16  17
HETATM   17  C1  UNK     1      18.838   6.604  31.170  1.00  0.00     0.003 C 
BRANCH  17  18
HETATM   18  C2  UNK     1      17.380   7.092  31.349  1.00  0.00     0.006 C 
BRANCH  18  19
HETATM   19  C5  UNK     1      16.606   6.501  32.534  1.00  0.00     0.000 C 
BRANCH  19  20
HETATM   20  C6  UNK     1      16.118   7.554  33.529  1.00  0.00    -0.005 C 
HETATM   21  C8  UNK     1      16.756   7.362  34.896  1.00  0.00     0.005 C 
ENDBRANCH  19  20
ENDBRANCH  18  19
ENDBRANCH  17  18
BRANCH  17  22
HETATM   22  C3  UNK     1      19.349   6.053  32.520  1.00  0.00     0.002 C 
HETATM   23  C7  UNK     1      20.374   6.948  33.204  1.00  0.00     0.005 C 
ENDBRANCH  17  22
ENDBRANCH  16  17
ENDBRANCH   2  16
TORSDOF 7
ENDMDL
MODEL 2
REMARK VINA RESULT:      -8.1      1.663      2.826
REMARK  7 active torsions:
REMARK  status: ('A' for Active; 'I' for Inactive)
REMARK    1  A    between atoms: C4_8  and  N1_4 
REMARK       I    between atoms: C9_13  and  N1_4 
REMARK    2  A    between atoms: C1_5  and  C2_6 
REMARK    3  A    between atoms: C1_5  and  C3_7 
REMARK    4  A    between atoms: C1_5  and  C4_8 
REMARK    5  A    between atoms: C2_6  and  C5_9 
REMARK    6  A    between atoms: C5_9  and  C6_10 
REMARK    7  A    between atoms: C10_14  and  C9_13 
ROOT
HETATM    1  O2  UNK     1      17.240   4.125  31.490  1.00  0.00    -0.267 OA
HETATM    2  N1  UNK     1      18.377   4.094  33.525  1.00  0.00    -0.356 N 
HETATM    3  C9  UNK     1      17.950   3.566  32.319  1.00  0.00     0.257 C 
HETATM    4  H15 UNK     1      19.021   3.568  34.107  1.00  0.00     0.162 HD
ENDROOT
BRANCH   3   5
HETATM    5  C10 UNK     1      18.445   2.197  32.083  1.00  0.00     0.108 A 
HETATM    6  C11 UNK     1      18.928   1.945  30.862  1.00  0.00     0.037 A 
HETATM    7  C12 UNK     1      19.439   0.623  30.534  1.00  0.00    -0.001 A 
HETATM    8  C14 UNK     1      19.415  -0.369  31.510  1.00  0.00     0.089 A 
HETATM    9  C15 UNK     1      19.953   0.314  29.272  1.00  0.00     0.014 A 
HETATM   10  O1  UNK     1      18.906  -0.097  32.794  1.00  0.00    -0.274 OA
HETATM   11  C16 UNK     1      19.889  -1.655  31.260  1.00  0.00     0.038 A 
HETATM   12  C13 UNK     1      18.410   1.158  33.137  1.00  0.00     0.304 A 
HETATM   13  O3  UNK     1      17.968   1.385  34.258  1.00  0.00    -0.259 OA
HETATM   14  C18 UNK     1      20.400  -1.954  29.999  1.00  0.00     0.003 A 
HETATM   15  C17 UNK     1      20.432  -0.972  29.007  1.00  0.00     0.001 A 
ENDBRANCH   3   5
BRANCH   2  16
HETATM   16  C4  UNK     1      18.024   5.414  33.973  1.00  0.00     0.127 C 
BRANCH  16  17
HETATM   17  C1  UNK     1      19.197   6.409  33.954  1.00  0.00     0.003 C 
BRANCH  17  18
HETATM   18  C2  UNK     1      19.599   6.855  32.528  1.00  0.00     0.006 C 
BRANCH  18  19
HETATM   19  C5  UNK     1      20.703   6.037  31.846  1.00  0.00     0.000 C 
BRANCH  19  20
HETATM   20  C6  UNK     1      20.398   5.698  30.387  1.00  0.00    -0.005 C 
HETATM   21  C8  UNK     1      19.025   6.208  29.975  1.00  0.00     0.005 C 
ENDBRANCH  19  20
ENDBRANCH  18  19
ENDBRANCH  17  18
BRANCH  17  22
HETATM   22  C3  UNK     1      18.932   7.667  34.813  1.00  0.00     0.002 C 
HETATM   23  C7  UNK     1      19.811   8.857  34.453  1.00  0.00     0.005 C 
ENDBRANCH  17  22
ENDBRANCH  16  17
ENDBRANCH   2  16
TORSDOF 7
ENDMDL
MODEL 3
REMARK VINA RESULT:      -7.9      1.474      2.470
REMARK  7 active torsions:
REMARK  status: ('A' for Active; 'I' for Inactive)
REMARK    1  A    between atoms: C4_8  and  N1_4 
REMARK       I    between atoms: C9_13  and  N1_4 
REMARK    2  A    between atoms: C1_5  and  C2_6 
REMARK    3  A    between atoms: C1_5  and  C3_7 
REMARK    4  A    between atoms: C1_5  and  C4_8 
REMARK    5  A    between atoms: C2_6  and  C5_9 
REMARK    6  A    between atoms: C5_9  and  C6_10 
REMARK    7  A    between atoms: C10_14  and  C9_13 
ROOT
HETATM    1  O2  UNK     1      17.601   3.397  32.050  1.00  0.00    -0.267 OA
HETATM    2  N1  UNK     1      18.757   4.431  30.308  1.00  0.00    -0.356 N 
HETATM    3  C9  UNK     1      18.305   3.350  31.046  1.00  0.00     0.257 C 
HETATM    4  H15 UNK     1      19.279   4.275  29.452  1.00  0.00     0.162 HD
ENDROOT
BRANCH   3   5
HETATM    5  C10 UNK     1      18.753   2.055  30.502  1.00  0.00     0.108 A 
HETATM    6  C11 UNK     1      19.269   1.191  31.383  1.00  0.00     0.037 A 
HETATM    7  C12 UNK     1      19.739  -0.113  30.941  1.00  0.00    -0.001 A 
HETATM    8  C14 UNK     1      19.643  -0.442  29.592  1.00  0.00     0.089 A 
HETATM    9  C15 UNK     1      20.285  -1.047  31.825  1.00  0.00     0.014 A 
HETATM   10  O1  UNK     1      19.098   0.472  28.670  1.00  0.00    -0.274 OA
HETATM   11  C16 UNK     1      20.075  -1.673  29.104  1.00  0.00     0.038 A 
HETATM   12  C13 UNK     1      18.640   1.727  29.063  1.00  0.00     0.304 A 
HETATM   13  O3  UNK     1      18.168   2.517  28.253  1.00  0.00    -0.259 OA
HETATM   14  C18 UNK     1      20.618  -2.599  29.993  1.00  0.00     0.003 A 
HETATM   15  C17 UNK     1      20.723  -2.287  31.350  1.00  0.00     0.001 A 
ENDBRANCH   3   5
BRANCH   2  16
HETATM   16  C4  UNK     1      18.447   5.795  30.643  1.00  0.00     0.127 C 
BRANCH  16  17
HETATM   17  C1  UNK     1      19.514   6.475  31.518  1.00  0.00     0.003 C 
BRANCH  17  18
HETATM   18  C2  UNK     1      19.147   6.502  33.021  1.00  0.00     0.006 C 
BRANCH  18  19
HETATM   19  C5  UNK     1      18.801   7.873  33.613  1.00  0.00     0.000 C 
BRANCH  19  20
HETATM   20  C6  UNK     1      19.776   8.333  34.696  1.00  0.00    -0.005 C 
HETATM   21  C8  UNK     1      20.217   9.771  34.470  1.00  0.00     0.005 C 
ENDBRANCH  19  20
ENDBRANCH  18  19
ENDBRANCH  17  18
BRANCH  17  22
HETATM   22  C3  UNK     1      20.915   5.844  31.358  1.00  0.00     0.002 C 
HETATM   23  C7  UNK     1      21.869   6.159  32.503  1.00  0.00     0.005 C 
ENDBRANCH  17  22
ENDBRANCH  16  17
ENDBRANCH   2  16
TORSDOF 7
ENDMDL
MODEL 4
REMARK VINA RESULT:      -7.8      1.350      1.812
REMARK  7 active torsions:
REMARK  status: ('A' for Active; 'I' for Inactive)
REMARK    1  A    between atoms: C4_8  and  N1_4 
REMARK       I    between atoms: C9_13  and  N1_4 
REMARK    2  A    between atoms: C1_5  and  C2_6 
REMARK    3  A    between atoms: C1_5  and  C3_7 
REMARK    4  A    between atoms: C1_5  and  C4_8 
REMARK    5  A    between atoms: C2_6  and  C5_9 
REMARK    6  A    between atoms: C5_9  and  C6_10 
REMARK    7  A    between atoms: C10_14  and  C9_13 
ROOT
HETATM    1  O2  UNK     1      18.725   4.548  30.086  1.00  0.00    -0.267 OA
HETATM    2  N1  UNK     1      17.583   4.456  32.118  1.00  0.00    -0.356 N 
HETATM    3  C9  UNK     1      18.340   3.940  31.080  1.00  0.00     0.257 C 
HETATM    4  H15 UNK     1      17.377   3.880  32.927  1.00  0.00     0.162 HD
ENDROOT
BRANCH   3   5
HETATM    5  C10 UNK     1      18.676   2.516  31.267  1.00  0.00     0.108 A 
HETATM    6  C11 UNK     1      19.217   1.894  30.213  1.00  0.00     0.037 A 
HETATM    7  C12 UNK     1      19.583   0.489  30.301  1.00  0.00    -0.001 A 
HETATM    8  C14 UNK     1      19.359  -0.192  31.495  1.00  0.00     0.089 A 
HETATM    9  C15 UNK     1      20.150  -0.203  29.228  1.00  0.00     0.014 A 
HETATM   10  O1  UNK     1      18.790   0.470  32.599  1.00  0.00    -0.274 OA
HETATM   11  C16 UNK     1      19.686  -1.538  31.644  1.00  0.00     0.038 A 
HETATM   12  C13 UNK     1      18.430   1.813  32.546  1.00  0.00     0.304 A 
HETATM   13  O3  UNK     1      17.933   2.381  33.512  1.00  0.00    -0.259 OA
HETATM   14  C18 UNK     1      20.252  -2.220  30.569  1.00  0.00     0.003 A 
HETATM   15  C17 UNK     1      20.484  -1.554  29.363  1.00  0.00     0.001 A 
ENDBRANCH   3   5
BRANCH   2  16
HETATM   16  C4  UNK     1      17.136   5.822  32.159  1.00  0.00     0.127 C 
BRANCH  16  17
HETATM   17  C1  UNK     1      17.836   6.671  33.234  1.00  0.00     0.003 C 
BRANCH  17  18
HETATM   18  C2  UNK     1      16.948   6.944  34.472  1.00  0.00     0.006 C 
BRANCH  18  19
HETATM   19  C5  UNK     1      16.835   8.406  34.920  1.00  0.00     0.000 C 
BRANCH  19  20
HETATM   20  C6  UNK     1      17.118   9.409  33.802  1.00  0.00    -0.005 C 
HETATM   21  C8  UNK     1      18.463  10.092  33.998  1.00  0.00     0.005 C 
ENDBRANCH  19  20
ENDBRANCH  18  19
ENDBRANCH  17  18
BRANCH  17  22
HETATM   22  C3  UNK     1      19.175   6.060  33.705  1.00  0.00     0.002 C 
HETATM   23  C7  UNK     1      20.393   6.597  32.964  1.00  0.00     0.005 C 
ENDBRANCH  17  22
ENDBRANCH  16  17
ENDBRANCH   2  16
TORSDOF 7
ENDMDL
MODEL 5
REMARK VINA RESULT:      -7.7      6.629     11.472
REMARK  7 active torsions:
REMARK  status: ('A' for Active; 'I' for Inactive)
REMARK    1  A    between atoms: C4_8  and  N1_4 
REMARK       I    between atoms: C9_13  and  N1_4 
REMARK    2  A    between atoms: C1_5  and  C2_6 
REMARK    3  A    between atoms: C1_5  and  C3_7 
REMARK    4  A    between atoms: C1_5  and  C4_8 
REMARK    5  A    between atoms: C2_6  and  C5_9 
REMARK    6  A    between atoms: C5_9  and  C6_10 
REMARK    7  A    between atoms: C10_14  and  C9_13 
ROOT
HETATM    1  O2  UNK     1      20.747  -4.295  37.700  1.00  0.00    -0.267 OA
HETATM    2  N1  UNK     1      19.731  -5.093  35.758  1.00  0.00    -0.356 N 
HETATM    3  C9  UNK     1      20.110  -4.119  36.666  1.00  0.00     0.257 C 
HETATM    4  H15 UNK     1      19.263  -4.826  34.898  1.00  0.00     0.162 HD
ENDROOT
BRANCH   3   5
HETATM    5  C10 UNK     1      19.670  -2.767  36.276  1.00  0.00     0.108 A 
HETATM    6  C11 UNK     1      18.955  -2.093  37.185  1.00  0.00     0.037 A 
HETATM    7  C12 UNK     1      18.476  -0.751  36.891  1.00  0.00    -0.001 A 
HETATM    8  C14 UNK     1      18.772  -0.186  35.654  1.00  0.00     0.089 A 
HETATM    9  C15 UNK     1      17.728  -0.010  37.808  1.00  0.00     0.014 A 
HETATM   10  O1  UNK     1      19.525  -0.901  34.703  1.00  0.00    -0.274 OA
HETATM   11  C16 UNK     1      18.342   1.094  35.311  1.00  0.00     0.038 A 
HETATM   12  C13 UNK     1      19.997  -2.186  34.954  1.00  0.00     0.304 A 
HETATM   13  O3  UNK     1      20.650  -2.801  34.120  1.00  0.00    -0.259 OA
HETATM   14  C18 UNK     1      17.597   1.827  36.232  1.00  0.00     0.003 A 
HETATM   15  C17 UNK     1      17.290   1.276  37.478  1.00  0.00     0.001 A 
ENDBRANCH   3   5
BRANCH   2  16
HETATM   16  C4  UNK     1      20.049  -6.486  35.923  1.00  0.00     0.127 C 
BRANCH  16  17
HETATM   17  C1  UNK     1      18.940  -7.296  36.617  1.00  0.00     0.003 C 
BRANCH  17  18
HETATM   18  C2  UNK     1      19.096  -7.354  38.155  1.00  0.00     0.006 C 
BRANCH  18  19
HETATM   19  C5  UNK     1      19.578  -8.687  38.740  1.00  0.00     0.000 C 
BRANCH  19  20
HETATM   20  C6  UNK     1      19.011  -9.910  38.019  1.00  0.00    -0.005 C 
HETATM   21  C8  UNK     1      20.122 -10.803  37.487  1.00  0.00     0.005 C 
ENDBRANCH  19  20
ENDBRANCH  18  19
ENDBRANCH  17  18
BRANCH  17  22
HETATM   22  C3  UNK     1      17.521  -6.785  36.279  1.00  0.00     0.002 C 
HETATM   23  C7  UNK     1      16.854  -7.531  35.131  1.00  0.00     0.005 C 
ENDBRANCH  17  22
ENDBRANCH  16  17
ENDBRANCH   2  16
TORSDOF 7
ENDMDL
MODEL 6
REMARK VINA RESULT:      -7.5      3.080      4.404
REMARK  7 active torsions:
REMARK  status: ('A' for Active; 'I' for Inactive)
REMARK    1  A    between atoms: C4_8  and  N1_4 
REMARK       I    between atoms: C9_13  and  N1_4 
REMARK    2  A    between atoms: C1_5  and  C2_6 
REMARK    3  A    between atoms: C1_5  and  C3_7 
REMARK    4  A    between atoms: C1_5  and  C4_8 
REMARK    5  A    between atoms: C2_6  and  C5_9 
REMARK    6  A    between atoms: C5_9  and  C6_10 
REMARK    7  A    between atoms: C10_14  and  C9_13 
ROOT
HETATM    1  O2  UNK     1      17.677   2.843  31.260  1.00  0.00    -0.267 OA
HETATM    2  N1  UNK     1      17.992   4.303  33.051  1.00  0.00    -0.356 N 
HETATM    3  C9  UNK     1      17.897   3.061  32.447  1.00  0.00     0.257 C 
HETATM    4  H15 UNK     1      18.246   4.369  34.032  1.00  0.00     0.162 HD
ENDROOT
BRANCH   3   5
HETATM    5  C10 UNK     1      18.097   1.945  33.391  1.00  0.00     0.108 A 
HETATM    6  C11 UNK     1      17.751   2.178  34.662  1.00  0.00     0.037 A 
HETATM    7  C12 UNK     1      17.912   1.138  35.667  1.00  0.00    -0.001 A 
HETATM    8  C14 UNK     1      18.430  -0.095  35.283  1.00  0.00     0.089 A 
HETATM    9  C15 UNK     1      17.564   1.335  37.005  1.00  0.00     0.014 A 
HETATM   10  O1  UNK     1      18.791  -0.333  33.943  1.00  0.00    -0.274 OA
HETATM   11  C16 UNK     1      18.609  -1.132  36.196  1.00  0.00     0.038 A 
HETATM   12  C13 UNK     1      18.649   0.641  32.959  1.00  0.00     0.304 A 
HETATM   13  O3  UNK     1      18.967   0.426  31.795  1.00  0.00    -0.259 OA
HETATM   14  C18 UNK     1      18.259  -0.927  37.529  1.00  0.00     0.003 A 
HETATM   15  C17 UNK     1      17.738   0.304  37.933  1.00  0.00     0.001 A 
ENDBRANCH   3   5
BRANCH   2  16
HETATM   16  C4  UNK     1      17.836   5.539  32.334  1.00  0.00     0.127 C 
BRANCH  16  17
HETATM   17  C1  UNK     1      19.110   6.400  32.299  1.00  0.00     0.003 C 
BRANCH  17  18
HETATM   18  C2  UNK     1      19.764   6.582  33.689  1.00  0.00     0.006 C 
BRANCH  18  19
HETATM   19  C5  UNK     1      19.050   7.532  34.658  1.00  0.00     0.000 C 
BRANCH  19  20
HETATM   20  C6  UNK     1      19.192   9.007  34.282  1.00  0.00    -0.005 C 
HETATM   21  C8  UNK     1      20.614   9.499  34.501  1.00  0.00     0.005 C 
ENDBRANCH  19  20
ENDBRANCH  18  19
ENDBRANCH  17  18
BRANCH  17  22
HETATM   22  C3  UNK     1      20.173   5.862  31.314  1.00  0.00     0.002 C 
HETATM   23  C7  UNK     1      19.701   5.804  29.867  1.00  0.00     0.005 C 
ENDBRANCH  17  22
ENDBRANCH  16  17
ENDBRANCH   2  16
TORSDOF 7
ENDMDL
MODEL 7
REMARK VINA RESULT:      -7.5      6.958     11.725
REMARK  7 active torsions:
REMARK  status: ('A' for Active; 'I' for Inactive)
REMARK    1  A    between atoms: C4_8  and  N1_4 
REMARK       I    between atoms: C9_13  and  N1_4 
REMARK    2  A    between atoms: C1_5  and  C2_6 
REMARK    3  A    between atoms: C1_5  and  C3_7 
REMARK    4  A    between atoms: C1_5  and  C4_8 
REMARK    5  A    between atoms: C2_6  and  C5_9 
REMARK    6  A    between atoms: C5_9  and  C6_10 
REMARK    7  A    between atoms: C10_14  and  C9_13 
ROOT
HETATM    1  O2  UNK     1      21.293  -4.234  37.222  1.00  0.00    -0.267 OA
HETATM    2  N1  UNK     1      19.356  -5.170  36.322  1.00  0.00    -0.356 N 
HETATM    3  C9  UNK     1      20.212  -4.133  36.652  1.00  0.00     0.257 C 
HETATM    4  H15 UNK     1      18.515  -4.979  35.788  1.00  0.00     0.162 HD
ENDROOT
BRANCH   3   5
HETATM    5  C10 UNK     1      19.702  -2.812  36.239  1.00  0.00     0.108 A 
HETATM    6  C11 UNK     1      19.004  -2.135  37.157  1.00  0.00     0.037 A 
HETATM    7  C12 UNK     1      18.460  -0.823  36.842  1.00  0.00    -0.001 A 
HETATM    8  C14 UNK     1      18.677  -0.290  35.575  1.00  0.00     0.089 A 
HETATM    9  C15 UNK     1      17.725  -0.079  37.768  1.00  0.00     0.014 A 
HETATM   10  O1  UNK     1      19.414  -1.008  34.614  1.00  0.00    -0.274 OA
HETATM   11  C16 UNK     1      18.183   0.961  35.210  1.00  0.00     0.038 A 
HETATM   12  C13 UNK     1      19.947  -2.265  34.885  1.00  0.00     0.304 A 
HETATM   13  O3  UNK     1      20.586  -2.884  34.042  1.00  0.00    -0.259 OA
HETATM   14  C18 UNK     1      17.451   1.696  36.140  1.00  0.00     0.003 A 
HETATM   15  C17 UNK     1      17.223   1.178  37.417  1.00  0.00     0.001 A 
ENDBRANCH   3   5
BRANCH   2  16
HETATM   16  C4  UNK     1      19.640  -6.547  36.621  1.00  0.00     0.127 C 
BRANCH  16  17
HETATM   17  C1  UNK     1      19.032  -7.030  37.950  1.00  0.00     0.003 C 
BRANCH  17  18
HETATM   18  C2  UNK     1      18.715  -8.545  37.962  1.00  0.00     0.006 C 
BRANCH  18  19
HETATM   19  C5  UNK     1      19.343  -9.381  36.840  1.00  0.00     0.000 C 
BRANCH  19  20
HETATM   20  C6  UNK     1      19.759 -10.783  37.284  1.00  0.00    -0.005 C 
HETATM   21  C8  UNK     1      19.425 -11.022  38.748  1.00  0.00     0.005 C 
ENDBRANCH  19  20
ENDBRANCH  18  19
ENDBRANCH  17  18
BRANCH  17  22
HETATM   22  C3  UNK     1      19.916  -6.695  39.172  1.00  0.00     0.002 C 
HETATM   23  C7  UNK     1      21.282  -7.368  39.150  1.00  0.00     0.005 C 
ENDBRANCH  17  22
ENDBRANCH  16  17
ENDBRANCH   2  16
TORSDOF 7
ENDMDL
MODEL 8
REMARK VINA RESULT:      -7.2      5.112      9.979
REMARK  7 active torsions:
REMARK  status: ('A' for Active; 'I' for Inactive)
REMARK    1  A    between atoms: C4_8  and  N1_4 
REMARK       I    between atoms: C9_13  and  N1_4 
REMARK    2  A    between atoms: C1_5  and  C2_6 
REMARK    3  A    between atoms: C1_5  and  C3_7 
REMARK    4  A    between atoms: C1_5  and  C4_8 
REMARK    5  A    between atoms: C2_6  and  C5_9 
REMARK    6  A    between atoms: C5_9  and  C6_10 
REMARK    7  A    between atoms: C10_14  and  C9_13 
ROOT
HETATM    1  O2  UNK     1      21.051  -2.585  36.382  1.00  0.00    -0.267 OA
HETATM    2  N1  UNK     1      19.528  -4.154  35.571  1.00  0.00    -0.356 N 
HETATM    3  C9  UNK     1      20.240  -2.966  35.545  1.00  0.00     0.257 C 
HETATM    4  H15 UNK     1      18.931  -4.401  34.788  1.00  0.00     0.162 HD
ENDROOT
BRANCH   3   5
HETATM    5  C10 UNK     1      19.939  -2.141  34.360  1.00  0.00     0.108 A 
HETATM    6  C11 UNK     1      20.457  -2.560  33.200  1.00  0.00     0.037 A 
HETATM    7  C12 UNK     1      20.214  -1.811  31.977  1.00  0.00    -0.001 A 
HETATM    8  C14 UNK     1      19.439  -0.657  32.036  1.00  0.00     0.089 A 
HETATM    9  C15 UNK     1      20.734  -2.211  30.744  1.00  0.00     0.014 A 
HETATM   10  O1  UNK     1      18.897  -0.222  33.261  1.00  0.00    -0.274 OA
HETATM   11  C16 UNK     1      19.171   0.105  30.902  1.00  0.00     0.038 A 
HETATM   12  C13 UNK     1      19.111  -0.917  34.447  1.00  0.00     0.304 A 
HETATM   13  O3  UNK     1      18.636  -0.530  35.509  1.00  0.00    -0.259 OA
HETATM   14  C18 UNK     1      19.692  -0.301  29.675  1.00  0.00     0.003 A 
HETATM   15  C17 UNK     1      20.473  -1.457  29.596  1.00  0.00     0.001 A 
ENDBRANCH   3   5
BRANCH   2  16
HETATM   16  C4  UNK     1      19.656  -5.122  36.625  1.00  0.00     0.127 C 
BRANCH  16  17
HETATM   17  C1  UNK     1      18.708  -6.326  36.480  1.00  0.00     0.003 C 
BRANCH  17  18
HETATM   18  C2  UNK     1      19.029  -7.212  35.253  1.00  0.00     0.006 C 
BRANCH  18  19
HETATM   19  C5  UNK     1      20.514  -7.415  34.929  1.00  0.00     0.000 C 
BRANCH  19  20
HETATM   20  C6  UNK     1      21.048  -8.784  35.348  1.00  0.00    -0.005 C 
HETATM   21  C8  UNK     1      22.090  -8.660  36.449  1.00  0.00     0.005 C 
ENDBRANCH  19  20
ENDBRANCH  18  19
ENDBRANCH  17  18
BRANCH  17  22
HETATM   22  C3  UNK     1      18.670  -7.216  37.742  1.00  0.00     0.002 C 
HETATM   23  C7  UNK     1      19.776  -6.916  38.744  1.00  0.00     0.005 C 
ENDBRANCH  17  22
ENDBRANCH  16  17
ENDBRANCH   2  16
TORSDOF 7
ENDMDL
MODEL 9
REMARK VINA RESULT:      -7.1      3.434      7.360
REMARK  7 active torsions:
REMARK  status: ('A' for Active; 'I' for Inactive)
REMARK    1  A    between atoms: C4_8  and  N1_4 
REMARK       I    between atoms: C9_13  and  N1_4 
REMARK    2  A    between atoms: C1_5  and  C2_6 
REMARK    3  A    between atoms: C1_5  and  C3_7 
REMARK    4  A    between atoms: C1_5  and  C4_8 
REMARK    5  A    between atoms: C2_6  and  C5_9 
REMARK    6  A    between atoms: C5_9  and  C6_10 
REMARK    7  A    between atoms: C10_14  and  C9_13 
ROOT
HETATM    1  O2  UNK     1      16.713   0.749  34.093  1.00  0.00    -0.267 OA
HETATM    2  N1  UNK     1      18.903   0.112  33.610  1.00  0.00    -0.356 N 
HETATM    3  C9  UNK     1      17.822   0.976  33.621  1.00  0.00     0.257 C 
HETATM    4  H15 UNK     1      19.799   0.429  33.252  1.00  0.00     0.162 HD
ENDROOT
BRANCH   3   5
HETATM    5  C10 UNK     1      18.117   2.275  32.988  1.00  0.00     0.108 A 
HETATM    6  C11 UNK     1      18.116   3.340  33.797  1.00  0.00     0.037 A 
HETATM    7  C12 UNK     1      18.396   4.665  33.264  1.00  0.00    -0.001 A 
HETATM    8  C14 UNK     1      18.661   4.802  31.905  1.00  0.00     0.089 A 
HETATM    9  C15 UNK     1      18.408   5.805  34.071  1.00  0.00     0.014 A 
HETATM   10  O1  UNK     1      18.661   3.676  31.059  1.00  0.00    -0.274 OA
HETATM   11  C16 UNK     1      18.936   6.042  31.332  1.00  0.00     0.038 A 
HETATM   12  C13 UNK     1      18.396   2.396  31.539  1.00  0.00     0.304 A 
HETATM   13  O3  UNK     1      18.396   1.422  30.796  1.00  0.00    -0.259 OA
HETATM   14  C18 UNK     1      18.946   7.174  32.144  1.00  0.00     0.003 A 
HETATM   15  C17 UNK     1      18.682   7.057  33.510  1.00  0.00     0.001 A 
ENDBRANCH   3   5
BRANCH   2  16
HETATM   16  C4  UNK     1      18.857  -1.210  34.171  1.00  0.00     0.127 C 
BRANCH  16  17
HETATM   17  C1  UNK     1      19.237  -1.265  35.661  1.00  0.00     0.003 C 
BRANCH  17  18
HETATM   18  C2  UNK     1      18.084  -1.754  36.569  1.00  0.00     0.006 C 
BRANCH  18  19
HETATM   19  C5  UNK     1      17.611  -0.778  37.654  1.00  0.00     0.000 C 
BRANCH  19  20
HETATM   20  C6  UNK     1      17.939   0.682  37.345  1.00  0.00    -0.005 C 
HETATM   21  C8  UNK     1      16.690   1.549  37.379  1.00  0.00     0.005 C 
ENDBRANCH  19  20
ENDBRANCH  18  19
ENDBRANCH  17  18
BRANCH  17  22
HETATM   22  C3  UNK     1      20.487  -2.134  35.931  1.00  0.00     0.002 C 
HETATM   23  C7  UNK     1      20.275  -3.208  36.990  1.00  0.00     0.005 C 
ENDBRANCH  17  22
ENDBRANCH  16  17
ENDBRANCH   2  16
TORSDOF 7
ENDMDL
MODEL 10
REMARK VINA RESULT:      -7.1      3.242      4.425
REMARK  7 active torsions:
REMARK  status: ('A' for Active; 'I' for Inactive)
REMARK    1  A    between atoms: C4_8  and  N1_4 
REMARK       I    between atoms: C9_13  and  N1_4 
REMARK    2  A    between atoms: C1_5  and  C2_6 
REMARK    3  A    between atoms: C1_5  and  C3_7 
REMARK    4  A    between atoms: C1_5  and  C4_8 
REMARK    5  A    between atoms: C2_6  and  C5_9 
REMARK    6  A    between atoms: C5_9  and  C6_10 
REMARK    7  A    between atoms: C10_14  and  C9_13 
ROOT
HETATM    1  O2  UNK     1      18.560   1.398  31.105  1.00  0.00    -0.267 OA
HETATM    2  N1  UNK     1      18.179   3.286  32.419  1.00  0.00    -0.356 N 
HETATM    3  C9  UNK     1      18.352   1.932  32.189  1.00  0.00     0.257 C 
HETATM    4  H15 UNK     1      18.080   3.628  33.370  1.00  0.00     0.162 HD
ENDROOT
BRANCH   3   5
HETATM    5  C10 UNK     1      18.267   1.124  33.420  1.00  0.00     0.108 A 
HETATM    6  C11 UNK     1      18.068   1.799  34.558  1.00  0.00     0.037 A 
HETATM    7  C12 UNK     1      17.971   1.090  35.823  1.00  0.00    -0.001 A 
HETATM    8  C14 UNK     1      18.090  -0.297  35.829  1.00  0.00     0.089 A 
HETATM    9  C15 UNK     1      17.764   1.752  37.035  1.00  0.00     0.014 A 
HETATM   10  O1  UNK     1      18.298  -1.002  34.628  1.00  0.00    -0.274 OA
HETATM   11  C16 UNK     1      18.007  -1.036  37.007  1.00  0.00     0.038 A 
HETATM   12  C13 UNK     1      18.395  -0.351  33.401  1.00  0.00     0.304 A 
HETATM   13  O3  UNK     1      18.579  -0.972  32.361  1.00  0.00    -0.259 OA
HETATM   14  C18 UNK     1      17.799  -0.367  38.211  1.00  0.00     0.003 A 
HETATM   15  C17 UNK     1      17.678   1.024  38.226  1.00  0.00     0.001 A 
ENDBRANCH   3   5
BRANCH   2  16
HETATM   16  C4  UNK     1      18.222   4.271  31.373  1.00  0.00     0.127 C 
BRANCH  16  17
HETATM   17  C1  UNK     1      18.169   5.721  31.885  1.00  0.00     0.003 C 
BRANCH  17  18
HETATM   18  C2  UNK     1      17.590   5.845  33.314  1.00  0.00     0.006 C 
BRANCH  18  19
HETATM   19  C5  UNK     1      16.478   6.882  33.510  1.00  0.00     0.000 C 
BRANCH  19  20
HETATM   20  C6  UNK     1      15.904   7.417  32.199  1.00  0.00    -0.005 C 
HETATM   21  C8  UNK     1      14.420   7.106  32.076  1.00  0.00     0.005 C 
ENDBRANCH  19  20
ENDBRANCH  18  19
ENDBRANCH  17  18
BRANCH  17  22
HETATM   22  C3  UNK     1      19.545   6.424  31.842  1.00  0.00     0.002 C 
HETATM   23  C7  UNK     1      20.163   6.657  33.214  1.00  0.00     0.005 C 
ENDBRANCH  17  22
ENDBRANCH  16  17
ENDBRANCH   2  16
TORSDOF 7
ENDMDL
