MODEL 1
REMARK VINA RESULT:      -8.3      0.000      0.000
REMARK  4 active torsions:
REMARK  status: ('A' for Active; 'I' for Inactive)
REMARK    1  A    between atoms: C9_14  and  O2_2 
REMARK    2  A    between atoms: C10_15  and  O4_4 
REMARK    3  A    between atoms: C15_20  and  O5_5 
REMARK    4  A    between atoms: C2_7  and  C5_10 
ROOT
HETATM    1  O1  UNK     1      19.524   1.286  15.155  1.00  0.00    -0.321 OA
HETATM    2  O3  UNK     1      18.497  -1.685  17.757  1.00  0.00    -0.286 OA
HETATM    3  C1  UNK     1      19.027   0.585  17.426  1.00  0.00     0.052 A 
HETATM    4  C2  UNK     1      18.925  -1.041  15.505  1.00  0.00     0.048 A 
HETATM    5  C3  UNK     1      19.387   1.557  16.493  1.00  0.00     0.092 A 
HETATM    6  C4  UNK     1      18.785  -0.795  16.966  1.00  0.00     0.198 A 
HETATM    7  C6  UNK     1      18.903   0.918  18.776  1.00  0.00     0.058 A 
HETATM    8  C7  UNK     1      19.275   0.002  14.736  1.00  0.00     0.159 A 
HETATM    9  C8  UNK     1      19.624   2.869  16.906  1.00  0.00     0.077 A 
HETATM   10  C9  UNK     1      19.142   2.230  19.187  1.00  0.00     0.102 A 
HETATM   11  C10 UNK     1      19.501   3.204  18.254  1.00  0.00     0.101 A 
ENDROOT
BRANCH   4  12
HETATM   12  C5  UNK     1      18.674  -2.364  14.910  1.00  0.00    -0.020 A 
HETATM   13  C11 UNK     1      17.917  -3.312  15.602  1.00  0.00     0.015 A 
HETATM   14  C13 UNK     1      17.678  -4.565  15.037  1.00  0.00     0.037 A 
HETATM   15  C15 UNK     1      18.195  -4.873  13.780  1.00  0.00     0.068 A 
HETATM   16  C14 UNK     1      18.952  -3.929  13.086  1.00  0.00     0.037 A 
HETATM   17  C12 UNK     1      19.190  -2.675  13.650  1.00  0.00     0.015 A 
BRANCH  15  18
HETATM   18  O5  UNK     1      17.962  -6.095  13.228  1.00  0.00    -0.356 OA
HETATM   19  C17 UNK     1      16.998  -6.926  13.874  1.00  0.00     0.210 C 
ENDBRANCH  15  18
ENDBRANCH   4  12
BRANCH  10  20
HETATM   20  O2  UNK     1      19.018   2.551  20.506  1.00  0.00    -0.353 OA
HETATM   21  C16 UNK     1      19.991   2.010  21.398  1.00  0.00     0.210 C 
ENDBRANCH  10  20
BRANCH  11  22
HETATM   22  O4  UNK     1      19.733   4.487  18.649  1.00  0.00    -0.358 OA
HETATM   23  H8  UNK     1      20.678   4.680  18.532  1.00  0.00     0.217 HD
ENDBRANCH  11  22
TORSDOF 4
ENDMDL
MODEL 2
REMARK VINA RESULT:      -8.0     13.541     18.357
REMARK  4 active torsions:
REMARK  status: ('A' for Active; 'I' for Inactive)
REMARK    1  A    between atoms: C9_14  and  O2_2 
REMARK    2  A    between atoms: C10_15  and  O4_4 
REMARK    3  A    between atoms: C15_20  and  O5_5 
REMARK    4  A    between atoms: C2_7  and  C5_10 
ROOT
HETATM    1  O1  UNK     1      18.437   9.003  33.863  1.00  0.00    -0.321 OA
HETATM    2  O3  UNK     1      15.496   7.314  31.594  1.00  0.00    -0.286 OA
HETATM    3  C1  UNK     1      16.175   9.088  32.985  1.00  0.00     0.052 A 
HETATM    4  C2  UNK     1      17.739   7.207  32.386  1.00  0.00     0.048 A 
HETATM    5  C3  UNK     1      17.213   9.613  33.755  1.00  0.00     0.092 A 
HETATM    6  C4  UNK     1      16.392   7.824  32.256  1.00  0.00     0.198 A 
HETATM    7  C6  UNK     1      14.949   9.752  32.912  1.00  0.00     0.058 A 
HETATM    8  C7  UNK     1      18.633   7.838  33.163  1.00  0.00     0.159 A 
HETATM    9  C8  UNK     1      17.030  10.806  34.455  1.00  0.00     0.077 A 
HETATM   10  C9  UNK     1      14.768  10.945  33.614  1.00  0.00     0.102 A 
HETATM   11  C10 UNK     1      15.806  11.471  34.384  1.00  0.00     0.101 A 
ENDROOT
BRANCH   4  12
HETATM   12  C5  UNK     1      18.099   5.966  31.680  1.00  0.00    -0.020 A 
HETATM   13  C11 UNK     1      17.769   4.725  32.231  1.00  0.00     0.015 A 
HETATM   14  C13 UNK     1      18.109   3.550  31.562  1.00  0.00     0.037 A 
HETATM   15  C15 UNK     1      18.780   3.611  30.341  1.00  0.00     0.068 A 
HETATM   16  C14 UNK     1      19.111   4.849  29.789  1.00  0.00     0.037 A 
HETATM   17  C12 UNK     1      18.771   6.025  30.457  1.00  0.00     0.015 A 
BRANCH  15  18
HETATM   18  O5  UNK     1      19.111   2.465  29.687  1.00  0.00    -0.356 OA
HETATM   19  C17 UNK     1      18.114   1.884  28.847  1.00  0.00     0.210 C 
ENDBRANCH  15  18
ENDBRANCH   4  12
BRANCH  10  20
HETATM   20  O2  UNK     1      13.570  11.590  33.537  1.00  0.00    -0.353 OA
HETATM   21  C16 UNK     1      13.300  12.314  32.338  1.00  0.00     0.210 C 
ENDBRANCH  10  20
BRANCH  11  22
HETATM   22  O4  UNK     1      15.636  12.635  35.069  1.00  0.00    -0.358 OA
HETATM   23  H8  UNK     1      14.743  12.640  35.453  1.00  0.00     0.217 HD
ENDBRANCH  11  22
TORSDOF 4
ENDMDL
MODEL 3
REMARK VINA RESULT:      -7.9     14.123     18.346
REMARK  4 active torsions:
REMARK  status: ('A' for Active; 'I' for Inactive)
REMARK    1  A    between atoms: C9_14  and  O2_2 
REMARK    2  A    between atoms: C10_15  and  O4_4 
REMARK    3  A    between atoms: C15_20  and  O5_5 
REMARK    4  A    between atoms: C2_7  and  C5_10 
ROOT
HETATM    1  O1  UNK     1      18.758   4.523  29.811  1.00  0.00    -0.321 OA
HETATM    2  O3  UNK     1      17.945   4.383  33.807  1.00  0.00    -0.286 OA
HETATM    3  C1  UNK     1      18.494   3.214  31.839  1.00  0.00     0.052 A 
HETATM    4  C2  UNK     1      18.243   5.720  31.860  1.00  0.00     0.048 A 
HETATM    5  C3  UNK     1      18.753   3.321  30.473  1.00  0.00     0.092 A 
HETATM    6  C4  UNK     1      18.209   4.437  32.612  1.00  0.00     0.198 A 
HETATM    7  C6  UNK     1      18.502   1.963  32.460  1.00  0.00     0.058 A 
HETATM    8  C7  UNK     1      18.511   5.656  30.547  1.00  0.00     0.159 A 
HETATM    9  C8  UNK     1      19.023   2.178  29.720  1.00  0.00     0.077 A 
HETATM   10  C9  UNK     1      18.771   0.821  31.705  1.00  0.00     0.102 A 
HETATM   11  C10 UNK     1      19.031   0.927  30.339  1.00  0.00     0.101 A 
ENDROOT
BRANCH   4  12
HETATM   12  C5  UNK     1      18.014   7.016  32.519  1.00  0.00    -0.020 A 
HETATM   13  C11 UNK     1      16.774   7.650  32.409  1.00  0.00     0.015 A 
HETATM   14  C13 UNK     1      16.557   8.877  33.034  1.00  0.00     0.037 A 
HETATM   15  C15 UNK     1      17.579   9.475  33.772  1.00  0.00     0.068 A 
HETATM   16  C14 UNK     1      18.818   8.845  33.883  1.00  0.00     0.037 A 
HETATM   17  C12 UNK     1      19.036   7.617  33.258  1.00  0.00     0.015 A 
BRANCH  15  18
HETATM   18  O5  UNK     1      17.367  10.672  34.382  1.00  0.00    -0.356 OA
HETATM   19  C17 UNK     1      18.316  11.708  34.128  1.00  0.00     0.210 C 
ENDBRANCH  15  18
ENDBRANCH   4  12
BRANCH  10  20
HETATM   20  O2  UNK     1      18.780  -0.397  32.317  1.00  0.00    -0.353 OA
HETATM   21  C16 UNK     1      18.294  -0.452  33.657  1.00  0.00     0.210 C 
ENDBRANCH  10  20
BRANCH  11  22
HETATM   22  O4  UNK     1      19.297  -0.184  29.597  1.00  0.00    -0.358 OA
HETATM   23  H8  UNK     1      19.596  -0.890  30.195  1.00  0.00     0.217 HD
ENDBRANCH  11  22
TORSDOF 4
ENDMDL
MODEL 4
REMARK VINA RESULT:      -7.9     13.632     17.776
REMARK  4 active torsions:
REMARK  status: ('A' for Active; 'I' for Inactive)
REMARK    1  A    between atoms: C9_14  and  O2_2 
REMARK    2  A    between atoms: C10_15  and  O4_4 
REMARK    3  A    between atoms: C15_20  and  O5_5 
REMARK    4  A    between atoms: C2_7  and  C5_10 
ROOT
HETATM    1  O1  UNK     1      18.913   3.576  29.495  1.00  0.00    -0.321 OA
HETATM    2  O3  UNK     1      18.052   3.297  33.473  1.00  0.00    -0.286 OA
HETATM    3  C1  UNK     1      18.702   2.209  31.489  1.00  0.00     0.052 A 
HETATM    4  C2  UNK     1      18.293   4.693  31.560  1.00  0.00     0.048 A 
HETATM    5  C3  UNK     1      18.974   2.362  30.130  1.00  0.00     0.092 A 
HETATM    6  C4  UNK     1      18.329   3.393  32.284  1.00  0.00     0.198 A 
HETATM    7  C6  UNK     1      18.780   0.947  32.084  1.00  0.00     0.058 A 
HETATM    8  C7  UNK     1      18.584   4.675  30.250  1.00  0.00     0.159 A 
HETATM    9  C8  UNK     1      19.327   1.255  29.358  1.00  0.00     0.077 A 
HETATM   10  C9  UNK     1      19.132  -0.159  31.309  1.00  0.00     0.102 A 
HETATM   11  C10 UNK     1      19.405  -0.006  29.950  1.00  0.00     0.101 A 
ENDROOT
BRANCH   4  12
HETATM   12  C5  UNK     1      17.973   5.957  32.243  1.00  0.00    -0.020 A 
HETATM   13  C11 UNK     1      18.996   6.750  32.766  1.00  0.00     0.015 A 
HETATM   14  C13 UNK     1      18.692   7.949  33.412  1.00  0.00     0.037 A 
HETATM   15  C15 UNK     1      17.365   8.357  33.537  1.00  0.00     0.068 A 
HETATM   16  C14 UNK     1      16.341   7.566  33.015  1.00  0.00     0.037 A 
HETATM   17  C12 UNK     1      16.644   6.368  32.369  1.00  0.00     0.015 A 
BRANCH  15  18
HETATM   18  O5  UNK     1      17.068   9.526  34.167  1.00  0.00    -0.356 OA
HETATM   19  C17 UNK     1      15.772   9.637  34.753  1.00  0.00     0.210 C 
ENDBRANCH  15  18
ENDBRANCH   4  12
BRANCH  10  20
HETATM   20  O2  UNK     1      19.209  -1.387  31.895  1.00  0.00    -0.353 OA
HETATM   21  C16 UNK     1      19.080  -1.437  33.315  1.00  0.00     0.210 C 
ENDBRANCH  10  20
BRANCH  11  22
HETATM   22  O4  UNK     1      19.751  -1.082  29.189  1.00  0.00    -0.358 OA
HETATM   23  H8  UNK     1      19.524  -0.892  28.264  1.00  0.00     0.217 HD
ENDBRANCH  11  22
TORSDOF 4
ENDMDL
MODEL 5
REMARK VINA RESULT:      -7.9     13.335     18.236
REMARK  4 active torsions:
REMARK  status: ('A' for Active; 'I' for Inactive)
REMARK    1  A    between atoms: C9_14  and  O2_2 
REMARK    2  A    between atoms: C10_15  and  O4_4 
REMARK    3  A    between atoms: C15_20  and  O5_5 
REMARK    4  A    between atoms: C2_7  and  C5_10 
ROOT
HETATM    1  O1  UNK     1      18.272   2.388  33.904  1.00  0.00    -0.321 OA
HETATM    2  O3  UNK     1      18.750   4.645  30.538  1.00  0.00    -0.286 OA
HETATM    3  C1  UNK     1      18.730   2.506  31.523  1.00  0.00     0.052 A 
HETATM    4  C2  UNK     1      18.245   4.583  32.864  1.00  0.00     0.048 A 
HETATM    5  C3  UNK     1      18.567   1.788  32.707  1.00  0.00     0.092 A 
HETATM    6  C4  UNK     1      18.584   3.973  31.549  1.00  0.00     0.198 A 
HETATM    7  C6  UNK     1      19.031   1.841  30.333  1.00  0.00     0.058 A 
HETATM    8  C7  UNK     1      18.118   3.753  33.911  1.00  0.00     0.159 A 
HETATM    9  C8  UNK     1      18.704   0.399  32.707  1.00  0.00     0.077 A 
HETATM   10  C9  UNK     1      19.168   0.452  30.335  1.00  0.00     0.102 A 
HETATM   11  C10 UNK     1      19.005  -0.268  31.519  1.00  0.00     0.101 A 
ENDROOT
BRANCH   4  12
HETATM   12  C5  UNK     1      18.033   6.031  33.021  1.00  0.00    -0.020 A 
HETATM   13  C11 UNK     1      19.029   6.827  33.591  1.00  0.00     0.015 A 
HETATM   14  C13 UNK     1      18.829   8.200  33.738  1.00  0.00     0.037 A 
HETATM   15  C15 UNK     1      17.633   8.780  33.316  1.00  0.00     0.068 A 
HETATM   16  C14 UNK     1      16.638   7.987  32.746  1.00  0.00     0.037 A 
HETATM   17  C12 UNK     1      16.837   6.614  32.598  1.00  0.00     0.015 A 
BRANCH  15  18
HETATM   18  O5  UNK     1      17.438  10.118  33.459  1.00  0.00    -0.356 OA
HETATM   19  C17 UNK     1      16.262  10.533  34.154  1.00  0.00     0.210 C 
ENDBRANCH  15  18
ENDBRANCH   4  12
BRANCH  10  20
HETATM   20  O2  UNK     1      19.460  -0.192  29.170  1.00  0.00    -0.353 OA
HETATM   21  C16 UNK     1      20.820  -0.569  28.961  1.00  0.00     0.210 C 
ENDBRANCH  10  20
BRANCH  11  22
HETATM   22  O4  UNK     1      19.135  -1.624  31.527  1.00  0.00    -0.358 OA
HETATM   23  H8  UNK     1      18.254  -2.019  31.418  1.00  0.00     0.217 HD
ENDBRANCH  11  22
TORSDOF 4
ENDMDL
MODEL 6
REMARK VINA RESULT:      -7.9      1.646      3.072
REMARK  4 active torsions:
REMARK  status: ('A' for Active; 'I' for Inactive)
REMARK    1  A    between atoms: C9_14  and  O2_2 
REMARK    2  A    between atoms: C10_15  and  O4_4 
REMARK    3  A    between atoms: C15_20  and  O5_5 
REMARK    4  A    between atoms: C2_7  and  C5_10 
ROOT
HETATM    1  O1  UNK     1      18.278  -1.193  17.976  1.00  0.00    -0.321 OA
HETATM    2  O3  UNK     1      19.797   1.108  14.968  1.00  0.00    -0.286 OA
HETATM    3  C1  UNK     1      19.188   0.932  17.235  1.00  0.00     0.052 A 
HETATM    4  C2  UNK     1      18.959  -1.013  15.651  1.00  0.00     0.048 A 
HETATM    5  C3  UNK     1      18.653   0.103  18.221  1.00  0.00     0.092 A 
HETATM    6  C4  UNK     1      19.360   0.404  15.869  1.00  0.00     0.198 A 
HETATM    7  C6  UNK     1      19.551   2.245  17.543  1.00  0.00     0.058 A 
HETATM    8  C7  UNK     1      18.462  -1.680  16.704  1.00  0.00     0.159 A 
HETATM    9  C8  UNK     1      18.478   0.583  19.519  1.00  0.00     0.077 A 
HETATM   10  C9  UNK     1      19.375   2.723  18.842  1.00  0.00     0.102 A 
HETATM   11  C10 UNK     1      18.840   1.894  19.828  1.00  0.00     0.101 A 
ENDROOT
BRANCH   4  12
HETATM   12  C5  UNK     1      19.114  -1.675  14.346  1.00  0.00    -0.020 A 
HETATM   13  C11 UNK     1      19.038  -0.928  13.168  1.00  0.00     0.015 A 
HETATM   14  C13 UNK     1      19.186  -1.555  11.931  1.00  0.00     0.037 A 
HETATM   15  C15 UNK     1      19.410  -2.930  11.868  1.00  0.00     0.068 A 
HETATM   16  C14 UNK     1      19.486  -3.678  13.043  1.00  0.00     0.037 A 
HETATM   17  C12 UNK     1      19.339  -3.052  14.280  1.00  0.00     0.015 A 
BRANCH  15  18
HETATM   18  O5  UNK     1      19.555  -3.542  10.662  1.00  0.00    -0.356 OA
HETATM   19  C17 UNK     1      20.652  -3.125   9.850  1.00  0.00     0.210 C 
ENDBRANCH  15  18
ENDBRANCH   4  12
BRANCH  10  20
HETATM   20  O2  UNK     1      19.733   4.004  19.137  1.00  0.00    -0.353 OA
HETATM   21  C16 UNK     1      20.852   4.542  18.434  1.00  0.00     0.210 C 
ENDBRANCH  10  20
BRANCH  11  22
HETATM   22  O4  UNK     1      18.668   2.354  21.099  1.00  0.00    -0.358 OA
HETATM   23  H8  UNK     1      19.533   2.370  21.541  1.00  0.00     0.217 HD
ENDBRANCH  11  22
TORSDOF 4
ENDMDL
MODEL 7
REMARK VINA RESULT:      -7.7     18.151     22.170
REMARK  4 active torsions:
REMARK  status: ('A' for Active; 'I' for Inactive)
REMARK    1  A    between atoms: C9_14  and  O2_2 
REMARK    2  A    between atoms: C10_15  and  O4_4 
REMARK    3  A    between atoms: C15_20  and  O5_5 
REMARK    4  A    between atoms: C2_7  and  C5_10 
ROOT
HETATM    1  O1  UNK     1      21.874  -5.049  38.267  1.00  0.00    -0.321 OA
HETATM    2  O3  UNK     1      18.287  -5.723  36.442  1.00  0.00    -0.286 OA
HETATM    3  C1  UNK     1      20.011  -6.540  37.823  1.00  0.00     0.052 A 
HETATM    4  C2  UNK     1      20.064  -4.202  36.887  1.00  0.00     0.048 A 
HETATM    5  C3  UNK     1      21.242  -6.257  38.413  1.00  0.00     0.092 A 
HETATM    6  C4  UNK     1      19.354  -5.505  37.003  1.00  0.00     0.198 A 
HETATM    7  C6  UNK     1      19.414  -7.790  38.005  1.00  0.00     0.058 A 
HETATM    8  C7  UNK     1      21.242  -4.086  37.519  1.00  0.00     0.159 A 
HETATM    9  C8  UNK     1      21.883  -7.223  39.190  1.00  0.00     0.077 A 
HETATM   10  C9  UNK     1      20.057  -8.754  38.782  1.00  0.00     0.102 A 
HETATM   11  C10 UNK     1      21.289  -8.472  39.373  1.00  0.00     0.101 A 
ENDROOT
BRANCH   4  12
HETATM   12  C5  UNK     1      19.500  -3.072  36.131  1.00  0.00    -0.020 A 
HETATM   13  C11 UNK     1      19.996  -2.761  34.863  1.00  0.00     0.015 A 
HETATM   14  C13 UNK     1      19.461  -1.690  34.146  1.00  0.00     0.037 A 
HETATM   15  C15 UNK     1      18.429  -0.929  34.695  1.00  0.00     0.068 A 
HETATM   16  C14 UNK     1      17.933  -1.238  35.961  1.00  0.00     0.037 A 
HETATM   17  C12 UNK     1      18.468  -2.308  36.678  1.00  0.00     0.015 A 
BRANCH  15  18
HETATM   18  O5  UNK     1      17.907   0.115  33.996  1.00  0.00    -0.356 OA
HETATM   19  C17 UNK     1      18.172   1.427  34.492  1.00  0.00     0.210 C 
ENDBRANCH  15  18
ENDBRANCH   4  12
BRANCH  10  20
HETATM   20  O2  UNK     1      19.470  -9.970  38.959  1.00  0.00    -0.353 OA
HETATM   21  C16 UNK     1      19.636 -10.928  37.914  1.00  0.00     0.210 C 
ENDBRANCH  10  20
BRANCH  11  22
HETATM   22  O4  UNK     1      21.921  -9.408  40.135  1.00  0.00    -0.358 OA
HETATM   23  H8  UNK     1      22.236  -8.982  40.950  1.00  0.00     0.217 HD
ENDBRANCH  11  22
TORSDOF 4
ENDMDL
MODEL 8
REMARK VINA RESULT:      -7.7     15.775     19.976
REMARK  4 active torsions:
REMARK  status: ('A' for Active; 'I' for Inactive)
REMARK    1  A    between atoms: C9_14  and  O2_2 
REMARK    2  A    between atoms: C10_15  and  O4_4 
REMARK    3  A    between atoms: C15_20  and  O5_5 
REMARK    4  A    between atoms: C2_7  and  C5_10 
ROOT
HETATM    1  O1  UNK     1      18.454  -1.364  36.773  1.00  0.00    -0.321 OA
HETATM    2  O3  UNK     1      20.529  -3.675  34.126  1.00  0.00    -0.286 OA
HETATM    3  C1  UNK     1      19.306  -1.703  34.525  1.00  0.00     0.052 A 
HETATM    4  C2  UNK     1      19.761  -3.369  36.359  1.00  0.00     0.048 A 
HETATM    5  C3  UNK     1      18.598  -0.961  35.470  1.00  0.00     0.092 A 
HETATM    6  C4  UNK     1      19.926  -2.978  34.933  1.00  0.00     0.198 A 
HETATM    7  C6  UNK     1      19.420  -1.243  33.212  1.00  0.00     0.058 A 
HETATM    8  C7  UNK     1      19.053  -2.543  37.145  1.00  0.00     0.159 A 
HETATM    9  C8  UNK     1      18.001   0.247  35.106  1.00  0.00     0.077 A 
HETATM   10  C9  UNK     1      18.821  -0.035  32.850  1.00  0.00     0.102 A 
HETATM   11  C10 UNK     1      18.114   0.708  33.794  1.00  0.00     0.101 A 
ENDROOT
BRANCH   4  12
HETATM   12  C5  UNK     1      20.362  -4.597  36.905  1.00  0.00    -0.020 A 
HETATM   13  C11 UNK     1      19.871  -5.847  36.522  1.00  0.00     0.015 A 
HETATM   14  C13 UNK     1      20.440  -7.011  37.039  1.00  0.00     0.037 A 
HETATM   15  C15 UNK     1      21.502  -6.928  37.939  1.00  0.00     0.068 A 
HETATM   16  C14 UNK     1      21.994  -5.680  38.323  1.00  0.00     0.037 A 
HETATM   17  C12 UNK     1      21.425  -4.516  37.807  1.00  0.00     0.015 A 
BRANCH  15  18
HETATM   18  O5  UNK     1      22.059  -8.062  38.443  1.00  0.00    -0.356 OA
HETATM   19  C17 UNK     1      22.422  -8.050  39.823  1.00  0.00     0.210 C 
ENDBRANCH  15  18
ENDBRANCH   4  12
BRANCH  10  20
HETATM   20  O2  UNK     1      18.937   0.410  31.567  1.00  0.00    -0.353 OA
HETATM   21  C16 UNK     1      20.068  -0.042  30.824  1.00  0.00     0.210 C 
ENDBRANCH  10  20
BRANCH  11  22
HETATM   22  O4  UNK     1      17.529   1.889  33.448  1.00  0.00    -0.358 OA
HETATM   23  H8  UNK     1      16.622   1.899  33.797  1.00  0.00     0.217 HD
ENDBRANCH  11  22
TORSDOF 4
ENDMDL
MODEL 9
REMARK VINA RESULT:      -7.6     12.903     18.924
REMARK  4 active torsions:
REMARK  status: ('A' for Active; 'I' for Inactive)
REMARK    1  A    between atoms: C9_14  and  O2_2 
REMARK    2  A    between atoms: C10_15  and  O4_4 
REMARK    3  A    between atoms: C15_20  and  O5_5 
REMARK    4  A    between atoms: C2_7  and  C5_10 
ROOT
HETATM    1  O1  UNK     1      18.101   3.906  34.030  1.00  0.00    -0.321 OA
HETATM    2  O3  UNK     1      18.392   6.394  30.809  1.00  0.00    -0.286 OA
HETATM    3  C1  UNK     1      18.421   4.192  31.641  1.00  0.00     0.052 A 
HETATM    4  C2  UNK     1      18.022   6.168  33.150  1.00  0.00     0.048 A 
HETATM    5  C3  UNK     1      18.325   3.391  32.779  1.00  0.00     0.092 A 
HETATM    6  C4  UNK     1      18.283   5.653  31.778  1.00  0.00     0.198 A 
HETATM    7  C6  UNK     1      18.650   3.612  30.391  1.00  0.00     0.058 A 
HETATM    8  C7  UNK     1      17.953   5.267  34.142  1.00  0.00     0.159 A 
HETATM    9  C8  UNK     1      18.456   2.006  32.673  1.00  0.00     0.077 A 
HETATM   10  C9  UNK     1      18.782   2.226  30.288  1.00  0.00     0.102 A 
HETATM   11  C10 UNK     1      18.685   1.425  31.426  1.00  0.00     0.101 A 
ENDROOT
BRANCH   4  12
HETATM   12  C5  UNK     1      17.825   7.602  33.420  1.00  0.00    -0.020 A 
HETATM   13  C11 UNK     1      16.552   8.166  33.317  1.00  0.00     0.015 A 
HETATM   14  C13 UNK     1      16.366   9.525  33.574  1.00  0.00     0.037 A 
HETATM   15  C15 UNK     1      17.452  10.322  33.933  1.00  0.00     0.068 A 
HETATM   16  C14 UNK     1      18.725   9.761  34.036  1.00  0.00     0.037 A 
HETATM   17  C12 UNK     1      18.912   8.403  33.780  1.00  0.00     0.015 A 
BRANCH  15  18
HETATM   18  O5  UNK     1      17.271  11.647  34.184  1.00  0.00    -0.356 OA
HETATM   19  C17 UNK     1      18.354  12.522  33.870  1.00  0.00     0.210 C 
ENDBRANCH  15  18
ENDBRANCH   4  12
BRANCH  10  20
HETATM   20  O2  UNK     1      19.004   1.665  29.066  1.00  0.00    -0.353 OA
HETATM   21  C16 UNK     1      17.856   1.353  28.279  1.00  0.00     0.210 C 
ENDBRANCH  10  20
BRANCH  11  22
HETATM   22  O4  UNK     1      18.810   0.072  31.331  1.00  0.00    -0.358 OA
HETATM   23  H8  UNK     1      19.755  -0.147  31.268  1.00  0.00     0.217 HD
ENDBRANCH  11  22
TORSDOF 4
ENDMDL
MODEL 10
REMARK VINA RESULT:      -7.6     12.966     15.705
REMARK  4 active torsions:
REMARK  status: ('A' for Active; 'I' for Inactive)
REMARK    1  A    between atoms: C9_14  and  O2_2 
REMARK    2  A    between atoms: C10_15  and  O4_4 
REMARK    3  A    between atoms: C15_20  and  O5_5 
REMARK    4  A    between atoms: C2_7  and  C5_10 
ROOT
HETATM    1  O1  UNK     1      18.816   5.828  29.920  1.00  0.00    -0.321 OA
HETATM    2  O3  UNK     1      17.807   2.958  32.639  1.00  0.00    -0.286 OA
HETATM    3  C1  UNK     1      17.788   5.234  32.038  1.00  0.00     0.052 A 
HETATM    4  C2  UNK     1      18.782   3.478  30.530  1.00  0.00     0.048 A 
HETATM    5  C3  UNK     1      18.167   6.173  31.079  1.00  0.00     0.092 A 
HETATM    6  C4  UNK     1      18.095   3.810  31.808  1.00  0.00     0.198 A 
HETATM    7  C6  UNK     1      17.130   5.643  33.200  1.00  0.00     0.058 A 
HETATM    8  C7  UNK     1      19.078   4.497  29.708  1.00  0.00     0.159 A 
HETATM    9  C8  UNK     1      17.890   7.526  31.276  1.00  0.00     0.077 A 
HETATM   10  C9  UNK     1      16.854   6.997  33.396  1.00  0.00     0.102 A 
HETATM   11  C10 UNK     1      17.233   7.936  32.437  1.00  0.00     0.101 A 
ENDROOT
BRANCH   4  12
HETATM   12  C5  UNK     1      19.111   2.092  30.160  1.00  0.00    -0.020 A 
HETATM   13  C11 UNK     1      19.814   1.277  31.050  1.00  0.00     0.015 A 
HETATM   14  C13 UNK     1      20.126  -0.037  30.699  1.00  0.00     0.037 A 
HETATM   15  C15 UNK     1      19.735  -0.539  29.458  1.00  0.00     0.068 A 
HETATM   16  C14 UNK     1      19.033   0.273  28.568  1.00  0.00     0.037 A 
HETATM   17  C12 UNK     1      18.721   1.586  28.918  1.00  0.00     0.015 A 
BRANCH  15  18
HETATM   18  O5  UNK     1      20.038  -1.821  29.116  1.00  0.00    -0.356 OA
HETATM   19  C17 UNK     1      20.660  -2.630  30.113  1.00  0.00     0.210 C 
ENDBRANCH  15  18
ENDBRANCH   4  12
BRANCH  10  20
HETATM   20  O2  UNK     1      16.210   7.390  34.530  1.00  0.00    -0.353 OA
HETATM   21  C16 UNK     1      14.810   7.641  34.427  1.00  0.00     0.210 C 
ENDBRANCH  10  20
BRANCH  11  22
HETATM   22  O4  UNK     1      16.965   9.259  32.621  1.00  0.00    -0.358 OA
HETATM   23  H8  UNK     1      17.160   9.488  33.545  1.00  0.00     0.217 HD
ENDBRANCH  11  22
TORSDOF 4
ENDMDL
