MODEL 1
REMARK VINA RESULT:      -8.6      0.000      0.000
REMARK  3 active torsions:
REMARK  status: ('A' for Active; 'I' for Inactive)
REMARK    1  A    between atoms: C6_11  and  N1_5 
REMARK    2  A    between atoms: C6_11  and  C9_14 
REMARK    3  A    between atoms: C14_19  and  C18_23 
ROOT
HETATM    1  O3  UNK     1      17.777  -0.372  35.671  1.00  0.00    -0.275 OA
HETATM    2  O4  UNK     1      17.228  -0.270  37.889  1.00  0.00    -0.260 OA
HETATM    3  C9  UNK     1      19.647  -2.389  36.328  1.00  0.00    -0.011 A 
HETATM    4  C10 UNK     1      19.491  -1.949  34.937  1.00  0.00     0.007 A 
HETATM    5  C11 UNK     1      18.891  -1.821  37.278  1.00  0.00     0.092 A 
HETATM    6  C12 UNK     1      18.559  -0.950  34.651  1.00  0.00     0.090 A 
HETATM    7  C13 UNK     1      20.228  -2.474  33.866  1.00  0.00     0.022 A 
HETATM    8  C14 UNK     1      20.027  -2.007  32.562  1.00  0.00    -0.058 A 
HETATM    9  C15 UNK     1      17.902  -0.767  36.993  1.00  0.00     0.288 A 
HETATM   10  C16 UNK     1      18.347  -0.475  33.356  1.00  0.00     0.039 A 
HETATM   11  C17 UNK     1      19.089  -1.009  32.307  1.00  0.00     0.010 A 
ENDROOT
BRANCH   3  12
HETATM   12  C6  UNK     1      20.635  -3.453  36.666  1.00  0.00     0.312 C 
BRANCH  12  13
HETATM   13  N1  UNK     1      20.004  -4.610  37.302  1.00  0.00     0.093 N 
HETATM   14  C4  UNK     1      20.997  -5.389  38.053  1.00  0.00     0.278 C 
HETATM   15  C2  UNK     1      20.341  -6.574  38.766  1.00  0.00     0.099 C 
HETATM   16  C1  UNK     1      19.572  -7.468  37.792  1.00  0.00     0.167 C 
HETATM   17  O1  UNK     1      18.819  -8.446  38.526  1.00  0.00    -0.353 OA
HETATM   18  O2  UNK     1      20.509  -8.135  36.928  1.00  0.00    -0.353 OA
HETATM   19  C3  UNK     1      18.610  -6.622  36.955  1.00  0.00     0.099 C 
HETATM   20  C7  UNK     1      19.516  -9.673  38.318  1.00  0.00     0.197 C 
HETATM   21  C8  UNK     1      20.108  -9.504  36.946  1.00  0.00     0.197 C 
HETATM   22  C5  UNK     1      19.322  -5.438  36.297  1.00  0.00     0.278 C 
ENDBRANCH  12  13
ENDBRANCH   3  12
BRANCH   8  23
HETATM   23  C18 UNK     1      20.824  -2.581  31.438  1.00  0.00     0.034 C 
HETATM   24  C19 UNK     1      20.353  -2.075  30.077  1.00  0.00     0.010 C 
ENDBRANCH   8  23
TORSDOF 3
ENDMDL
MODEL 2
REMARK VINA RESULT:      -8.2      7.176     12.198
REMARK  3 active torsions:
REMARK  status: ('A' for Active; 'I' for Inactive)
REMARK    1  A    between atoms: C6_11  and  N1_5 
REMARK    2  A    between atoms: C6_11  and  C9_14 
REMARK    3  A    between atoms: C14_19  and  C18_23 
ROOT
HETATM    1  O3  UNK     1      18.295   1.636  31.209  1.00  0.00    -0.275 OA
HETATM    2  O4  UNK     1      18.358   2.653  29.160  1.00  0.00    -0.260 OA
HETATM    3  C9  UNK     1      18.435   4.207  32.379  1.00  0.00    -0.011 A 
HETATM    4  C10 UNK     1      18.366   3.010  33.226  1.00  0.00     0.007 A 
HETATM    5  C11 UNK     1      18.431   4.061  31.047  1.00  0.00     0.092 A 
HETATM    6  C12 UNK     1      18.299   1.758  32.612  1.00  0.00     0.090 A 
HETATM    7  C13 UNK     1      18.363   3.046  34.628  1.00  0.00     0.022 A 
HETATM    8  C14 UNK     1      18.295   1.865  35.374  1.00  0.00    -0.058 A 
HETATM    9  C15 UNK     1      18.359   2.748  30.383  1.00  0.00     0.288 A 
HETATM   10  C16 UNK     1      18.229   0.571  33.343  1.00  0.00     0.039 A 
HETATM   11  C17 UNK     1      18.228   0.629  34.733  1.00  0.00     0.010 A 
ENDROOT
BRANCH   3  12
HETATM   12  C6  UNK     1      18.509   5.558  33.004  1.00  0.00     0.312 C 
BRANCH  12  13
HETATM   13  N1  UNK     1      17.232   6.270  32.930  1.00  0.00     0.093 N 
HETATM   14  C4  UNK     1      17.274   7.292  31.875  1.00  0.00     0.278 C 
HETATM   15  C2  UNK     1      15.927   8.009  31.752  1.00  0.00     0.099 C 
HETATM   16  C1  UNK     1      15.485   8.620  33.083  1.00  0.00     0.167 C 
HETATM   17  O1  UNK     1      14.140   9.108  32.967  1.00  0.00    -0.353 OA
HETATM   18  O2  UNK     1      16.363   9.710  33.414  1.00  0.00    -0.353 OA
HETATM   19  C3  UNK     1      15.538   7.561  34.186  1.00  0.00     0.099 C 
HETATM   20  C7  UNK     1      14.270  10.528  32.932  1.00  0.00     0.197 C 
HETATM   21  C8  UNK     1      15.492  10.782  33.770  1.00  0.00     0.197 C 
HETATM   22  C5  UNK     1      16.898   6.860  34.234  1.00  0.00     0.278 C 
ENDBRANCH  12  13
ENDBRANCH   3  12
BRANCH   8  23
HETATM   23  C18 UNK     1      18.293   1.928  36.865  1.00  0.00     0.034 C 
HETATM   24  C19 UNK     1      17.610   0.718  37.496  1.00  0.00     0.010 C 
ENDBRANCH   8  23
TORSDOF 3
ENDMDL
MODEL 3
REMARK VINA RESULT:      -8.2      5.844     10.510
REMARK  3 active torsions:
REMARK  status: ('A' for Active; 'I' for Inactive)
REMARK    1  A    between atoms: C6_11  and  N1_5 
REMARK    2  A    between atoms: C6_11  and  C9_14 
REMARK    3  A    between atoms: C14_19  and  C18_23 
ROOT
HETATM    1  O3  UNK     1      20.388  -1.104  30.463  1.00  0.00    -0.275 OA
HETATM    2  O4  UNK     1      20.967  -0.507  28.332  1.00  0.00    -0.260 OA
HETATM    3  C9  UNK     1      18.883   1.286  30.617  1.00  0.00    -0.011 A 
HETATM    4  C10 UNK     1      18.933   0.366  31.761  1.00  0.00     0.007 A 
HETATM    5  C11 UNK     1      19.560   0.974  29.503  1.00  0.00     0.092 A 
HETATM    6  C12 UNK     1      19.687  -0.803  31.647  1.00  0.00     0.090 A 
HETATM    7  C13 UNK     1      18.264   0.591  32.972  1.00  0.00     0.022 A 
HETATM    8  C14 UNK     1      18.355  -0.328  34.022  1.00  0.00    -0.058 A 
HETATM    9  C15 UNK     1      20.360  -0.256  29.367  1.00  0.00     0.288 A 
HETATM   10  C16 UNK     1      19.787  -1.730  32.685  1.00  0.00     0.039 A 
HETATM   11  C17 UNK     1      19.116  -1.488  33.879  1.00  0.00     0.010 A 
ENDROOT
BRANCH   3  12
HETATM   12  C6  UNK     1      18.087   2.542  30.707  1.00  0.00     0.312 C 
BRANCH  12  13
HETATM   13  N1  UNK     1      18.792   3.589  31.448  1.00  0.00     0.093 N 
HETATM   14  C4  UNK     1      18.102   3.879  32.712  1.00  0.00     0.278 C 
HETATM   15  C2  UNK     1      18.858   4.935  33.522  1.00  0.00     0.099 C 
HETATM   16  C1  UNK     1      19.078   6.217  32.716  1.00  0.00     0.167 C 
HETATM   17  O1  UNK     1      19.953   7.097  33.439  1.00  0.00    -0.353 OA
HETATM   18  O2  UNK     1      17.811   6.865  32.510  1.00  0.00    -0.353 OA
HETATM   19  C3  UNK     1      19.713   5.883  31.365  1.00  0.00     0.099 C 
HETATM   20  C7  UNK     1      19.104   8.139  33.918  1.00  0.00     0.197 C 
HETATM   21  C8  UNK     1      18.038   8.228  32.862  1.00  0.00     0.197 C 
HETATM   22  C5  UNK     1      18.928   4.798  30.623  1.00  0.00     0.278 C 
ENDBRANCH  12  13
ENDBRANCH   3  12
BRANCH   8  23
HETATM   23  C18 UNK     1      17.634  -0.067  35.302  1.00  0.00     0.034 C 
HETATM   24  C19 UNK     1      16.125  -0.247  35.165  1.00  0.00     0.010 C 
ENDBRANCH   8  23
TORSDOF 3
ENDMDL
MODEL 4
REMARK VINA RESULT:      -8.2     10.950     13.104
REMARK  3 active torsions:
REMARK  status: ('A' for Active; 'I' for Inactive)
REMARK    1  A    between atoms: C6_11  and  N1_5 
REMARK    2  A    between atoms: C6_11  and  C9_14 
REMARK    3  A    between atoms: C14_19  and  C18_23 
ROOT
HETATM    1  O3  UNK     1      28.442  -5.504  39.542  1.00  0.00    -0.275 OA
HETATM    2  O4  UNK     1      29.580  -3.574  40.006  1.00  0.00    -0.260 OA
HETATM    3  C9  UNK     1      29.812  -5.599  37.068  1.00  0.00    -0.011 A 
HETATM    4  C10 UNK     1      28.843  -6.645  37.420  1.00  0.00     0.007 A 
HETATM    5  C11 UNK     1      30.035  -4.602  37.936  1.00  0.00     0.092 A 
HETATM    6  C12 UNK     1      28.186  -6.563  38.649  1.00  0.00     0.090 A 
HETATM    7  C13 UNK     1      28.534  -7.732  36.590  1.00  0.00     0.022 A 
HETATM    8  C14 UNK     1      27.600  -8.693  36.989  1.00  0.00    -0.058 A 
HETATM    9  C15 UNK     1      29.350  -4.502  39.237  1.00  0.00     0.288 A 
HETATM   10  C16 UNK     1      27.253  -7.515  39.061  1.00  0.00     0.039 A 
HETATM   11  C17 UNK     1      26.959  -8.586  38.222  1.00  0.00     0.010 A 
ENDROOT
BRANCH   3  12
HETATM   12  C6  UNK     1      30.529  -5.657  35.764  1.00  0.00     0.312 C 
BRANCH  12  13
HETATM   13  N1  UNK     1      31.980  -5.734  35.935  1.00  0.00     0.093 N 
HETATM   14  C4  UNK     1      32.667  -5.173  34.764  1.00  0.00     0.278 C 
HETATM   15  C2  UNK     1      34.186  -5.199  34.952  1.00  0.00     0.099 C 
HETATM   16  C1  UNK     1      34.696  -6.609  35.258  1.00  0.00     0.167 C 
HETATM   17  O1  UNK     1      36.085  -6.552  35.617  1.00  0.00    -0.353 OA
HETATM   18  O2  UNK     1      34.537  -7.429  34.088  1.00  0.00    -0.353 OA
HETATM   19  C3  UNK     1      33.904  -7.209  36.421  1.00  0.00     0.099 C 
HETATM   20  C7  UNK     1      36.774  -7.089  34.489  1.00  0.00     0.197 C 
HETATM   21  C8  UNK     1      35.795  -8.083  33.929  1.00  0.00     0.197 C 
HETATM   22  C5  UNK     1      32.394  -7.122  36.184  1.00  0.00     0.278 C 
ENDBRANCH  12  13
ENDBRANCH   3  12
BRANCH   8  23
HETATM   23  C18 UNK     1      27.286  -9.842  36.088  1.00  0.00     0.034 C 
HETATM   24  C19 UNK     1      26.036 -10.599  36.528  1.00  0.00     0.010 C 
ENDBRANCH   8  23
TORSDOF 3
ENDMDL
MODEL 5
REMARK VINA RESULT:      -8.0      1.748      3.861
REMARK  3 active torsions:
REMARK  status: ('A' for Active; 'I' for Inactive)
REMARK    1  A    between atoms: C6_11  and  N1_5 
REMARK    2  A    between atoms: C6_11  and  C9_14 
REMARK    3  A    between atoms: C14_19  and  C18_23 
ROOT
HETATM    1  O3  UNK     1      19.559  -1.198  32.958  1.00  0.00    -0.275 OA
HETATM    2  O4  UNK     1      20.974  -2.777  32.099  1.00  0.00    -0.260 OA
HETATM    3  C9  UNK     1      19.840  -2.458  35.475  1.00  0.00    -0.011 A 
HETATM    4  C10 UNK     1      18.986  -1.272  35.331  1.00  0.00     0.007 A 
HETATM    5  C11 UNK     1      20.481  -2.931  34.397  1.00  0.00     0.092 A 
HETATM    6  C12 UNK     1      18.872  -0.678  34.074  1.00  0.00     0.090 A 
HETATM    7  C13 UNK     1      18.272  -0.693  36.389  1.00  0.00     0.022 A 
HETATM    8  C14 UNK     1      17.476   0.438  36.181  1.00  0.00    -0.058 A 
HETATM    9  C15 UNK     1      20.372  -2.316  33.063  1.00  0.00     0.288 A 
HETATM   10  C16 UNK     1      18.083   0.451  33.850  1.00  0.00     0.039 A 
HETATM   11  C17 UNK     1      17.382   1.010  34.914  1.00  0.00     0.010 A 
ENDROOT
BRANCH   3  12
HETATM   12  C6  UNK     1      19.982  -3.116  36.805  1.00  0.00     0.312 C 
BRANCH  12  13
HETATM   13  N1  UNK     1      20.292  -4.541  36.684  1.00  0.00     0.093 N 
HETATM   14  C4  UNK     1      19.057  -5.334  36.632  1.00  0.00     0.278 C 
HETATM   15  C2  UNK     1      19.367  -6.823  36.454  1.00  0.00     0.099 C 
HETATM   16  C1  UNK     1      20.301  -7.344  37.547  1.00  0.00     0.167 C 
HETATM   17  O1  UNK     1      20.716  -8.681  37.232  1.00  0.00    -0.353 OA
HETATM   18  O2  UNK     1      19.599  -7.344  38.803  1.00  0.00    -0.353 OA
HETATM   19  C3  UNK     1      21.538  -6.448  37.647  1.00  0.00     0.099 C 
HETATM   20  C7  UNK     1      20.001  -9.509  38.146  1.00  0.00     0.197 C 
HETATM   21  C8  UNK     1      19.850  -8.633  39.359  1.00  0.00     0.197 C 
HETATM   22  C5  UNK     1      21.158  -4.972  37.791  1.00  0.00     0.278 C 
ENDBRANCH  12  13
ENDBRANCH   3  12
BRANCH   8  23
HETATM   23  C18 UNK     1      16.724   1.037  37.323  1.00  0.00     0.034 C 
HETATM   24  C19 UNK     1      17.635   1.385  38.498  1.00  0.00     0.010 C 
ENDBRANCH   8  23
TORSDOF 3
ENDMDL
MODEL 6
REMARK VINA RESULT:      -7.8      5.566     10.039
REMARK  3 active torsions:
REMARK  status: ('A' for Active; 'I' for Inactive)
REMARK    1  A    between atoms: C6_11  and  N1_5 
REMARK    2  A    between atoms: C6_11  and  C9_14 
REMARK    3  A    between atoms: C14_19  and  C18_23 
ROOT
HETATM    1  O3  UNK     1      18.862  -0.692  34.231  1.00  0.00    -0.275 OA
HETATM    2  O4  UNK     1      17.935   0.342  36.050  1.00  0.00    -0.260 OA
HETATM    3  C9  UNK     1      18.300   1.645  32.740  1.00  0.00    -0.011 A 
HETATM    4  C10 UNK     1      18.951   0.496  32.099  1.00  0.00     0.007 A 
HETATM    5  C11 UNK     1      17.977   1.567  34.039  1.00  0.00     0.092 A 
HETATM    6  C12 UNK     1      19.211  -0.640  32.867  1.00  0.00     0.090 A 
HETATM    7  C13 UNK     1      19.332   0.468  30.751  1.00  0.00     0.022 A 
HETATM    8  C14 UNK     1      19.950  -0.662  30.204  1.00  0.00    -0.058 A 
HETATM    9  C15 UNK     1      18.245   0.376  34.864  1.00  0.00     0.288 A 
HETATM   10  C16 UNK     1      19.828  -1.775  32.337  1.00  0.00     0.039 A 
HETATM   11  C17 UNK     1      20.197  -1.782  30.996  1.00  0.00     0.010 A 
ENDROOT
BRANCH   3  12
HETATM   12  C6  UNK     1      18.008   2.872  31.947  1.00  0.00     0.312 C 
BRANCH  12  13
HETATM   13  N1  UNK     1      18.787   4.023  32.405  1.00  0.00     0.093 N 
HETATM   14  C4  UNK     1      18.331   4.457  33.733  1.00  0.00     0.278 C 
HETATM   15  C2  UNK     1      19.172   5.628  34.247  1.00  0.00     0.099 C 
HETATM   16  C1  UNK     1      19.176   6.800  33.264  1.00  0.00     0.167 C 
HETATM   17  O1  UNK     1      20.126   7.787  33.692  1.00  0.00    -0.353 OA
HETATM   18  O2  UNK     1      17.862   7.384  33.225  1.00  0.00    -0.353 OA
HETATM   19  C3  UNK     1      19.563   6.309  31.867  1.00  0.00     0.099 C 
HETATM   20  C7  UNK     1      19.332   8.861  34.193  1.00  0.00     0.197 C 
HETATM   21  C8  UNK     1      18.084   8.787  33.358  1.00  0.00     0.197 C 
HETATM   22  C5  UNK     1      18.707   5.118  31.428  1.00  0.00     0.278 C 
ENDBRANCH  12  13
ENDBRANCH   3  12
BRANCH   8  23
HETATM   23  C18 UNK     1      20.346  -0.668  28.765  1.00  0.00     0.034 C 
HETATM   24  C19 UNK     1      19.143  -0.550  27.833  1.00  0.00     0.010 C 
ENDBRANCH   8  23
TORSDOF 3
ENDMDL
MODEL 7
REMARK VINA RESULT:      -7.7      6.616     11.237
REMARK  3 active torsions:
REMARK  status: ('A' for Active; 'I' for Inactive)
REMARK    1  A    between atoms: C6_11  and  N1_5 
REMARK    2  A    between atoms: C6_11  and  C9_14 
REMARK    3  A    between atoms: C14_19  and  C18_23 
ROOT
HETATM    1  O3  UNK     1      18.623   0.933  34.592  1.00  0.00    -0.275 OA
HETATM    2  O4  UNK     1      18.292   2.013  36.581  1.00  0.00    -0.260 OA
HETATM    3  C9  UNK     1      18.301   3.428  33.298  1.00  0.00    -0.011 A 
HETATM    4  C10 UNK     1      18.564   2.214  32.514  1.00  0.00     0.007 A 
HETATM    5  C11 UNK     1      18.217   3.333  34.632  1.00  0.00     0.092 A 
HETATM    6  C12 UNK     1      18.716   1.002  33.188  1.00  0.00     0.090 A 
HETATM    7  C13 UNK     1      18.673   2.198  31.117  1.00  0.00     0.022 A 
HETATM    8  C14 UNK     1      18.925   1.004  30.432  1.00  0.00    -0.058 A 
HETATM    9  C15 UNK     1      18.376   2.061  35.359  1.00  0.00     0.288 A 
HETATM   10  C16 UNK     1      18.969  -0.197  32.520  1.00  0.00     0.039 A 
HETATM   11  C17 UNK     1      19.073  -0.192  31.132  1.00  0.00     0.010 A 
ENDROOT
BRANCH   3  12
HETATM   12  C6  UNK     1      18.133   4.738  32.608  1.00  0.00     0.312 C 
BRANCH  12  13
HETATM   13  N1  UNK     1      17.497   5.736  33.468  1.00  0.00     0.093 N 
HETATM   14  C4  UNK     1      16.472   6.480  32.723  1.00  0.00     0.278 C 
HETATM   15  C2  UNK     1      15.763   7.493  33.626  1.00  0.00     0.099 C 
HETATM   16  C1  UNK     1      16.753   8.450  34.292  1.00  0.00     0.167 C 
HETATM   17  O1  UNK     1      16.069   9.248  35.270  1.00  0.00    -0.353 OA
HETATM   18  O2  UNK     1      17.323   9.308  33.288  1.00  0.00    -0.353 OA
HETATM   19  C3  UNK     1      17.863   7.656  34.984  1.00  0.00     0.099 C 
HETATM   20  C7  UNK     1      15.980  10.545  34.684  1.00  0.00     0.197 C 
HETATM   21  C8  UNK     1      17.216  10.623  33.831  1.00  0.00     0.197 C 
HETATM   22  C5  UNK     1      18.507   6.640  34.036  1.00  0.00     0.278 C 
ENDBRANCH  12  13
ENDBRANCH   3  12
BRANCH   8  23
HETATM   23  C18 UNK     1      19.036   1.011  28.944  1.00  0.00     0.034 C 
HETATM   24  C19 UNK     1      17.842   1.688  28.277  1.00  0.00     0.010 C 
ENDBRANCH   8  23
TORSDOF 3
ENDMDL
MODEL 8
REMARK VINA RESULT:      -7.6     28.175     30.296
REMARK  3 active torsions:
REMARK  status: ('A' for Active; 'I' for Inactive)
REMARK    1  A    between atoms: C6_11  and  N1_5 
REMARK    2  A    between atoms: C6_11  and  C9_14 
REMARK    3  A    between atoms: C14_19  and  C18_23 
ROOT
HETATM    1  O3  UNK     1      15.561   6.123  10.519  1.00  0.00    -0.275 OA
HETATM    2  O4  UNK     1      15.059   3.909  10.237  1.00  0.00    -0.260 OA
HETATM    3  C9  UNK     1      14.011   6.665   8.215  1.00  0.00    -0.011 A 
HETATM    4  C10 UNK     1      14.672   7.759   8.938  1.00  0.00     0.007 A 
HETATM    5  C11 UNK     1      14.155   5.410   8.664  1.00  0.00     0.092 A 
HETATM    6  C12 UNK     1      15.429   7.452  10.070  1.00  0.00     0.090 A 
HETATM    7  C13 UNK     1      14.588   9.106   8.560  1.00  0.00     0.022 A 
HETATM    8  C14 UNK     1      15.244  10.098   9.296  1.00  0.00    -0.058 A 
HETATM    9  C15 UNK     1      14.950   5.070   9.857  1.00  0.00     0.288 A 
HETATM   10  C16 UNK     1      16.087   8.431  10.815  1.00  0.00     0.039 A 
HETATM   11  C17 UNK     1      15.993   9.762  10.422  1.00  0.00     0.010 A 
ENDROOT
BRANCH   3  12
HETATM   12  C6  UNK     1      13.196   6.960   7.003  1.00  0.00     0.312 C 
BRANCH  12  13
HETATM   13  N1  UNK     1      11.771   7.082   7.313  1.00  0.00     0.093 N 
HETATM   14  C4  UNK     1      11.578   7.364   8.741  1.00  0.00     0.278 C 
HETATM   15  C2  UNK     1      10.094   7.546   9.070  1.00  0.00     0.099 C 
HETATM   16  C1  UNK     1       9.263   6.336   8.637  1.00  0.00     0.167 C 
HETATM   17  O1  UNK     1       7.866   6.631   8.785  1.00  0.00    -0.353 OA
HETATM   18  O2  UNK     1       9.606   5.211   9.466  1.00  0.00    -0.353 OA
HETATM   19  C3  UNK     1       9.550   6.004   7.171  1.00  0.00     0.099 C 
HETATM   20  C7  UNK     1       7.454   5.876   9.923  1.00  0.00     0.197 C 
HETATM   21  C8  UNK     1       8.353   4.671   9.881  1.00  0.00     0.197 C 
HETATM   22  C5  UNK     1      11.052   5.867   6.905  1.00  0.00     0.278 C 
ENDBRANCH  12  13
ENDBRANCH   3  12
BRANCH   8  23
HETATM   23  C18 UNK     1      15.141  11.526   8.872  1.00  0.00     0.034 C 
HETATM   24  C19 UNK     1      15.680  11.753   7.462  1.00  0.00     0.010 C 
ENDBRANCH   8  23
TORSDOF 3
ENDMDL
MODEL 9
REMARK VINA RESULT:      -7.5      6.618     10.078
REMARK  3 active torsions:
REMARK  status: ('A' for Active; 'I' for Inactive)
REMARK    1  A    between atoms: C6_11  and  N1_5 
REMARK    2  A    between atoms: C6_11  and  C9_14 
REMARK    3  A    between atoms: C14_19  and  C18_23 
ROOT
HETATM    1  O3  UNK     1      22.830 -11.441  35.512  1.00  0.00    -0.275 OA
HETATM    2  O4  UNK     1      24.645 -12.783  35.139  1.00  0.00    -0.260 OA
HETATM    3  C9  UNK     1      24.546  -9.672  36.900  1.00  0.00    -0.011 A 
HETATM    4  C10 UNK     1      23.117  -9.365  36.765  1.00  0.00     0.007 A 
HETATM    5  C11 UNK     1      25.021 -10.801  36.356  1.00  0.00     0.092 A 
HETATM    6  C12 UNK     1      22.301 -10.262  36.074  1.00  0.00     0.090 A 
HETATM    7  C13 UNK     1      22.514  -8.214  37.292  1.00  0.00     0.022 A 
HETATM    8  C14 UNK     1      21.144  -7.984  37.126  1.00  0.00    -0.058 A 
HETATM    9  C15 UNK     1      24.174 -11.759  35.623  1.00  0.00     0.288 A 
HETATM   10  C16 UNK     1      20.934 -10.046  35.899  1.00  0.00     0.039 A 
HETATM   11  C17 UNK     1      20.355  -8.898  36.431  1.00  0.00     0.010 A 
ENDROOT
BRANCH   3  12
HETATM   12  C6  UNK     1      25.443  -8.735  37.632  1.00  0.00     0.312 C 
BRANCH  12  13
HETATM   13  N1  UNK     1      26.854  -9.091  37.482  1.00  0.00     0.093 N 
HETATM   14  C4  UNK     1      27.501  -9.196  38.797  1.00  0.00     0.278 C 
HETATM   15  C2  UNK     1      28.966  -9.620  38.657  1.00  0.00     0.099 C 
HETATM   16  C1  UNK     1      29.745  -8.674  37.741  1.00  0.00     0.167 C 
HETATM   17  O1  UNK     1      31.050  -9.216  37.486  1.00  0.00    -0.353 OA
HETATM   18  O2  UNK     1      29.876  -7.396  38.388  1.00  0.00    -0.353 OA
HETATM   19  C3  UNK     1      29.006  -8.507  36.412  1.00  0.00     0.099 C 
HETATM   20  C7  UNK     1      31.938  -8.401  38.250  1.00  0.00     0.197 C 
HETATM   21  C8  UNK     1      31.256  -7.061  38.256  1.00  0.00     0.197 C 
HETATM   22  C5  UNK     1      27.541  -8.115  36.624  1.00  0.00     0.278 C 
ENDBRANCH  12  13
ENDBRANCH   3  12
BRANCH   8  23
HETATM   23  C18 UNK     1      20.525  -6.751  37.697  1.00  0.00     0.034 C 
HETATM   24  C19 UNK     1      20.227  -6.890  39.188  1.00  0.00     0.010 C 
ENDBRANCH   8  23
TORSDOF 3
ENDMDL
MODEL 10
REMARK VINA RESULT:      -7.5      4.247      8.874
REMARK  3 active torsions:
REMARK  status: ('A' for Active; 'I' for Inactive)
REMARK    1  A    between atoms: C6_11  and  N1_5 
REMARK    2  A    between atoms: C6_11  and  C9_14 
REMARK    3  A    between atoms: C14_19  and  C18_23 
ROOT
HETATM    1  O3  UNK     1      20.098  -2.438  34.888  1.00  0.00    -0.275 OA
HETATM    2  O4  UNK     1      19.336  -2.077  37.014  1.00  0.00    -0.260 OA
HETATM    3  C9  UNK     1      18.405  -0.339  34.031  1.00  0.00    -0.011 A 
HETATM    4  C10 UNK     1      19.244  -1.056  33.063  1.00  0.00     0.007 A 
HETATM    5  C11 UNK     1      18.455  -0.694  35.323  1.00  0.00     0.092 A 
HETATM    6  C12 UNK     1      20.066  -2.087  33.523  1.00  0.00     0.090 A 
HETATM    7  C13 UNK     1      19.272  -0.767  31.692  1.00  0.00     0.022 A 
HETATM    8  C14 UNK     1      20.097  -1.492  30.825  1.00  0.00    -0.058 A 
HETATM    9  C15 UNK     1      19.317  -1.779  35.825  1.00  0.00     0.288 A 
HETATM   10  C16 UNK     1      20.894  -2.818  32.671  1.00  0.00     0.039 A 
HETATM   11  C17 UNK     1      20.907  -2.516  31.313  1.00  0.00     0.010 A 
ENDROOT
BRANCH   3  12
HETATM   12  C6  UNK     1      17.517   0.766  33.571  1.00  0.00     0.312 C 
BRANCH  12  13
HETATM   13  N1  UNK     1      18.263   1.994  33.295  1.00  0.00     0.093 N 
HETATM   14  C4  UNK     1      18.010   2.996  34.339  1.00  0.00     0.278 C 
HETATM   15  C2  UNK     1      18.825   4.268  34.090  1.00  0.00     0.099 C 
HETATM   16  C1  UNK     1      18.557   4.851  32.701  1.00  0.00     0.167 C 
HETATM   17  O1  UNK     1      19.479   5.920  32.440  1.00  0.00    -0.353 OA
HETATM   18  O2  UNK     1      17.211   5.357  32.657  1.00  0.00    -0.353 OA
HETATM   19  C3  UNK     1      18.736   3.767  31.636  1.00  0.00     0.099 C 
HETATM   20  C7  UNK     1      18.696   7.108  32.540  1.00  0.00     0.197 C 
HETATM   21  C8  UNK     1      17.333   6.660  32.090  1.00  0.00     0.197 C 
HETATM   22  C5  UNK     1      17.921   2.512  31.962  1.00  0.00     0.278 C 
ENDBRANCH  12  13
ENDBRANCH   3  12
BRANCH   8  23
HETATM   23  C18 UNK     1      20.109  -1.167  29.368  1.00  0.00     0.034 C 
HETATM   24  C19 UNK     1      19.742   0.289  29.096  1.00  0.00     0.010 C 
ENDBRANCH   8  23
TORSDOF 3
ENDMDL
