MODEL 1
REMARK VINA RESULT:      -9.1      0.000      0.000
REMARK  4 active torsions:
REMARK  status: ('A' for Active; 'I' for Inactive)
REMARK    1  A    between atoms: C5_10  and  O2_2 
REMARK    2  A    between atoms: C10_15  and  O4_4 
REMARK    3  A    between atoms: C13_18  and  O5_5 
REMARK    4  A    between atoms: C2_7  and  C4_9 
ROOT
HETATM    1  O1  UNK     1      18.819  -0.266  32.840  1.00  0.00    -0.306 OA
HETATM    2  O3  UNK     1      18.903   2.830  30.191  1.00  0.00    -0.284 OA
HETATM    3  C1  UNK     1      19.431   0.577  30.647  1.00  0.00     0.051 A 
HETATM    4  C2  UNK     1      18.282   0.972  33.157  1.00  0.00     0.123 A 
HETATM    5  C3  UNK     1      19.374  -0.439  31.598  1.00  0.00     0.093 A 
HETATM    6  C5  UNK     1      18.282   2.037  32.334  1.00  0.00     0.152 A 
HETATM    7  C6  UNK     1      18.876   1.897  30.983  1.00  0.00     0.220 A 
HETATM    8  C7  UNK     1      20.010   0.342  29.397  1.00  0.00     0.021 A 
HETATM    9  C8  UNK     1      19.896  -1.699  31.305  1.00  0.00     0.074 A 
HETATM   10  C10 UNK     1      20.474  -1.937  30.057  1.00  0.00     0.068 A 
HETATM   11  C12 UNK     1      20.532  -0.918  29.106  1.00  0.00     0.037 A 
ENDROOT
BRANCH   4  12
HETATM   12  C4  UNK     1      17.719   1.023  34.517  1.00  0.00     0.003 A 
HETATM   13  C11 UNK     1      16.468   0.462  34.776  1.00  0.00     0.014 A 
HETATM   14  C14 UNK     1      15.934   0.511  36.064  1.00  0.00     0.004 A 
HETATM   15  C15 UNK     1      16.651   1.120  37.094  1.00  0.00     0.036 A 
HETATM   16  C13 UNK     1      17.902   1.681  36.836  1.00  0.00     0.066 A 
HETATM   17  C9  UNK     1      18.436   1.633  35.548  1.00  0.00     0.051 A 
BRANCH  16  18
HETATM   18  O5  UNK     1      18.602   2.274  37.841  1.00  0.00    -0.361 OA
HETATM   19  H10 UNK     1      19.164   2.972  37.464  1.00  0.00     0.217 HD
ENDBRANCH  16  18
ENDBRANCH   4  12
BRANCH   6  20
HETATM   20  O2  UNK     1      17.769   3.264  32.692  1.00  0.00    -0.355 OA
HETATM   21  H8  UNK     1      17.587   3.280  33.646  1.00  0.00     0.218 HD
ENDBRANCH   6  20
BRANCH  10  22
HETATM   22  O4  UNK     1      20.984  -3.167  29.769  1.00  0.00    -0.361 OA
HETATM   23  H9  UNK     1      20.250  -3.771  29.564  1.00  0.00     0.217 HD
ENDBRANCH  10  22
TORSDOF 4
ENDMDL
MODEL 2
REMARK VINA RESULT:      -8.3      1.672      3.044
REMARK  4 active torsions:
REMARK  status: ('A' for Active; 'I' for Inactive)
REMARK    1  A    between atoms: C5_10  and  O2_2 
REMARK    2  A    between atoms: C10_15  and  O4_4 
REMARK    3  A    between atoms: C13_18  and  O5_5 
REMARK    4  A    between atoms: C2_7  and  C4_9 
ROOT
HETATM    1  O1  UNK     1      18.604   0.017  32.835  1.00  0.00    -0.306 OA
HETATM    2  O3  UNK     1      20.812  -3.385  33.234  1.00  0.00    -0.284 OA
HETATM    3  C1  UNK     1      20.043  -1.657  31.824  1.00  0.00     0.051 A 
HETATM    4  C2  UNK     1      18.715  -0.635  34.053  1.00  0.00     0.123 A 
HETATM    5  C3  UNK     1      19.269  -0.500  31.754  1.00  0.00     0.093 A 
HETATM    6  C5  UNK     1      19.421  -1.763  34.253  1.00  0.00     0.152 A 
HETATM    7  C6  UNK     1      20.153  -2.361  33.111  1.00  0.00     0.220 A 
HETATM    8  C7  UNK     1      20.698  -2.138  30.688  1.00  0.00     0.021 A 
HETATM    9  C8  UNK     1      19.147   0.185  30.544  1.00  0.00     0.074 A 
HETATM   10  C10 UNK     1      19.801  -0.293  29.408  1.00  0.00     0.068 A 
HETATM   11  C12 UNK     1      20.574  -1.452  29.479  1.00  0.00     0.037 A 
ENDROOT
BRANCH   4  12
HETATM   12  C4  UNK     1      17.953   0.023  35.129  1.00  0.00     0.003 A 
HETATM   13  C11 UNK     1      16.574  -0.167  35.223  1.00  0.00     0.014 A 
HETATM   14  C14 UNK     1      15.851   0.456  36.242  1.00  0.00     0.004 A 
HETATM   15  C15 UNK     1      16.508   1.268  37.166  1.00  0.00     0.036 A 
HETATM   16  C13 UNK     1      17.886   1.458  37.073  1.00  0.00     0.066 A 
HETATM   17  C9  UNK     1      18.609   0.836  36.054  1.00  0.00     0.051 A 
BRANCH  16  18
HETATM   18  O5  UNK     1      18.526   2.249  37.976  1.00  0.00    -0.361 OA
HETATM   19  H10 UNK     1      18.768   1.712  38.750  1.00  0.00     0.217 HD
ENDBRANCH  16  18
ENDBRANCH   4  12
BRANCH   6  20
HETATM   20  O2  UNK     1      19.484  -2.405  35.471  1.00  0.00    -0.355 OA
HETATM   21  H8  UNK     1      18.704  -2.969  35.587  1.00  0.00     0.218 HD
ENDBRANCH   6  20
BRANCH  10  22
HETATM   22  O4  UNK     1      19.682   0.374  28.226  1.00  0.00    -0.361 OA
HETATM   23  H9  UNK     1      19.600   1.326  28.410  1.00  0.00     0.217 HD
ENDBRANCH  10  22
TORSDOF 4
ENDMDL
MODEL 3
REMARK VINA RESULT:      -8.3      1.972      3.373
REMARK  4 active torsions:
REMARK  status: ('A' for Active; 'I' for Inactive)
REMARK    1  A    between atoms: C5_10  and  O2_2 
REMARK    2  A    between atoms: C10_15  and  O4_4 
REMARK    3  A    between atoms: C13_18  and  O5_5 
REMARK    4  A    between atoms: C2_7  and  C4_9 
ROOT
HETATM    1  O1  UNK     1      18.646   0.140  32.924  1.00  0.00    -0.306 OA
HETATM    2  O3  UNK     1      20.672  -3.369  33.357  1.00  0.00    -0.284 OA
HETATM    3  C1  UNK     1      19.988  -1.621  31.929  1.00  0.00     0.051 A 
HETATM    4  C2  UNK     1      18.729  -0.501  34.150  1.00  0.00     0.123 A 
HETATM    5  C3  UNK     1      19.277  -0.426  31.847  1.00  0.00     0.093 A 
HETATM    6  C5  UNK     1      19.374  -1.662  34.362  1.00  0.00     0.152 A 
HETATM    7  C6  UNK     1      20.068  -2.313  33.224  1.00  0.00     0.220 A 
HETATM    8  C7  UNK     1      20.610  -2.152  30.796  1.00  0.00     0.021 A 
HETATM    9  C8  UNK     1      19.184   0.248  30.629  1.00  0.00     0.074 A 
HETATM   10  C10 UNK     1      19.805  -0.278  29.496  1.00  0.00     0.068 A 
HETATM   11  C12 UNK     1      20.516  -1.476  29.579  1.00  0.00     0.037 A 
ENDROOT
BRANCH   4  12
HETATM   12  C4  UNK     1      18.010   0.211  35.221  1.00  0.00     0.003 A 
HETATM   13  C11 UNK     1      18.715   1.001  36.129  1.00  0.00     0.014 A 
HETATM   14  C14 UNK     1      18.035   1.675  37.144  1.00  0.00     0.004 A 
HETATM   15  C15 UNK     1      16.649   1.559  37.251  1.00  0.00     0.036 A 
HETATM   16  C13 UNK     1      15.943   0.769  36.344  1.00  0.00     0.066 A 
HETATM   17  C9  UNK     1      16.624   0.095  35.329  1.00  0.00     0.051 A 
BRANCH  16  18
HETATM   18  O5  UNK     1      14.591   0.658  36.447  1.00  0.00    -0.361 OA
HETATM   19  H10 UNK     1      14.217   0.529  35.559  1.00  0.00     0.217 HD
ENDBRANCH  16  18
ENDBRANCH   4  12
BRANCH   6  20
HETATM   20  O2  UNK     1      19.411  -2.291  35.588  1.00  0.00    -0.355 OA
HETATM   21  H8  UNK     1      19.792  -1.695  36.252  1.00  0.00     0.218 HD
ENDBRANCH   6  20
BRANCH  10  22
HETATM   22  O4  UNK     1      19.716   0.379  28.306  1.00  0.00    -0.361 OA
HETATM   23  H9  UNK     1      20.529   0.896  28.171  1.00  0.00     0.217 HD
ENDBRANCH  10  22
TORSDOF 4
ENDMDL
MODEL 4
REMARK VINA RESULT:      -8.3     12.971     17.105
REMARK  4 active torsions:
REMARK  status: ('A' for Active; 'I' for Inactive)
REMARK    1  A    between atoms: C5_10  and  O2_2 
REMARK    2  A    between atoms: C10_15  and  O4_4 
REMARK    3  A    between atoms: C13_18  and  O5_5 
REMARK    4  A    between atoms: C2_7  and  C4_9 
ROOT
HETATM    1  O1  UNK     1      19.093  -1.012  17.635  1.00  0.00    -0.306 OA
HETATM    2  O3  UNK     1      19.344   2.338  15.328  1.00  0.00    -0.284 OA
HETATM    3  C1  UNK     1      19.182   1.410  17.491  1.00  0.00     0.051 A 
HETATM    4  C2  UNK     1      19.191  -1.090  16.255  1.00  0.00     0.123 A 
HETATM    5  C3  UNK     1      19.096   0.227  18.222  1.00  0.00     0.093 A 
HETATM    6  C5  UNK     1      19.270  -0.027  15.434  1.00  0.00     0.152 A 
HETATM    7  C6  UNK     1      19.272   1.334  16.024  1.00  0.00     0.220 A 
HETATM    8  C7  UNK     1      19.180   2.645  18.144  1.00  0.00     0.021 A 
HETATM    9  C8  UNK     1      19.007   0.272  19.614  1.00  0.00     0.074 A 
HETATM   10  C10 UNK     1      19.005   1.504  20.269  1.00  0.00     0.068 A 
HETATM   11  C12 UNK     1      19.091   2.688  19.535  1.00  0.00     0.037 A 
ENDROOT
BRANCH   4  12
HETATM   12  C4  UNK     1      19.176  -2.476  15.755  1.00  0.00     0.003 A 
HETATM   13  C11 UNK     1      17.967  -3.077  15.403  1.00  0.00     0.014 A 
HETATM   14  C14 UNK     1      17.951  -4.389  14.929  1.00  0.00     0.004 A 
HETATM   15  C15 UNK     1      19.145  -5.101  14.807  1.00  0.00     0.036 A 
HETATM   16  C13 UNK     1      20.353  -4.500  15.159  1.00  0.00     0.066 A 
HETATM   17  C9  UNK     1      20.369  -3.188  15.633  1.00  0.00     0.051 A 
BRANCH  16  18
HETATM   18  O5  UNK     1      21.518  -5.194  15.038  1.00  0.00    -0.361 OA
HETATM   19  H10 UNK     1      21.340  -6.029  14.572  1.00  0.00     0.217 HD
ENDBRANCH  16  18
ENDBRANCH   4  12
BRANCH   6  20
HETATM   20  O2  UNK     1      19.334  -0.138  14.063  1.00  0.00    -0.355 OA
HETATM   21  H8  UNK     1      19.035   0.689  13.651  1.00  0.00     0.218 HD
ENDBRANCH   6  20
BRANCH  10  22
HETATM   22  O4  UNK     1      18.919   1.551  21.627  1.00  0.00    -0.361 OA
HETATM   23  H9  UNK     1      19.543   0.906  22.004  1.00  0.00     0.217 HD
ENDBRANCH  10  22
TORSDOF 4
ENDMDL
MODEL 5
REMARK VINA RESULT:      -8.3     23.912     26.134
REMARK  4 active torsions:
REMARK  status: ('A' for Active; 'I' for Inactive)
REMARK    1  A    between atoms: C5_10  and  O2_2 
REMARK    2  A    between atoms: C10_15  and  O4_4 
REMARK    3  A    between atoms: C13_18  and  O5_5 
REMARK    4  A    between atoms: C2_7  and  C4_9 
ROOT
HETATM    1  O1  UNK     1      13.262   7.572   8.478  1.00  0.00    -0.306 OA
HETATM    2  O3  UNK     1      15.246   4.242   9.739  1.00  0.00    -0.284 OA
HETATM    3  C1  UNK     1      15.227   6.590   9.513  1.00  0.00     0.051 A 
HETATM    4  C2  UNK     1      12.710   6.307   8.348  1.00  0.00     0.123 A 
HETATM    5  C3  UNK     1      14.499   7.687   9.059  1.00  0.00     0.093 A 
HETATM    6  C5  UNK     1      13.311   5.168   8.735  1.00  0.00     0.152 A 
HETATM    7  C6  UNK     1      14.651   5.244   9.365  1.00  0.00     0.220 A 
HETATM    8  C7  UNK     1      16.484   6.769  10.097  1.00  0.00     0.021 A 
HETATM    9  C8  UNK     1      15.024   8.974   9.187  1.00  0.00     0.074 A 
HETATM   10  C10 UNK     1      16.278   9.156   9.770  1.00  0.00     0.068 A 
HETATM   11  C12 UNK     1      17.007   8.057  10.224  1.00  0.00     0.037 A 
ENDROOT
BRANCH   4  12
HETATM   12  C4  UNK     1      11.382   6.323   7.709  1.00  0.00     0.003 A 
HETATM   13  C11 UNK     1      11.276   6.250   6.319  1.00  0.00     0.014 A 
HETATM   14  C14 UNK     1      10.020   6.265   5.713  1.00  0.00     0.004 A 
HETATM   15  C15 UNK     1       8.869   6.354   6.496  1.00  0.00     0.036 A 
HETATM   16  C13 UNK     1       8.974   6.428   7.884  1.00  0.00     0.066 A 
HETATM   17  C9  UNK     1      10.231   6.412   8.491  1.00  0.00     0.051 A 
BRANCH  16  18
HETATM   18  O5  UNK     1       7.851   6.513   8.648  1.00  0.00    -0.361 OA
HETATM   19  H10 UNK     1       7.440   5.633   8.702  1.00  0.00     0.217 HD
ENDBRANCH  16  18
ENDBRANCH   4  12
BRANCH   6  20
HETATM   20  O2  UNK     1      12.747   3.923   8.561  1.00  0.00    -0.355 OA
HETATM   21  H8  UNK     1      12.113   3.746   9.274  1.00  0.00     0.218 HD
ENDBRANCH   6  20
BRANCH  10  22
HETATM   22  O4  UNK     1      16.793  10.411   9.895  1.00  0.00    -0.361 OA
HETATM   23  H9  UNK     1      17.609  10.470   9.369  1.00  0.00     0.217 HD
ENDBRANCH  10  22
TORSDOF 4
ENDMDL
MODEL 6
REMARK VINA RESULT:      -8.3      2.355      6.860
REMARK  4 active torsions:
REMARK  status: ('A' for Active; 'I' for Inactive)
REMARK    1  A    between atoms: C5_10  and  O2_2 
REMARK    2  A    between atoms: C10_15  and  O4_4 
REMARK    3  A    between atoms: C13_18  and  O5_5 
REMARK    4  A    between atoms: C2_7  and  C4_9 
ROOT
HETATM    1  O1  UNK     1      18.766  -0.622  33.652  1.00  0.00    -0.306 OA
HETATM    2  O3  UNK     1      20.666  -3.590  35.699  1.00  0.00    -0.284 OA
HETATM    3  C1  UNK     1      19.133  -1.798  35.744  1.00  0.00     0.051 A 
HETATM    4  C2  UNK     1      19.657  -1.478  33.025  1.00  0.00     0.123 A 
HETATM    5  C3  UNK     1      18.519  -0.801  34.989  1.00  0.00     0.093 A 
HETATM    6  C5  UNK     1      20.323  -2.472  33.640  1.00  0.00     0.152 A 
HETATM    7  C6  UNK     1      20.091  -2.700  35.087  1.00  0.00     0.220 A 
HETATM    8  C7  UNK     1      18.843  -1.932  37.105  1.00  0.00     0.021 A 
HETATM    9  C8  UNK     1      17.608   0.069  35.590  1.00  0.00     0.074 A 
HETATM   10  C10 UNK     1      17.316  -0.063  36.948  1.00  0.00     0.068 A 
HETATM   11  C12 UNK     1      17.932  -1.061  37.704  1.00  0.00     0.037 A 
ENDROOT
BRANCH   4  12
HETATM   12  C4  UNK     1      19.832  -1.177  31.593  1.00  0.00     0.003 A 
HETATM   13  C11 UNK     1      20.243  -2.181  30.715  1.00  0.00     0.014 A 
HETATM   14  C14 UNK     1      20.409  -1.897  29.359  1.00  0.00     0.004 A 
HETATM   15  C15 UNK     1      20.163  -0.610  28.880  1.00  0.00     0.036 A 
HETATM   16  C13 UNK     1      19.752   0.393  29.757  1.00  0.00     0.066 A 
HETATM   17  C9  UNK     1      19.586   0.110  31.114  1.00  0.00     0.051 A 
BRANCH  16  18
HETATM   18  O5  UNK     1      19.511   1.648  29.290  1.00  0.00    -0.361 OA
HETATM   19  H10 UNK     1      20.360   2.092  29.128  1.00  0.00     0.217 HD
ENDBRANCH  16  18
ENDBRANCH   4  12
BRANCH   6  20
HETATM   20  O2  UNK     1      21.228  -3.285  32.994  1.00  0.00    -0.355 OA
HETATM   21  H8  UNK     1      21.620  -2.810  32.243  1.00  0.00     0.218 HD
ENDBRANCH   6  20
BRANCH  10  22
HETATM   22  O4  UNK     1      16.427   0.785  37.536  1.00  0.00    -0.361 OA
HETATM   23  H9  UNK     1      15.670   0.269  37.863  1.00  0.00     0.217 HD
ENDBRANCH  10  22
TORSDOF 4
ENDMDL
MODEL 7
REMARK VINA RESULT:      -7.7     23.949     26.183
REMARK  4 active torsions:
REMARK  status: ('A' for Active; 'I' for Inactive)
REMARK    1  A    between atoms: C5_10  and  O2_2 
REMARK    2  A    between atoms: C10_15  and  O4_4 
REMARK    3  A    between atoms: C13_18  and  O5_5 
REMARK    4  A    between atoms: C2_7  and  C4_9 
ROOT
HETATM    1  O1  UNK     1      12.678   6.532   8.471  1.00  0.00    -0.306 OA
HETATM    2  O3  UNK     1      13.563  10.049  10.330  1.00  0.00    -0.284 OA
HETATM    3  C1  UNK     1      14.277   7.895   9.688  1.00  0.00     0.051 A 
HETATM    4  C2  UNK     1      11.760   7.569   8.533  1.00  0.00     0.123 A 
HETATM    5  C3  UNK     1      13.912   6.716   9.041  1.00  0.00     0.093 A 
HETATM    6  C5  UNK     1      11.984   8.751   9.136  1.00  0.00     0.152 A 
HETATM    7  C6  UNK     1      13.302   8.993   9.769  1.00  0.00     0.220 A 
HETATM    8  C7  UNK     1      15.550   8.025  10.251  1.00  0.00     0.021 A 
HETATM    9  C8  UNK     1      14.818   5.659   8.953  1.00  0.00     0.074 A 
HETATM   10  C10 UNK     1      16.089   5.786   9.513  1.00  0.00     0.068 A 
HETATM   11  C12 UNK     1      16.454   6.967  10.162  1.00  0.00     0.037 A 
ENDROOT
BRANCH   4  12
HETATM   12  C4  UNK     1      10.478   7.241   7.885  1.00  0.00     0.003 A 
HETATM   13  C11 UNK     1      10.463   6.756   6.577  1.00  0.00     0.014 A 
HETATM   14  C14 UNK     1       9.250   6.445   5.962  1.00  0.00     0.004 A 
HETATM   15  C15 UNK     1       8.052   6.620   6.655  1.00  0.00     0.036 A 
HETATM   16  C13 UNK     1       8.067   7.106   7.962  1.00  0.00     0.066 A 
HETATM   17  C9  UNK     1       9.280   7.416   8.577  1.00  0.00     0.051 A 
BRANCH  16  18
HETATM   18  O5  UNK     1       6.898   7.274   8.638  1.00  0.00    -0.361 OA
HETATM   19  H10 UNK     1       6.933   8.116   9.123  1.00  0.00     0.217 HD
ENDBRANCH  16  18
ENDBRANCH   4  12
BRANCH   6  20
HETATM   20  O2  UNK     1      11.037   9.750   9.208  1.00  0.00    -0.355 OA
HETATM   21  H8  UNK     1      11.409  10.523   9.661  1.00  0.00     0.218 HD
ENDBRANCH   6  20
BRANCH  10  22
HETATM   22  O4  UNK     1      16.975   4.755   9.428  1.00  0.00    -0.361 OA
HETATM   23  H9  UNK     1      16.941   4.386   8.529  1.00  0.00     0.217 HD
ENDBRANCH  10  22
TORSDOF 4
ENDMDL
MODEL 8
REMARK VINA RESULT:      -7.7      3.158      5.102
REMARK  4 active torsions:
REMARK  status: ('A' for Active; 'I' for Inactive)
REMARK    1  A    between atoms: C5_10  and  O2_2 
REMARK    2  A    between atoms: C10_15  and  O4_4 
REMARK    3  A    between atoms: C13_18  and  O5_5 
REMARK    4  A    between atoms: C2_7  and  C4_9 
ROOT
HETATM    1  O1  UNK     1      18.074   3.099  33.129  1.00  0.00    -0.306 OA
HETATM    2  O3  UNK     1      19.360   1.673  29.535  1.00  0.00    -0.284 OA
HETATM    3  C1  UNK     1      18.755   1.208  31.767  1.00  0.00     0.051 A 
HETATM    4  C2  UNK     1      18.263   3.939  32.043  1.00  0.00     0.123 A 
HETATM    5  C3  UNK     1      18.317   1.759  32.969  1.00  0.00     0.093 A 
HETATM    6  C5  UNK     1      18.691   3.537  30.833  1.00  0.00     0.152 A 
HETATM    7  C6  UNK     1      18.970   2.097  30.615  1.00  0.00     0.220 A 
HETATM    8  C7  UNK     1      18.987  -0.166  31.663  1.00  0.00     0.021 A 
HETATM    9  C8  UNK     1      18.108   0.937  34.077  1.00  0.00     0.074 A 
HETATM   10  C10 UNK     1      18.338  -0.435  33.976  1.00  0.00     0.068 A 
HETATM   11  C12 UNK     1      18.777  -0.985  32.772  1.00  0.00     0.037 A 
ENDROOT
BRANCH   4  12
HETATM   12  C4  UNK     1      17.967   5.350  32.350  1.00  0.00     0.003 A 
HETATM   13  C11 UNK     1      18.292   5.874  33.601  1.00  0.00     0.014 A 
HETATM   14  C14 UNK     1      18.012   7.210  33.893  1.00  0.00     0.004 A 
HETATM   15  C15 UNK     1      17.409   8.021  32.932  1.00  0.00     0.036 A 
HETATM   16  C13 UNK     1      17.084   7.498  31.681  1.00  0.00     0.066 A 
HETATM   17  C9  UNK     1      17.364   6.162  31.390  1.00  0.00     0.051 A 
BRANCH  16  18
HETATM   18  O5  UNK     1      16.497   8.291  30.744  1.00  0.00    -0.361 OA
HETATM   19  H10 UNK     1      16.562   9.217  31.030  1.00  0.00     0.217 HD
ENDBRANCH  16  18
ENDBRANCH   4  12
BRANCH   6  20
HETATM   20  O2  UNK     1      18.899   4.404  29.782  1.00  0.00    -0.355 OA
HETATM   21  H8  UNK     1      18.047   4.726  29.447  1.00  0.00     0.218 HD
ENDBRANCH   6  20
BRANCH  10  22
HETATM   22  O4  UNK     1      18.134  -1.239  35.057  1.00  0.00    -0.361 OA
HETATM   23  H9  UNK     1      17.312  -1.742  34.924  1.00  0.00     0.217 HD
ENDBRANCH  10  22
TORSDOF 4
ENDMDL
MODEL 9
REMARK VINA RESULT:      -7.6     23.390     26.297
REMARK  4 active torsions:
REMARK  status: ('A' for Active; 'I' for Inactive)
REMARK    1  A    between atoms: C5_10  and  O2_2 
REMARK    2  A    between atoms: C10_15  and  O4_4 
REMARK    3  A    between atoms: C13_18  and  O5_5 
REMARK    4  A    between atoms: C2_7  and  C4_9 
ROOT
HETATM    1  O1  UNK     1      11.368   7.482   9.311  1.00  0.00    -0.306 OA
HETATM    2  O3  UNK     1      11.798   6.037   5.525  1.00  0.00    -0.284 OA
HETATM    3  C1  UNK     1      10.340   6.741   7.240  1.00  0.00     0.051 A 
HETATM    4  C2  UNK     1      12.619   7.245   8.765  1.00  0.00     0.123 A 
HETATM    5  C3  UNK     1      10.261   7.231   8.541  1.00  0.00     0.093 A 
HETATM    6  C5  UNK     1      12.833   6.763   7.527  1.00  0.00     0.152 A 
HETATM    7  C6  UNK     1      11.665   6.474   6.660  1.00  0.00     0.220 A 
HETATM    8  C7  UNK     1       9.177   6.504   6.503  1.00  0.00     0.021 A 
HETATM    9  C8  UNK     1       9.015   7.490   9.115  1.00  0.00     0.074 A 
HETATM   10  C10 UNK     1       7.852   7.256   8.381  1.00  0.00     0.068 A 
HETATM   11  C12 UNK     1       7.932   6.763   7.078  1.00  0.00     0.037 A 
ENDROOT
BRANCH   4  12
HETATM   12  C4  UNK     1      13.720   7.554   9.694  1.00  0.00     0.003 A 
HETATM   13  C11 UNK     1      13.549   8.529  10.678  1.00  0.00     0.014 A 
HETATM   14  C14 UNK     1      14.591   8.822  11.559  1.00  0.00     0.004 A 
HETATM   15  C15 UNK     1      15.804   8.141  11.456  1.00  0.00     0.036 A 
HETATM   16  C13 UNK     1      15.975   7.167  10.473  1.00  0.00     0.066 A 
HETATM   17  C9  UNK     1      14.933   6.873   9.592  1.00  0.00     0.051 A 
BRANCH  16  18
HETATM   18  O5  UNK     1      17.158   6.501  10.374  1.00  0.00    -0.361 OA
HETATM   19  H10 UNK     1      17.015   5.676   9.880  1.00  0.00     0.217 HD
ENDBRANCH  16  18
ENDBRANCH   4  12
BRANCH   6  20
HETATM   20  O2  UNK     1      14.091   6.508   7.025  1.00  0.00    -0.355 OA
HETATM   21  H8  UNK     1      14.640   7.306   7.090  1.00  0.00     0.218 HD
ENDBRANCH   6  20
BRANCH  10  22
HETATM   22  O4  UNK     1       6.635   7.507   8.940  1.00  0.00    -0.361 OA
HETATM   23  H9  UNK     1       6.746   8.158   9.655  1.00  0.00     0.217 HD
ENDBRANCH  10  22
TORSDOF 4
ENDMDL
MODEL 10
REMARK VINA RESULT:      -7.6      6.024      9.092
REMARK  4 active torsions:
REMARK  status: ('A' for Active; 'I' for Inactive)
REMARK    1  A    between atoms: C5_10  and  O2_2 
REMARK    2  A    between atoms: C10_15  and  O4_4 
REMARK    3  A    between atoms: C13_18  and  O5_5 
REMARK    4  A    between atoms: C2_7  and  C4_9 
ROOT
HETATM    1  O1  UNK     1      16.781   7.445  32.206  1.00  0.00    -0.306 OA
HETATM    2  O3  UNK     1      19.450   9.462  34.532  1.00  0.00    -0.284 OA
HETATM    3  C1  UNK     1      17.287   9.370  33.595  1.00  0.00     0.051 A 
HETATM    4  C2  UNK     1      18.054   6.950  32.441  1.00  0.00     0.123 A 
HETATM    5  C3  UNK     1      16.424   8.634  32.787  1.00  0.00     0.093 A 
HETATM    6  C5  UNK     1      18.985   7.566  33.191  1.00  0.00     0.152 A 
HETATM    7  C6  UNK     1      18.645   8.857  33.837  1.00  0.00     0.220 A 
HETATM    8  C7  UNK     1      16.868  10.576  34.162  1.00  0.00     0.021 A 
HETATM    9  C8  UNK     1      15.132   9.100  32.541  1.00  0.00     0.074 A 
HETATM   10  C10 UNK     1      14.710  10.304  33.105  1.00  0.00     0.068 A 
HETATM   11  C12 UNK     1      15.576  11.041  33.914  1.00  0.00     0.037 A 
ENDROOT
BRANCH   4  12
HETATM   12  C4  UNK     1      18.309   5.669  31.758  1.00  0.00     0.003 A 
HETATM   13  C11 UNK     1      18.883   5.659  30.487  1.00  0.00     0.014 A 
HETATM   14  C14 UNK     1      19.125   4.447  29.839  1.00  0.00     0.004 A 
HETATM   15  C15 UNK     1      18.792   3.245  30.463  1.00  0.00     0.036 A 
HETATM   16  C13 UNK     1      18.218   3.254  31.734  1.00  0.00     0.066 A 
HETATM   17  C9  UNK     1      17.977   4.467  32.382  1.00  0.00     0.051 A 
BRANCH  16  18
HETATM   18  O5  UNK     1      17.896   2.081  32.343  1.00  0.00    -0.361 OA
HETATM   19  H10 UNK     1      17.052   2.192  32.814  1.00  0.00     0.217 HD
ENDBRANCH  16  18
ENDBRANCH   4  12
BRANCH   6  20
HETATM   20  O2  UNK     1      20.254   7.063  33.379  1.00  0.00    -0.355 OA
HETATM   21  H8  UNK     1      20.685   6.928  32.520  1.00  0.00     0.218 HD
ENDBRANCH   6  20
BRANCH  10  22
HETATM   22  O4  UNK     1      13.449  10.760  32.866  1.00  0.00    -0.361 OA
HETATM   23  H9  UNK     1      13.363  11.656  33.236  1.00  0.00     0.217 HD
ENDBRANCH  10  22
TORSDOF 4
ENDMDL
