MODEL 1
REMARK VINA RESULT:      -8.2      0.000      0.000
REMARK  6 active torsions:
REMARK  status: ('A' for Active; 'I' for Inactive)
REMARK    1  A    between atoms: C2_8  and  O1_4 
REMARK    2  A    between atoms: C3_9  and  O1_4 
REMARK    3  A    between atoms: C5_11  and  O2_5 
REMARK    4  A    between atoms: C1_7  and  C2_8 
REMARK    5  A    between atoms: C12_18  and  C4_10 
REMARK    6  A    between atoms: C15_21  and  C16_22 
ROOT
HETATM    1  N1  UNK     1      29.190  -6.281  34.498  1.00  0.00    -0.191 NA
HETATM    2  C12 UNK     1      30.600  -7.611  37.412  1.00  0.00     0.036 C 
HETATM    3  C15 UNK     1      30.931  -7.082  36.227  1.00  0.00     0.057 C 
HETATM    4  C24 UNK     1      29.977  -6.640  35.271  1.00  0.00     0.100 C 
ENDROOT
BRANCH   3   5
HETATM    5  C16 UNK     1      32.348  -6.995  35.896  1.00  0.00     0.006 A 
HETATM    6  C18 UNK     1      33.112  -5.866  36.191  1.00  0.00     0.047 A 
HETATM    7 Cl1  UNK     1      32.431  -4.482  36.972  1.00  0.00    -0.083 Cl
HETATM    8  C20 UNK     1      34.465  -5.832  35.855  1.00  0.00     0.048 A 
HETATM    9  C22 UNK     1      35.055  -6.928  35.224  1.00  0.00     0.035 A 
HETATM   10  C21 UNK     1      34.290  -8.057  34.928  1.00  0.00     0.025 A 
HETATM   11 Cl2  UNK     1      36.724  -6.887  34.809  1.00  0.00    -0.084 Cl
HETATM   12  C19 UNK     1      32.936  -8.091  35.264  1.00  0.00     0.016 A 
ENDBRANCH   3   5
BRANCH   2  13
HETATM   13  C4  UNK     1      29.226  -7.781  37.905  1.00  0.00    -0.015 A 
HETATM   14  C6  UNK     1      28.613  -9.004  37.663  1.00  0.00     0.052 A 
HETATM   15  C5  UNK     1      27.308  -9.221  38.109  1.00  0.00     0.102 A 
HETATM   16  C3  UNK     1      26.629  -8.213  38.792  1.00  0.00     0.103 A 
HETATM   17  C7  UNK     1      27.253  -6.989  39.030  1.00  0.00     0.059 A 
HETATM   18  C8  UNK     1      28.557  -6.772  38.585  1.00  0.00     0.024 A 
HETATM   19 Br1  UNK     1      29.347  -5.081  38.943  1.00  0.00    -0.050 Br
BRANCH  15  20
HETATM   20  O2  UNK     1      26.710 -10.421  37.869  1.00  0.00    -0.353 OA
HETATM   21  C23 UNK     1      26.094 -10.596  36.595  1.00  0.00     0.210 C 
ENDBRANCH  15  20
BRANCH  16  22
HETATM   22  O1  UNK     1      25.355  -8.413  39.232  1.00  0.00    -0.344 OA
BRANCH  22  23
HETATM   23  C2  UNK     1      24.377  -7.451  38.845  1.00  0.00     0.214 C 
BRANCH  23  24
HETATM   24  C1  UNK     1      23.076  -8.153  38.584  1.00  0.00    -0.034 A 
HETATM   25  C9  UNK     1      22.132  -8.254  39.600  1.00  0.00     0.010 A 
HETATM   26  C13 UNK     1      20.923  -8.906  39.358  1.00  0.00     0.007 A 
HETATM   27  C11 UNK     1      20.667  -9.453  38.100  1.00  0.00    -0.062 A 
HETATM   28  C14 UNK     1      21.618  -9.348  37.086  1.00  0.00     0.007 A 
HETATM   29  C17 UNK     1      19.373 -10.149  37.841  1.00  0.00     0.048 C 
HETATM   30  C10 UNK     1      22.826  -8.696  37.328  1.00  0.00     0.010 A 
ENDBRANCH  23  24
ENDBRANCH  22  23
ENDBRANCH  16  22
ENDBRANCH   2  13
TORSDOF 6
ENDMDL
MODEL 2
REMARK VINA RESULT:      -7.8     34.508     35.789
REMARK  6 active torsions:
REMARK  status: ('A' for Active; 'I' for Inactive)
REMARK    1  A    between atoms: C2_8  and  O1_4 
REMARK    2  A    between atoms: C3_9  and  O1_4 
REMARK    3  A    between atoms: C5_11  and  O2_5 
REMARK    4  A    between atoms: C1_7  and  C2_8 
REMARK    5  A    between atoms: C12_18  and  C4_10 
REMARK    6  A    between atoms: C15_21  and  C16_22 
ROOT
HETATM    1  N1  UNK     1      15.797  12.215  11.534  1.00  0.00    -0.191 NA
HETATM    2  C12 UNK     1      16.926  10.007   9.064  1.00  0.00     0.036 C 
HETATM    3  C15 UNK     1      17.202  11.190   9.627  1.00  0.00     0.057 C 
HETATM    4  C24 UNK     1      16.433  11.759  10.676  1.00  0.00     0.100 C 
ENDROOT
BRANCH   3   5
HETATM    5  C16 UNK     1      18.336  11.943   9.102  1.00  0.00     0.006 A 
HETATM    6  C18 UNK     1      18.216  12.801   8.010  1.00  0.00     0.047 A 
HETATM    7 Cl1  UNK     1      16.709  13.036   7.194  1.00  0.00    -0.083 Cl
HETATM    8  C20 UNK     1      19.330  13.500   7.546  1.00  0.00     0.048 A 
HETATM    9  C22 UNK     1      20.565  13.341   8.175  1.00  0.00     0.035 A 
HETATM   10  C21 UNK     1      20.685  12.482   9.267  1.00  0.00     0.025 A 
HETATM   11 Cl2  UNK     1      21.940  14.203   7.604  1.00  0.00    -0.084 Cl
HETATM   12  C19 UNK     1      19.570  11.782   9.731  1.00  0.00     0.016 A 
ENDBRANCH   3   5
BRANCH   2  13
HETATM   13  C4  UNK     1      15.821   9.122   9.461  1.00  0.00    -0.015 A 
HETATM   14  C6  UNK     1      14.531   9.554   9.180  1.00  0.00     0.052 A 
HETATM   15  C5  UNK     1      13.444   8.754   9.535  1.00  0.00     0.102 A 
HETATM   16  C3  UNK     1      13.658   7.530  10.167  1.00  0.00     0.103 A 
HETATM   17  C7  UNK     1      14.957   7.105  10.445  1.00  0.00     0.059 A 
HETATM   18  C8  UNK     1      16.043   7.904  10.090  1.00  0.00     0.024 A 
HETATM   19 Br1  UNK     1      17.786   7.266  10.497  1.00  0.00    -0.050 Br
BRANCH  15  20
HETATM   20  O2  UNK     1      12.180   9.180   9.258  1.00  0.00    -0.353 OA
HETATM   21  C23 UNK     1      11.529   9.965  10.255  1.00  0.00     0.210 C 
ENDBRANCH  15  20
BRANCH  16  22
HETATM   22  O1  UNK     1      12.606   6.739  10.518  1.00  0.00    -0.344 OA
BRANCH  22  23
HETATM   23  C2  UNK     1      12.437   5.523   9.795  1.00  0.00     0.214 C 
BRANCH  23  24
HETATM   24  C1  UNK     1      11.589   5.785   8.585  1.00  0.00    -0.034 A 
HETATM   25  C9  UNK     1      10.216   5.958   8.731  1.00  0.00     0.010 A 
HETATM   26  C13 UNK     1       9.427   6.201   7.607  1.00  0.00     0.007 A 
HETATM   27  C11 UNK     1      10.016   6.269   6.344  1.00  0.00    -0.062 A 
HETATM   28  C14 UNK     1      11.393   6.094   6.205  1.00  0.00     0.007 A 
HETATM   29  C17 UNK     1       9.172   6.530   5.142  1.00  0.00     0.048 C 
HETATM   30  C10 UNK     1      12.182   5.851   7.329  1.00  0.00     0.010 A 
ENDBRANCH  23  24
ENDBRANCH  22  23
ENDBRANCH  16  22
ENDBRANCH   2  13
TORSDOF 6
ENDMDL
MODEL 3
REMARK VINA RESULT:      -7.7     10.929     13.650
REMARK  6 active torsions:
REMARK  status: ('A' for Active; 'I' for Inactive)
REMARK    1  A    between atoms: C2_8  and  O1_4 
REMARK    2  A    between atoms: C3_9  and  O1_4 
REMARK    3  A    between atoms: C5_11  and  O2_5 
REMARK    4  A    between atoms: C1_7  and  C2_8 
REMARK    5  A    between atoms: C12_18  and  C4_10 
REMARK    6  A    between atoms: C15_21  and  C16_22 
ROOT
HETATM    1  N1  UNK     1      20.225   2.820  36.488  1.00  0.00    -0.191 NA
HETATM    2  C12 UNK     1      18.072   1.327  34.168  1.00  0.00     0.036 C 
HETATM    3  C15 UNK     1      18.616   2.506  34.495  1.00  0.00     0.057 C 
HETATM    4  C24 UNK     1      19.502   2.685  35.591  1.00  0.00     0.100 C 
ENDROOT
BRANCH   3   5
HETATM    5  C16 UNK     1      18.243   3.669  33.698  1.00  0.00     0.006 A 
HETATM    6  C18 UNK     1      18.207   3.635  32.304  1.00  0.00     0.047 A 
HETATM    7 Cl1  UNK     1      18.606   2.206  31.416  1.00  0.00    -0.083 Cl
HETATM    8  C20 UNK     1      17.842   4.774  31.587  1.00  0.00     0.048 A 
HETATM    9  C22 UNK     1      17.513   5.948  32.265  1.00  0.00     0.035 A 
HETATM   10  C21 UNK     1      17.549   5.983  33.659  1.00  0.00     0.025 A 
HETATM   11 Cl2  UNK     1      17.062   7.355  31.382  1.00  0.00    -0.084 Cl
HETATM   12  C19 UNK     1      17.915   4.843  34.376  1.00  0.00     0.016 A 
ENDBRANCH   3   5
BRANCH   2  13
HETATM   13  C4  UNK     1      18.330   0.058  34.863  1.00  0.00    -0.015 A 
HETATM   14  C6  UNK     1      19.236  -0.815  34.273  1.00  0.00     0.052 A 
HETATM   15  C5  UNK     1      19.518  -2.034  34.890  1.00  0.00     0.102 A 
HETATM   16  C3  UNK     1      18.891  -2.370  36.089  1.00  0.00     0.103 A 
HETATM   17  C7  UNK     1      17.983  -1.487  36.673  1.00  0.00     0.059 A 
HETATM   18  C8  UNK     1      17.701  -0.268  36.057  1.00  0.00     0.024 A 
HETATM   19 Br1  UNK     1      16.454   0.887  36.905  1.00  0.00    -0.050 Br
BRANCH  15  20
HETATM   20  O2  UNK     1      20.407  -2.888  34.309  1.00  0.00    -0.353 OA
HETATM   21  C23 UNK     1      20.813  -2.592  32.975  1.00  0.00     0.210 C 
ENDBRANCH  15  20
BRANCH  16  22
HETATM   22  O1  UNK     1      19.158  -3.558  36.701  1.00  0.00    -0.344 OA
BRANCH  22  23
HETATM   23  C2  UNK     1      20.460  -3.724  37.256  1.00  0.00     0.214 C 
BRANCH  23  24
HETATM   24  C1  UNK     1      20.591  -5.120  37.791  1.00  0.00    -0.034 A 
HETATM   25  C9  UNK     1      21.806  -5.543  38.322  1.00  0.00     0.010 A 
HETATM   26  C13 UNK     1      21.928  -6.840  38.819  1.00  0.00     0.007 A 
HETATM   27  C11 UNK     1      20.835  -7.706  38.782  1.00  0.00    -0.062 A 
HETATM   28  C14 UNK     1      19.621  -7.275  38.248  1.00  0.00     0.007 A 
HETATM   29  C17 UNK     1      20.966  -9.093  39.315  1.00  0.00     0.048 C 
HETATM   30  C10 UNK     1      19.498  -5.978  37.751  1.00  0.00     0.010 A 
ENDBRANCH  23  24
ENDBRANCH  22  23
ENDBRANCH  16  22
ENDBRANCH   2  13
TORSDOF 6
ENDMDL
MODEL 4
REMARK VINA RESULT:      -7.7      1.425      1.535
REMARK  6 active torsions:
REMARK  status: ('A' for Active; 'I' for Inactive)
REMARK    1  A    between atoms: C2_8  and  O1_4 
REMARK    2  A    between atoms: C3_9  and  O1_4 
REMARK    3  A    between atoms: C5_11  and  O2_5 
REMARK    4  A    between atoms: C1_7  and  C2_8 
REMARK    5  A    between atoms: C12_18  and  C4_10 
REMARK    6  A    between atoms: C15_21  and  C16_22 
ROOT
HETATM    1  N1  UNK     1      31.207  -9.638  38.169  1.00  0.00    -0.191 NA
HETATM    2  C12 UNK     1      29.707  -7.092  36.294  1.00  0.00     0.036 C 
HETATM    3  C15 UNK     1      30.862  -7.755  36.438  1.00  0.00     0.057 C 
HETATM    4  C24 UNK     1      31.058  -8.791  37.390  1.00  0.00     0.100 C 
ENDROOT
BRANCH   3   5
HETATM    5  C16 UNK     1      31.982  -7.358  35.594  1.00  0.00     0.006 A 
HETATM    6  C18 UNK     1      32.927  -6.419  36.006  1.00  0.00     0.047 A 
HETATM    7 Cl1  UNK     1      32.838  -5.652  37.553  1.00  0.00    -0.083 Cl
HETATM    8  C20 UNK     1      33.982  -6.074  35.161  1.00  0.00     0.048 A 
HETATM    9  C22 UNK     1      34.092  -6.669  33.904  1.00  0.00     0.035 A 
HETATM   10  C21 UNK     1      33.147  -7.608  33.492  1.00  0.00     0.025 A 
HETATM   11 Cl2  UNK     1      35.393  -6.245  32.861  1.00  0.00    -0.084 Cl
HETATM   12  C19 UNK     1      32.091  -7.953  34.337  1.00  0.00     0.016 A 
ENDBRANCH   3   5
BRANCH   2  13
HETATM   13  C4  UNK     1      28.483  -7.354  37.064  1.00  0.00    -0.015 A 
HETATM   14  C6  UNK     1      27.623  -8.329  36.574  1.00  0.00     0.052 A 
HETATM   15  C5  UNK     1      26.445  -8.618  37.264  1.00  0.00     0.102 A 
HETATM   16  C3  UNK     1      26.138  -7.930  38.437  1.00  0.00     0.103 A 
HETATM   17  C7  UNK     1      27.007  -6.952  38.920  1.00  0.00     0.059 A 
HETATM   18  C8  UNK     1      28.185  -6.663  38.231  1.00  0.00     0.024 A 
HETATM   19 Br1  UNK     1      29.324  -5.320  38.944  1.00  0.00    -0.050 Br
BRANCH  15  20
HETATM   20  O2  UNK     1      25.604  -9.576  36.781  1.00  0.00    -0.353 OA
HETATM   21  C23 UNK     1      26.100 -10.912  36.739  1.00  0.00     0.210 C 
ENDBRANCH  15  20
BRANCH  16  22
HETATM   22  O1  UNK     1      24.992  -8.203  39.120  1.00  0.00    -0.344 OA
BRANCH  22  23
HETATM   23  C2  UNK     1      23.900  -7.304  38.942  1.00  0.00     0.214 C 
BRANCH  23  24
HETATM   24  C1  UNK     1      22.669  -8.088  38.594  1.00  0.00    -0.034 A 
HETATM   25  C9  UNK     1      21.776  -8.450  39.598  1.00  0.00     0.010 A 
HETATM   26  C13 UNK     1      20.633  -9.179  39.275  1.00  0.00     0.007 A 
HETATM   27  C11 UNK     1      20.388  -9.542  37.950  1.00  0.00    -0.062 A 
HETATM   28  C14 UNK     1      21.288  -9.176  36.949  1.00  0.00     0.007 A 
HETATM   29  C17 UNK     1      19.164 -10.321  37.605  1.00  0.00     0.048 C 
HETATM   30  C10 UNK     1      22.432  -8.447  37.272  1.00  0.00     0.010 A 
ENDBRANCH  23  24
ENDBRANCH  22  23
ENDBRANCH  16  22
ENDBRANCH   2  13
TORSDOF 6
ENDMDL
MODEL 5
REMARK VINA RESULT:      -7.6     33.745     35.721
REMARK  6 active torsions:
REMARK  status: ('A' for Active; 'I' for Inactive)
REMARK    1  A    between atoms: C2_8  and  O1_4 
REMARK    2  A    between atoms: C3_9  and  O1_4 
REMARK    3  A    between atoms: C5_11  and  O2_5 
REMARK    4  A    between atoms: C1_7  and  C2_8 
REMARK    5  A    between atoms: C12_18  and  C4_10 
REMARK    6  A    between atoms: C15_21  and  C16_22 
ROOT
HETATM    1  N1  UNK     1      15.196   7.018  10.940  1.00  0.00    -0.191 NA
HETATM    2  C12 UNK     1      14.461   9.626   8.725  1.00  0.00     0.036 C 
HETATM    3  C15 UNK     1      14.058   8.399   9.081  1.00  0.00     0.057 C 
HETATM    4  C24 UNK     1      14.681   7.635  10.103  1.00  0.00     0.100 C 
ENDROOT
BRANCH   3   5
HETATM    5  C16 UNK     1      12.943   7.813   8.348  1.00  0.00     0.006 A 
HETATM    6  C18 UNK     1      11.614   8.107   8.655  1.00  0.00     0.047 A 
HETATM    7 Cl1  UNK     1      11.192   9.191   9.935  1.00  0.00    -0.083 Cl
HETATM    8  C20 UNK     1      10.582   7.521   7.923  1.00  0.00     0.048 A 
HETATM    9  C22 UNK     1      10.879   6.641   6.882  1.00  0.00     0.035 A 
HETATM   10  C21 UNK     1      12.207   6.346   6.574  1.00  0.00     0.025 A 
HETATM   11 Cl2  UNK     1       9.607   5.917   5.977  1.00  0.00    -0.084 Cl
HETATM   12  C19 UNK     1      13.240   6.932   7.307  1.00  0.00     0.016 A 
ENDBRANCH   3   5
BRANCH   2  13
HETATM   13  C4  UNK     1      15.568  10.364   9.349  1.00  0.00    -0.015 A 
HETATM   14  C6  UNK     1      16.808  10.290   8.726  1.00  0.00     0.052 A 
HETATM   15  C5  UNK     1      17.896  10.971   9.275  1.00  0.00     0.102 A 
HETATM   16  C3  UNK     1      17.733  11.719  10.441  1.00  0.00     0.103 A 
HETATM   17  C7  UNK     1      16.485  11.786  11.058  1.00  0.00     0.059 A 
HETATM   18  C8  UNK     1      15.398  11.106  10.510  1.00  0.00     0.024 A 
HETATM   19 Br1  UNK     1      13.725  11.240  11.402  1.00  0.00    -0.050 Br
BRANCH  15  20
HETATM   20  O2  UNK     1      19.110  10.897   8.662  1.00  0.00    -0.353 OA
HETATM   21  C23 UNK     1      19.305  11.714   7.510  1.00  0.00     0.210 C 
ENDBRANCH  15  20
BRANCH  16  22
HETATM   22  O1  UNK     1      18.787  12.388  10.986  1.00  0.00    -0.344 OA
BRANCH  22  23
HETATM   23  C2  UNK     1      18.491  13.363  11.983  1.00  0.00     0.214 C 
BRANCH  23  24
HETATM   24  C1  UNK     1      19.506  13.263  13.084  1.00  0.00    -0.034 A 
HETATM   25  C9  UNK     1      19.192  13.736  14.354  1.00  0.00     0.010 A 
HETATM   26  C13 UNK     1      20.135  13.644  15.378  1.00  0.00     0.007 A 
HETATM   27  C11 UNK     1      21.385  13.079  15.125  1.00  0.00    -0.062 A 
HETATM   28  C14 UNK     1      21.692  12.606  13.849  1.00  0.00     0.007 A 
HETATM   29  C17 UNK     1      22.393  12.979  16.220  1.00  0.00     0.048 C 
HETATM   30  C10 UNK     1      20.750  12.699  12.826  1.00  0.00     0.010 A 
ENDBRANCH  23  24
ENDBRANCH  22  23
ENDBRANCH  16  22
ENDBRANCH   2  13
TORSDOF 6
ENDMDL
MODEL 6
REMARK VINA RESULT:      -7.6     34.109     35.323
REMARK  6 active torsions:
REMARK  status: ('A' for Active; 'I' for Inactive)
REMARK    1  A    between atoms: C2_8  and  O1_4 
REMARK    2  A    between atoms: C3_9  and  O1_4 
REMARK    3  A    between atoms: C5_11  and  O2_5 
REMARK    4  A    between atoms: C1_7  and  C2_8 
REMARK    5  A    between atoms: C12_18  and  C4_10 
REMARK    6  A    between atoms: C15_21  and  C16_22 
ROOT
HETATM    1  N1  UNK     1      17.381  13.112  11.734  1.00  0.00    -0.191 NA
HETATM    2  C12 UNK     1      18.804  10.888   9.436  1.00  0.00     0.036 C 
HETATM    3  C15 UNK     1      19.123  11.865  10.295  1.00  0.00     0.057 C 
HETATM    4  C24 UNK     1      18.169  12.555  11.089  1.00  0.00     0.100 C 
ENDROOT
BRANCH   3   5
HETATM    5  C16 UNK     1      20.524  12.258  10.383  1.00  0.00     0.006 A 
HETATM    6  C18 UNK     1      21.122  13.096   9.442  1.00  0.00     0.047 A 
HETATM    7 Cl1  UNK     1      20.243  13.729   8.094  1.00  0.00    -0.083 Cl
HETATM    8  C20 UNK     1      22.467  13.444   9.572  1.00  0.00     0.048 A 
HETATM    9  C22 UNK     1      23.213  12.956  10.644  1.00  0.00     0.035 A 
HETATM   10  C21 UNK     1      22.615  12.119  11.586  1.00  0.00     0.025 A 
HETATM   11 Cl2  UNK     1      24.871  13.385  10.806  1.00  0.00    -0.084 Cl
HETATM   12  C19 UNK     1      21.270  11.769  11.456  1.00  0.00     0.016 A 
ENDBRANCH   3   5
BRANCH   2  13
HETATM   13  C4  UNK     1      17.446  10.372   9.214  1.00  0.00    -0.015 A 
HETATM   14  C6  UNK     1      17.085   9.221   9.904  1.00  0.00     0.052 A 
HETATM   15  C5  UNK     1      15.807   8.687   9.730  1.00  0.00     0.102 A 
HETATM   16  C3  UNK     1      14.904   9.307   8.869  1.00  0.00     0.103 A 
HETATM   17  C7  UNK     1      15.276  10.462   8.181  1.00  0.00     0.059 A 
HETATM   18  C8  UNK     1      16.552  10.997   8.354  1.00  0.00     0.024 A 
HETATM   19 Br1  UNK     1      16.994  12.571   7.387  1.00  0.00    -0.050 Br
BRANCH  15  20
HETATM   20  O2  UNK     1      15.456   7.558  10.408  1.00  0.00    -0.353 OA
HETATM   21  C23 UNK     1      16.075   6.339  10.001  1.00  0.00     0.210 C 
ENDBRANCH  15  20
BRANCH  16  22
HETATM   22  O1  UNK     1      13.654   8.795   8.691  1.00  0.00    -0.344 OA
BRANCH  22  23
HETATM   23  C2  UNK     1      13.483   7.851   7.637  1.00  0.00     0.214 C 
BRANCH  23  24
HETATM   24  C1  UNK     1      12.073   7.338   7.661  1.00  0.00    -0.034 A 
HETATM   25  C9  UNK     1      11.591   6.597   6.587  1.00  0.00     0.010 A 
HETATM   26  C13 UNK     1      10.281   6.119   6.609  1.00  0.00     0.007 A 
HETATM   27  C11 UNK     1       9.461   6.387   7.706  1.00  0.00    -0.062 A 
HETATM   28  C14 UNK     1       9.950   7.131   8.779  1.00  0.00     0.007 A 
HETATM   29  C17 UNK     1       8.060   5.875   7.730  1.00  0.00     0.048 C 
HETATM   30  C10 UNK     1      11.260   7.608   8.757  1.00  0.00     0.010 A 
ENDBRANCH  23  24
ENDBRANCH  22  23
ENDBRANCH  16  22
ENDBRANCH   2  13
TORSDOF 6
ENDMDL
MODEL 7
REMARK VINA RESULT:      -7.6     34.309     35.733
REMARK  6 active torsions:
REMARK  status: ('A' for Active; 'I' for Inactive)
REMARK    1  A    between atoms: C2_8  and  O1_4 
REMARK    2  A    between atoms: C3_9  and  O1_4 
REMARK    3  A    between atoms: C5_11  and  O2_5 
REMARK    4  A    between atoms: C1_7  and  C2_8 
REMARK    5  A    between atoms: C12_18  and  C4_10 
REMARK    6  A    between atoms: C15_21  and  C16_22 
ROOT
HETATM    1  N1  UNK     1      12.637   8.990  12.167  1.00  0.00    -0.191 NA
HETATM    2  C12 UNK     1      12.811   8.328   8.735  1.00  0.00     0.036 C 
HETATM    3  C15 UNK     1      13.513   8.860   9.743  1.00  0.00     0.057 C 
HETATM    4  C24 UNK     1      13.036   8.935  11.078  1.00  0.00     0.100 C 
ENDROOT
BRANCH   3   5
HETATM    5  C16 UNK     1      14.822   9.423   9.434  1.00  0.00     0.006 A 
HETATM    6  C18 UNK     1      16.007   8.838   9.880  1.00  0.00     0.047 A 
HETATM    7 Cl1  UNK     1      16.010   7.398  10.838  1.00  0.00    -0.083 Cl
HETATM    8  C20 UNK     1      17.235   9.414   9.556  1.00  0.00     0.048 A 
HETATM    9  C22 UNK     1      17.279  10.576   8.785  1.00  0.00     0.035 A 
HETATM   10  C21 UNK     1      16.094  11.161   8.339  1.00  0.00     0.025 A 
HETATM   11 Cl2  UNK     1      18.793  11.288   8.384  1.00  0.00    -0.084 Cl
HETATM   12  C19 UNK     1      14.865  10.585   8.663  1.00  0.00     0.016 A 
ENDBRANCH   3   5
BRANCH   2  13
HETATM   13  C4  UNK     1      11.476   7.725   8.863  1.00  0.00    -0.015 A 
HETATM   14  C6  UNK     1      10.445   8.554   9.286  1.00  0.00     0.052 A 
HETATM   15  C5  UNK     1       9.157   8.034   9.426  1.00  0.00     0.102 A 
HETATM   16  C3  UNK     1       8.914   6.691   9.141  1.00  0.00     0.103 A 
HETATM   17  C7  UNK     1       9.956   5.867   8.717  1.00  0.00     0.059 A 
HETATM   18  C8  UNK     1      11.243   6.386   8.577  1.00  0.00     0.024 A 
HETATM   19 Br1  UNK     1      12.617   5.210   7.996  1.00  0.00    -0.050 Br
BRANCH  15  20
HETATM   20  O2  UNK     1       8.147   8.849   9.841  1.00  0.00    -0.353 OA
HETATM   21  C23 UNK     1       8.500   9.928  10.704  1.00  0.00     0.210 C 
ENDBRANCH  15  20
BRANCH  16  22
HETATM   22  O1  UNK     1       7.661   6.172   9.273  1.00  0.00    -0.344 OA
BRANCH  22  23
HETATM   23  C2  UNK     1       7.516   4.768   9.071  1.00  0.00     0.214 C 
BRANCH  23  24
HETATM   24  C1  UNK     1       6.749   4.183  10.220  1.00  0.00    -0.034 A 
HETATM   25  C9  UNK     1       6.203   2.909  10.107  1.00  0.00     0.010 A 
HETATM   26  C13 UNK     1       5.490   2.365  11.174  1.00  0.00     0.007 A 
HETATM   27  C11 UNK     1       5.327   3.099  12.350  1.00  0.00    -0.062 A 
HETATM   28  C14 UNK     1       5.877   4.376  12.457  1.00  0.00     0.007 A 
HETATM   29  C17 UNK     1       4.566   2.516  13.492  1.00  0.00     0.048 C 
HETATM   30  C10 UNK     1       6.590   4.920  11.389  1.00  0.00     0.010 A 
ENDBRANCH  23  24
ENDBRANCH  22  23
ENDBRANCH  16  22
ENDBRANCH   2  13
TORSDOF 6
ENDMDL
MODEL 8
REMARK VINA RESULT:      -7.6      2.532      3.300
REMARK  6 active torsions:
REMARK  status: ('A' for Active; 'I' for Inactive)
REMARK    1  A    between atoms: C2_8  and  O1_4 
REMARK    2  A    between atoms: C3_9  and  O1_4 
REMARK    3  A    between atoms: C5_11  and  O2_5 
REMARK    4  A    between atoms: C1_7  and  C2_8 
REMARK    5  A    between atoms: C12_18  and  C4_10 
REMARK    6  A    between atoms: C15_21  and  C16_22 
ROOT
HETATM    1  N1  UNK     1      31.470  -9.975  38.213  1.00  0.00    -0.191 NA
HETATM    2  C12 UNK     1      30.671  -7.565  35.804  1.00  0.00     0.036 C 
HETATM    3  C15 UNK     1      31.643  -8.412  36.166  1.00  0.00     0.057 C 
HETATM    4  C24 UNK     1      31.554  -9.274  37.292  1.00  0.00     0.100 C 
ENDROOT
BRANCH   3   5
HETATM    5  C16 UNK     1      32.870  -8.414  35.377  1.00  0.00     0.006 A 
HETATM    6  C18 UNK     1      33.130  -9.386  34.411  1.00  0.00     0.047 A 
HETATM    7 Cl1  UNK     1      32.015 -10.665  34.080  1.00  0.00    -0.083 Cl
HETATM    8  C20 UNK     1      34.318  -9.344  33.682  1.00  0.00     0.048 A 
HETATM    9  C22 UNK     1      35.245  -8.328  33.917  1.00  0.00     0.035 A 
HETATM   10  C21 UNK     1      34.985  -7.357  34.883  1.00  0.00     0.025 A 
HETATM   11 Cl2  UNK     1      36.711  -8.275  33.018  1.00  0.00    -0.084 Cl
HETATM   12  C19 UNK     1      33.797  -7.400  35.614  1.00  0.00     0.016 A 
ENDBRANCH   3   5
BRANCH   2  13
HETATM   13  C4  UNK     1      29.377  -7.426  36.486  1.00  0.00    -0.015 A 
HETATM   14  C6  UNK     1      29.256  -6.393  37.408  1.00  0.00     0.052 A 
HETATM   15  C5  UNK     1      28.049  -6.214  38.086  1.00  0.00     0.102 A 
HETATM   16  C3  UNK     1      26.976  -7.068  37.835  1.00  0.00     0.103 A 
HETATM   17  C7  UNK     1      27.108  -8.101  36.908  1.00  0.00     0.059 A 
HETATM   18  C8  UNK     1      28.313  -8.281  36.230  1.00  0.00     0.024 A 
HETATM   19 Br1  UNK     1      28.426  -9.708  34.981  1.00  0.00    -0.050 Br
BRANCH  15  20
HETATM   20  O2  UNK     1      27.932  -5.201  38.989  1.00  0.00    -0.353 OA
HETATM   21  C23 UNK     1      29.048  -4.322  39.124  1.00  0.00     0.210 C 
ENDBRANCH  15  20
BRANCH  16  22
HETATM   22  O1  UNK     1      25.793  -6.903  38.490  1.00  0.00    -0.344 OA
BRANCH  22  23
HETATM   23  C2  UNK     1      25.091  -8.085  38.870  1.00  0.00     0.214 C 
BRANCH  23  24
HETATM   24  C1  UNK     1      23.619  -7.862  38.684  1.00  0.00    -0.034 A 
HETATM   25  C9  UNK     1      22.919  -7.082  39.599  1.00  0.00     0.010 A 
HETATM   26  C13 UNK     1      21.551  -6.875  39.427  1.00  0.00     0.007 A 
HETATM   27  C11 UNK     1      20.891  -7.451  38.341  1.00  0.00    -0.062 A 
HETATM   28  C14 UNK     1      21.598  -8.233  37.428  1.00  0.00     0.007 A 
HETATM   29  C17 UNK     1      19.427  -7.229  38.156  1.00  0.00     0.048 C 
HETATM   30  C10 UNK     1      22.966  -8.439  37.600  1.00  0.00     0.010 A 
ENDBRANCH  23  24
ENDBRANCH  22  23
ENDBRANCH  16  22
ENDBRANCH   2  13
TORSDOF 6
ENDMDL
MODEL 9
REMARK VINA RESULT:      -7.5     34.077     36.334
REMARK  6 active torsions:
REMARK  status: ('A' for Active; 'I' for Inactive)
REMARK    1  A    between atoms: C2_8  and  O1_4 
REMARK    2  A    between atoms: C3_9  and  O1_4 
REMARK    3  A    between atoms: C5_11  and  O2_5 
REMARK    4  A    between atoms: C1_7  and  C2_8 
REMARK    5  A    between atoms: C12_18  and  C4_10 
REMARK    6  A    between atoms: C15_21  and  C16_22 
ROOT
HETATM    1  N1  UNK     1      13.367   9.226  12.051  1.00  0.00    -0.191 NA
HETATM    2  C12 UNK     1      13.960   8.662   8.649  1.00  0.00     0.036 C 
HETATM    3  C15 UNK     1      13.060   8.434   9.614  1.00  0.00     0.057 C 
HETATM    4  C24 UNK     1      13.224   8.867  10.957  1.00  0.00     0.100 C 
ENDROOT
BRANCH   3   5
HETATM    5  C16 UNK     1      11.870   7.668   9.265  1.00  0.00     0.006 A 
HETATM    6  C18 UNK     1      11.900   6.285   9.091  1.00  0.00     0.047 A 
HETATM    7 Cl1  UNK     1      13.359   5.374   9.275  1.00  0.00    -0.083 Cl
HETATM    8  C20 UNK     1      10.734   5.597   8.758  1.00  0.00     0.048 A 
HETATM    9  C22 UNK     1       9.535   6.293   8.600  1.00  0.00     0.035 A 
HETATM   10  C21 UNK     1       9.504   7.677   8.774  1.00  0.00     0.025 A 
HETATM   11 Cl2  UNK     1       8.095   5.446   8.190  1.00  0.00    -0.084 Cl
HETATM   12  C19 UNK     1      10.672   8.365   9.106  1.00  0.00     0.016 A 
ENDBRANCH   3   5
BRANCH   2  13
HETATM   13  C4  UNK     1      15.215   9.407   8.824  1.00  0.00    -0.015 A 
HETATM   14  C6  UNK     1      15.261  10.698   8.314  1.00  0.00     0.052 A 
HETATM   15  C5  UNK     1      16.428  11.451   8.452  1.00  0.00     0.102 A 
HETATM   16  C3  UNK     1      17.537  10.906   9.098  1.00  0.00     0.103 A 
HETATM   17  C7  UNK     1      17.480   9.608   9.606  1.00  0.00     0.059 A 
HETATM   18  C8  UNK     1      16.314   8.855   9.469  1.00  0.00     0.024 A 
HETATM   19 Br1  UNK     1      16.305   7.095  10.183  1.00  0.00    -0.050 Br
BRANCH  15  20
HETATM   20  O2  UNK     1      16.470  12.718   7.951  1.00  0.00    -0.353 OA
HETATM   21  C23 UNK     1      15.312  13.180   7.259  1.00  0.00     0.210 C 
ENDBRANCH  15  20
BRANCH  16  22
HETATM   22  O1  UNK     1      18.681  11.631   9.238  1.00  0.00    -0.344 OA
BRANCH  22  23
HETATM   23  C2  UNK     1      19.055  12.004  10.563  1.00  0.00     0.214 C 
BRANCH  23  24
HETATM   24  C1  UNK     1      20.548  12.136  10.632  1.00  0.00    -0.034 A 
HETATM   25  C9  UNK     1      21.177  12.201  11.872  1.00  0.00     0.010 A 
HETATM   26  C13 UNK     1      22.564  12.325  11.937  1.00  0.00     0.007 A 
HETATM   27  C11 UNK     1      23.314  12.383  10.763  1.00  0.00    -0.062 A 
HETATM   28  C14 UNK     1      22.678  12.318   9.524  1.00  0.00     0.007 A 
HETATM   29  C17 UNK     1      24.799  12.514  10.833  1.00  0.00     0.048 C 
HETATM   30  C10 UNK     1      21.291  12.194   9.458  1.00  0.00     0.010 A 
ENDBRANCH  23  24
ENDBRANCH  22  23
ENDBRANCH  16  22
ENDBRANCH   2  13
TORSDOF 6
ENDMDL
MODEL 10
REMARK VINA RESULT:      -7.4     32.848     34.048
REMARK  6 active torsions:
REMARK  status: ('A' for Active; 'I' for Inactive)
REMARK    1  A    between atoms: C2_8  and  O1_4 
REMARK    2  A    between atoms: C3_9  and  O1_4 
REMARK    3  A    between atoms: C5_11  and  O2_5 
REMARK    4  A    between atoms: C1_7  and  C2_8 
REMARK    5  A    between atoms: C12_18  and  C4_10 
REMARK    6  A    between atoms: C15_21  and  C16_22 
ROOT
HETATM    1  N1  UNK     1      21.738  15.061   9.316  1.00  0.00    -0.191 NA
HETATM    2  C12 UNK     1      21.535  12.217  11.344  1.00  0.00     0.036 C 
HETATM    3  C15 UNK     1      22.410  13.110  10.865  1.00  0.00     0.057 C 
HETATM    4  C24 UNK     1      22.046  14.185  10.012  1.00  0.00     0.100 C 
ENDROOT
BRANCH   3   5
HETATM    5  C16 UNK     1      23.816  12.937  11.214  1.00  0.00     0.006 A 
HETATM    6  C18 UNK     1      24.399  13.597  12.295  1.00  0.00     0.047 A 
HETATM    7 Cl1  UNK     1      23.497  14.674  13.302  1.00  0.00    -0.083 Cl
HETATM    8  C20 UNK     1      25.748  13.396  12.589  1.00  0.00     0.048 A 
HETATM    9  C22 UNK     1      26.513  12.535  11.802  1.00  0.00     0.035 A 
HETATM   10  C21 UNK     1      25.929  11.875  10.720  1.00  0.00     0.025 A 
HETATM   11 Cl2  UNK     1      28.177  12.287  12.163  1.00  0.00    -0.084 Cl
HETATM   12  C19 UNK     1      24.580  12.076  10.426  1.00  0.00     0.016 A 
ENDBRANCH   3   5
BRANCH   2  13
HETATM   13  C4  UNK     1      20.088  12.234  11.089  1.00  0.00    -0.015 A 
HETATM   14  C6  UNK     1      19.648  11.669   9.898  1.00  0.00     0.052 A 
HETATM   15  C5  UNK     1      18.284  11.658   9.605  1.00  0.00     0.102 A 
HETATM   16  C3  UNK     1      17.373  12.212  10.503  1.00  0.00     0.103 A 
HETATM   17  C7  UNK     1      17.825  12.777  11.696  1.00  0.00     0.059 A 
HETATM   18  C8  UNK     1      19.188  12.788  11.990  1.00  0.00     0.024 A 
HETATM   19 Br1  UNK     1      19.735  13.574  13.631  1.00  0.00    -0.050 Br
BRANCH  15  20
HETATM   20  O2  UNK     1      17.855  11.103   8.437  1.00  0.00    -0.353 OA
HETATM   21  C23 UNK     1      17.962  11.903   7.261  1.00  0.00     0.210 C 
ENDBRANCH  15  20
BRANCH  16  22
HETATM   22  O1  UNK     1      16.039  12.207  10.228  1.00  0.00    -0.344 OA
BRANCH  22  23
HETATM   23  C2  UNK     1      15.201  11.435  11.085  1.00  0.00     0.214 C 
BRANCH  23  24
HETATM   24  C1  UNK     1      15.148  10.023  10.579  1.00  0.00    -0.034 A 
HETATM   25  C9  UNK     1      15.701   8.998  11.339  1.00  0.00     0.010 A 
HETATM   26  C13 UNK     1      15.653   7.686  10.869  1.00  0.00     0.007 A 
HETATM   27  C11 UNK     1      15.051   7.408   9.641  1.00  0.00    -0.062 A 
HETATM   28  C14 UNK     1      14.499   8.441   8.885  1.00  0.00     0.007 A 
HETATM   29  C17 UNK     1      14.998   6.004   9.139  1.00  0.00     0.048 C 
HETATM   30  C10 UNK     1      14.548   9.753   9.355  1.00  0.00     0.010 A 
ENDBRANCH  23  24
ENDBRANCH  22  23
ENDBRANCH  16  22
ENDBRANCH   2  13
TORSDOF 6
ENDMDL
