MODEL 1
REMARK VINA RESULT:      -7.6      0.000      0.000
REMARK  3 active torsions:
REMARK  status: ('A' for Active; 'I' for Inactive)
REMARK    1  A    between atoms: C15_18  and  O2_2 
REMARK    2  A    between atoms: C7_10  and  O2_2 
REMARK    3  A    between atoms: C2_5  and  C4_7 
ROOT
HETATM    1  O1  UNK     1      16.009   6.068   9.967  1.00  0.00    -0.275 OA
HETATM    2  O3  UNK     1      15.774   3.796   9.876  1.00  0.00    -0.260 OA
HETATM    3  C1  UNK     1      14.257   7.482   9.032  1.00  0.00     0.009 A 
HETATM    4  C2  UNK     1      13.502   6.277   8.654  1.00  0.00    -0.007 A 
HETATM    5  C3  UNK     1      15.484   7.341   9.675  1.00  0.00     0.093 A 
HETATM    6  C5  UNK     1      13.795   8.779   8.774  1.00  0.00     0.018 A 
HETATM    7  C6  UNK     1      16.251   8.442  10.060  1.00  0.00     0.075 A 
HETATM    8  C7  UNK     1      15.778   9.724   9.796  1.00  0.00     0.071 A 
HETATM    9  C8  UNK     1      14.030   5.077   8.948  1.00  0.00     0.095 A 
HETATM   10  C9  UNK     1      14.552   9.893   9.153  1.00  0.00     0.038 A 
HETATM   11  C10 UNK     1      15.327   4.910   9.628  1.00  0.00     0.289 A 
ENDROOT
BRANCH   4  12
HETATM   12  C4  UNK     1      12.208   6.249   7.978  1.00  0.00    -0.025 A 
HETATM   13  C11 UNK     1      12.151   6.332   6.590  1.00  0.00     0.012 A 
HETATM   14  C13 UNK     1      10.915   6.305   5.943  1.00  0.00     0.001 A 
HETATM   15  C16 UNK     1       9.741   6.194   6.688  1.00  0.00     0.000 A 
HETATM   16  C14 UNK     1       9.802   6.111   8.079  1.00  0.00     0.001 A 
HETATM   17  C12 UNK     1      11.038   6.138   8.725  1.00  0.00     0.012 A 
ENDBRANCH   4  12
BRANCH   8  18
HETATM   18  O2  UNK     1      16.510  10.811  10.163  1.00  0.00    -0.351 OA
BRANCH  18  19
HETATM   19  C15 UNK     1      17.894  10.808   9.817  1.00  0.00     0.171 C 
HETATM   20  C17 UNK     1      18.045  11.271   8.383  1.00  0.00     0.034 C 
ENDBRANCH  18  19
ENDBRANCH   8  18
TORSDOF 3
ENDMDL
MODEL 2
REMARK VINA RESULT:      -7.5     22.317     23.889
REMARK  3 active torsions:
REMARK  status: ('A' for Active; 'I' for Inactive)
REMARK    1  A    between atoms: C15_18  and  O2_2 
REMARK    2  A    between atoms: C7_10  and  O2_2 
REMARK    3  A    between atoms: C2_5  and  C4_7 
ROOT
HETATM    1  O1  UNK     1      17.887   3.224  34.059  1.00  0.00    -0.275 OA
HETATM    2  O3  UNK     1      17.718   1.191  35.091  1.00  0.00    -0.260 OA
HETATM    3  C1  UNK     1      18.606   3.318  31.731  1.00  0.00     0.009 A 
HETATM    4  C2  UNK     1      18.720   1.852  31.718  1.00  0.00    -0.007 A 
HETATM    5  C3  UNK     1      18.194   3.958  32.897  1.00  0.00     0.093 A 
HETATM    6  C5  UNK     1      18.894   4.111  30.613  1.00  0.00     0.018 A 
HETATM    7  C6  UNK     1      18.066   5.346  32.977  1.00  0.00     0.075 A 
HETATM    8  C7  UNK     1      18.356   6.119  31.857  1.00  0.00     0.071 A 
HETATM    9  C8  UNK     1      18.419   1.180  32.842  1.00  0.00     0.095 A 
HETATM   10  C9  UNK     1      18.770   5.504  30.677  1.00  0.00     0.038 A 
HETATM   11  C10 UNK     1      17.982   1.842  34.086  1.00  0.00     0.289 A 
ENDROOT
BRANCH   4  12
HETATM   12  C4  UNK     1      19.136   1.030  30.585  1.00  0.00    -0.025 A 
HETATM   13  C11 UNK     1      20.227   0.177  30.713  1.00  0.00     0.012 A 
HETATM   14  C13 UNK     1      20.624  -0.609  29.630  1.00  0.00     0.001 A 
HETATM   15  C16 UNK     1      19.927  -0.537  28.423  1.00  0.00     0.000 A 
HETATM   16  C14 UNK     1      18.833   0.320  28.300  1.00  0.00     0.001 A 
HETATM   17  C12 UNK     1      18.437   1.105  29.383  1.00  0.00     0.012 A 
ENDBRANCH   4  12
BRANCH   8  18
HETATM   18  O2  UNK     1      18.237   7.474  31.913  1.00  0.00    -0.351 OA
BRANCH  18  19
HETATM   19  C15 UNK     1      17.097   7.997  32.593  1.00  0.00     0.171 C 
HETATM   20  C17 UNK     1      15.916   7.998  31.646  1.00  0.00     0.034 C 
ENDBRANCH  18  19
ENDBRANCH   8  18
TORSDOF 3
ENDMDL
MODEL 3
REMARK VINA RESULT:      -7.5     23.828     25.429
REMARK  3 active torsions:
REMARK  status: ('A' for Active; 'I' for Inactive)
REMARK    1  A    between atoms: C15_18  and  O2_2 
REMARK    2  A    between atoms: C7_10  and  O2_2 
REMARK    3  A    between atoms: C2_5  and  C4_7 
ROOT
HETATM    1  O1  UNK     1      19.300   0.190  31.006  1.00  0.00    -0.275 OA
HETATM    2  O3  UNK     1      19.535  -1.989  31.659  1.00  0.00    -0.260 OA
HETATM    3  C1  UNK     1      18.398   1.813  32.586  1.00  0.00     0.009 A 
HETATM    4  C2  UNK     1      18.272   0.747  33.592  1.00  0.00    -0.007 A 
HETATM    5  C3  UNK     1      18.907   1.503  31.327  1.00  0.00     0.093 A 
HETATM    6  C5  UNK     1      18.028   3.140  32.837  1.00  0.00     0.018 A 
HETATM    7  C6  UNK     1      19.052   2.466  30.328  1.00  0.00     0.075 A 
HETATM    8  C7  UNK     1      18.679   3.780  30.593  1.00  0.00     0.071 A 
HETATM    9  C8  UNK     1      18.656  -0.495  33.255  1.00  0.00     0.095 A 
HETATM   10  C9  UNK     1      18.168   4.117  31.845  1.00  0.00     0.038 A 
HETATM   11  C10 UNK     1      19.197  -0.841  31.927  1.00  0.00     0.289 A 
ENDROOT
BRANCH   4  12
HETATM   12  C4  UNK     1      17.760   0.902  34.951  1.00  0.00    -0.025 A 
HETATM   13  C11 UNK     1      18.558   1.489  35.928  1.00  0.00     0.012 A 
HETATM   14  C13 UNK     1      18.069   1.638  37.226  1.00  0.00     0.001 A 
HETATM   15  C16 UNK     1      16.783   1.199  37.542  1.00  0.00     0.000 A 
HETATM   16  C14 UNK     1      15.987   0.611  36.559  1.00  0.00     0.001 A 
HETATM   17  C12 UNK     1      16.476   0.463  35.262  1.00  0.00     0.012 A 
ENDBRANCH   4  12
BRANCH   8  18
HETATM   18  O2  UNK     1      18.813   4.735  29.632  1.00  0.00    -0.351 OA
BRANCH  18  19
HETATM   19  C15 UNK     1      19.291   6.013  30.049  1.00  0.00     0.171 C 
HETATM   20  C17 UNK     1      20.709   5.866  30.562  1.00  0.00     0.034 C 
ENDBRANCH  18  19
ENDBRANCH   8  18
TORSDOF 3
ENDMDL
MODEL 4
REMARK VINA RESULT:      -7.5     24.342     26.245
REMARK  3 active torsions:
REMARK  status: ('A' for Active; 'I' for Inactive)
REMARK    1  A    between atoms: C15_18  and  O2_2 
REMARK    2  A    between atoms: C7_10  and  O2_2 
REMARK    3  A    between atoms: C2_5  and  C4_7 
ROOT
HETATM    1  O1  UNK     1      18.252   1.680  31.562  1.00  0.00    -0.275 OA
HETATM    2  O3  UNK     1      18.217   2.677  29.504  1.00  0.00    -0.260 OA
HETATM    3  C1  UNK     1      18.356   3.077  33.557  1.00  0.00     0.009 A 
HETATM    4  C2  UNK     1      18.364   4.275  32.704  1.00  0.00    -0.007 A 
HETATM    5  C3  UNK     1      18.300   1.819  32.962  1.00  0.00     0.093 A 
HETATM    6  C5  UNK     1      18.401   3.140  34.956  1.00  0.00     0.018 A 
HETATM    7  C6  UNK     1      18.290   0.642  33.712  1.00  0.00     0.075 A 
HETATM    8  C7  UNK     1      18.335   0.723  35.100  1.00  0.00     0.071 A 
HETATM    9  C8  UNK     1      18.317   4.109  31.372  1.00  0.00     0.095 A 
HETATM   10  C9  UNK     1      18.391   1.969  35.722  1.00  0.00     0.038 A 
HETATM   11  C10 UNK     1      18.258   2.785  30.725  1.00  0.00     0.289 A 
ENDROOT
BRANCH   4  12
HETATM   12  C4  UNK     1      18.420   5.660  33.166  1.00  0.00    -0.025 A 
HETATM   13  C11 UNK     1      17.240   6.346  33.438  1.00  0.00     0.012 A 
HETATM   14  C13 UNK     1      17.293   7.669  33.879  1.00  0.00     0.001 A 
HETATM   15  C16 UNK     1      18.527   8.299  34.047  1.00  0.00     0.000 A 
HETATM   16  C14 UNK     1      19.707   7.607  33.774  1.00  0.00     0.001 A 
HETATM   17  C12 UNK     1      19.653   6.285  33.333  1.00  0.00     0.012 A 
ENDBRANCH   4  12
BRANCH   8  18
HETATM   18  O2  UNK     1      18.325  -0.412  35.851  1.00  0.00    -0.351 OA
BRANCH  18  19
HETATM   19  C15 UNK     1      17.827  -0.306  37.184  1.00  0.00     0.171 C 
HETATM   20  C17 UNK     1      18.257  -1.526  37.970  1.00  0.00     0.034 C 
ENDBRANCH  18  19
ENDBRANCH   8  18
TORSDOF 3
ENDMDL
MODEL 5
REMARK VINA RESULT:      -7.3     35.325     36.549
REMARK  3 active torsions:
REMARK  status: ('A' for Active; 'I' for Inactive)
REMARK    1  A    between atoms: C15_18  and  O2_2 
REMARK    2  A    between atoms: C7_10  and  O2_2 
REMARK    3  A    between atoms: C2_5  and  C4_7 
ROOT
HETATM    1  O1  UNK     1      30.882  -4.579  38.921  1.00  0.00    -0.275 OA
HETATM    2  O3  UNK     1      29.015  -3.567  39.769  1.00  0.00    -0.260 OA
HETATM    3  C1  UNK     1      30.727  -6.875  38.116  1.00  0.00     0.009 A 
HETATM    4  C2  UNK     1      29.300  -6.893  38.474  1.00  0.00    -0.007 A 
HETATM    5  C3  UNK     1      31.472  -5.722  38.350  1.00  0.00     0.093 A 
HETATM    6  C5  UNK     1      31.379  -7.975  37.545  1.00  0.00     0.018 A 
HETATM    7  C6  UNK     1      32.829  -5.639  38.035  1.00  0.00     0.075 A 
HETATM    8  C7  UNK     1      33.462  -6.741  37.468  1.00  0.00     0.071 A 
HETATM    9  C8  UNK     1      28.766  -5.785  39.016  1.00  0.00     0.095 A 
HETATM   10  C9  UNK     1      32.739  -7.907  37.223  1.00  0.00     0.038 A 
HETATM   11  C10 UNK     1      29.540  -4.556  39.271  1.00  0.00     0.289 A 
ENDROOT
BRANCH   4  12
HETATM   12  C4  UNK     1      28.381  -8.014  38.297  1.00  0.00    -0.025 A 
HETATM   13  C11 UNK     1      27.807  -8.247  37.051  1.00  0.00     0.012 A 
HETATM   14  C13 UNK     1      26.930  -9.319  36.881  1.00  0.00     0.001 A 
HETATM   15  C16 UNK     1      26.632 -10.154  37.959  1.00  0.00     0.000 A 
HETATM   16  C14 UNK     1      27.210  -9.916  39.206  1.00  0.00     0.001 A 
HETATM   17  C12 UNK     1      28.087  -8.845  39.375  1.00  0.00     0.012 A 
ENDBRANCH   4  12
BRANCH   8  18
HETATM   18  O2  UNK     1      34.785  -6.681  37.152  1.00  0.00    -0.351 OA
BRANCH  18  19
HETATM   19  C15 UNK     1      35.226  -5.539  36.420  1.00  0.00     0.171 C 
HETATM   20  C17 UNK     1      35.004  -5.785  34.942  1.00  0.00     0.034 C 
ENDBRANCH  18  19
ENDBRANCH   8  18
TORSDOF 3
ENDMDL
MODEL 6
REMARK VINA RESULT:      -7.3     23.123     24.759
REMARK  3 active torsions:
REMARK  status: ('A' for Active; 'I' for Inactive)
REMARK    1  A    between atoms: C15_18  and  O2_2 
REMARK    2  A    between atoms: C7_10  and  O2_2 
REMARK    3  A    between atoms: C2_5  and  C4_7 
ROOT
HETATM    1  O1  UNK     1      14.495   8.495  32.909  1.00  0.00    -0.275 OA
HETATM    2  O3  UNK     1      13.665   6.659  31.827  1.00  0.00    -0.260 OA
HETATM    3  C1  UNK     1      16.910   8.785  33.074  1.00  0.00     0.009 A 
HETATM    4  C2  UNK     1      17.101   7.530  32.332  1.00  0.00    -0.007 A 
HETATM    5  C3  UNK     1      15.616   9.228  33.340  1.00  0.00     0.093 A 
HETATM    6  C5  UNK     1      17.979   9.566  33.532  1.00  0.00     0.018 A 
HETATM    7  C6  UNK     1      15.365  10.410  34.039  1.00  0.00     0.075 A 
HETATM    8  C7  UNK     1      16.439  11.174  34.487  1.00  0.00     0.071 A 
HETATM    9  C8  UNK     1      16.010   6.853  31.934  1.00  0.00     0.095 A 
HETATM   10  C9  UNK     1      17.743  10.753  34.235  1.00  0.00     0.038 A 
HETATM   11  C10 UNK     1      14.634   7.308  32.206  1.00  0.00     0.289 A 
ENDROOT
BRANCH   4  12
HETATM   12  C4  UNK     1      18.382   6.928  31.974  1.00  0.00    -0.025 A 
HETATM   13  C11 UNK     1      18.583   6.446  30.684  1.00  0.00     0.012 A 
HETATM   14  C13 UNK     1      19.808   5.871  30.341  1.00  0.00     0.001 A 
HETATM   15  C16 UNK     1      20.826   5.781  31.291  1.00  0.00     0.000 A 
HETATM   16  C14 UNK     1      20.620   6.266  32.583  1.00  0.00     0.001 A 
HETATM   17  C12 UNK     1      19.396   6.841  32.924  1.00  0.00     0.012 A 
ENDBRANCH   4  12
BRANCH   8  18
HETATM   18  O2  UNK     1      16.216  12.329  35.170  1.00  0.00    -0.351 OA
BRANCH  18  19
HETATM   19  C15 UNK     1      17.331  13.200  35.355  1.00  0.00     0.171 C 
HETATM   20  C17 UNK     1      17.139  14.435  34.499  1.00  0.00     0.034 C 
ENDBRANCH  18  19
ENDBRANCH   8  18
TORSDOF 3
ENDMDL
MODEL 7
REMARK VINA RESULT:      -7.3     35.084     36.645
REMARK  3 active torsions:
REMARK  status: ('A' for Active; 'I' for Inactive)
REMARK    1  A    between atoms: C15_18  and  O2_2 
REMARK    2  A    between atoms: C7_10  and  O2_2 
REMARK    3  A    between atoms: C2_5  and  C4_7 
ROOT
HETATM    1  O1  UNK     1      28.866  -5.456  39.454  1.00  0.00    -0.275 OA
HETATM    2  O3  UNK     1      29.360  -3.284  39.969  1.00  0.00    -0.260 OA
HETATM    3  C1  UNK     1      30.369  -6.702  37.993  1.00  0.00     0.009 A 
HETATM    4  C2  UNK     1      31.232  -5.516  37.887  1.00  0.00    -0.007 A 
HETATM    5  C3  UNK     1      29.215  -6.637  38.771  1.00  0.00     0.093 A 
HETATM    6  C5  UNK     1      30.655  -7.909  37.342  1.00  0.00     0.018 A 
HETATM    7  C6  UNK     1      28.353  -7.725  38.914  1.00  0.00     0.075 A 
HETATM    8  C7  UNK     1      28.652  -8.917  38.260  1.00  0.00     0.071 A 
HETATM    9  C8  UNK     1      30.871  -4.405  38.551  1.00  0.00     0.095 A 
HETATM   10  C9  UNK     1      29.800  -9.009  37.475  1.00  0.00     0.038 A 
HETATM   11  C10 UNK     1      29.654  -4.318  39.380  1.00  0.00     0.289 A 
ENDROOT
BRANCH   4  12
HETATM   12  C4  UNK     1      32.468  -5.417  37.116  1.00  0.00    -0.025 A 
HETATM   13  C11 UNK     1      33.631  -6.012  37.596  1.00  0.00     0.012 A 
HETATM   14  C13 UNK     1      34.813  -5.918  36.859  1.00  0.00     0.001 A 
HETATM   15  C16 UNK     1      34.825  -5.229  35.646  1.00  0.00     0.000 A 
HETATM   16  C14 UNK     1      33.657  -4.634  35.169  1.00  0.00     0.001 A 
HETATM   17  C12 UNK     1      32.477  -4.729  35.906  1.00  0.00     0.012 A 
ENDBRANCH   4  12
BRANCH   8  18
HETATM   18  O2  UNK     1      27.825  -9.990  38.387  1.00  0.00    -0.351 OA
BRANCH  18  19
HETATM   19  C15 UNK     1      26.481  -9.831  37.936  1.00  0.00     0.171 C 
HETATM   20  C17 UNK     1      26.391 -10.270  36.489  1.00  0.00     0.034 C 
ENDBRANCH  18  19
ENDBRANCH   8  18
TORSDOF 3
ENDMDL
MODEL 8
REMARK VINA RESULT:      -7.2     23.026     24.662
REMARK  3 active torsions:
REMARK  status: ('A' for Active; 'I' for Inactive)
REMARK    1  A    between atoms: C15_18  and  O2_2 
REMARK    2  A    between atoms: C7_10  and  O2_2 
REMARK    3  A    between atoms: C2_5  and  C4_7 
ROOT
HETATM    1  O1  UNK     1      18.401   9.520  34.346  1.00  0.00    -0.275 OA
HETATM    2  O3  UNK     1      20.656   9.239  34.598  1.00  0.00    -0.260 OA
HETATM    3  C1  UNK     1      17.141   7.896  33.034  1.00  0.00     0.009 A 
HETATM    4  C2  UNK     1      18.384   7.150  32.784  1.00  0.00    -0.007 A 
HETATM    5  C3  UNK     1      17.187   9.055  33.805  1.00  0.00     0.093 A 
HETATM    6  C5  UNK     1      15.899   7.492  32.529  1.00  0.00     0.018 A 
HETATM    7  C6  UNK     1      16.046   9.810  34.080  1.00  0.00     0.075 A 
HETATM    8  C7  UNK     1      14.819   9.395  33.570  1.00  0.00     0.071 A 
HETATM    9  C8  UNK     1      19.525   7.619  33.315  1.00  0.00     0.095 A 
HETATM   10  C9  UNK     1      14.745   8.238  32.795  1.00  0.00     0.038 A 
HETATM   11  C10 UNK     1      19.592   8.844  34.134  1.00  0.00     0.289 A 
ENDROOT
BRANCH   4  12
HETATM   12  C4  UNK     1      18.509   5.924  32.001  1.00  0.00    -0.025 A 
HETATM   13  C11 UNK     1      19.046   5.974  30.719  1.00  0.00     0.012 A 
HETATM   14  C13 UNK     1      19.167   4.802  29.971  1.00  0.00     0.001 A 
HETATM   15  C16 UNK     1      18.749   3.585  30.509  1.00  0.00     0.000 A 
HETATM   16  C14 UNK     1      18.211   3.539  31.796  1.00  0.00     0.001 A 
HETATM   17  C12 UNK     1      18.091   4.711  32.543  1.00  0.00     0.012 A 
ENDBRANCH   4  12
BRANCH   8  18
HETATM   18  O2  UNK     1      13.694  10.116  33.826  1.00  0.00    -0.351 OA
BRANCH  18  19
HETATM   19  C15 UNK     1      13.540  11.350  33.126  1.00  0.00     0.171 C 
HETATM   20  C17 UNK     1      12.096  11.494  32.693  1.00  0.00     0.034 C 
ENDBRANCH  18  19
ENDBRANCH   8  18
TORSDOF 3
ENDMDL
MODEL 9
REMARK VINA RESULT:      -7.2      2.040      5.909
REMARK  3 active torsions:
REMARK  status: ('A' for Active; 'I' for Inactive)
REMARK    1  A    between atoms: C15_18  and  O2_2 
REMARK    2  A    between atoms: C7_10  and  O2_2 
REMARK    3  A    between atoms: C2_5  and  C4_7 
ROOT
HETATM    1  O1  UNK     1      13.905   4.588   9.159  1.00  0.00    -0.275 OA
HETATM    2  O3  UNK     1      16.062   4.084   9.723  1.00  0.00    -0.260 OA
HETATM    3  C1  UNK     1      13.125   6.888   9.376  1.00  0.00     0.009 A 
HETATM    4  C2  UNK     1      14.456   7.281   9.863  1.00  0.00    -0.007 A 
HETATM    5  C3  UNK     1      12.891   5.557   9.039  1.00  0.00     0.093 A 
HETATM    6  C5  UNK     1      12.071   7.798   9.231  1.00  0.00     0.018 A 
HETATM    7  C6  UNK     1      11.651   5.117   8.571  1.00  0.00     0.075 A 
HETATM    8  C7  UNK     1      10.614   6.035   8.433  1.00  0.00     0.071 A 
HETATM    9  C8  UNK     1      15.403   6.333   9.965  1.00  0.00     0.095 A 
HETATM   10  C9  UNK     1      10.823   7.373   8.763  1.00  0.00     0.038 A 
HETATM   11  C10 UNK     1      15.171   4.919   9.613  1.00  0.00     0.289 A 
ENDROOT
BRANCH   4  12
HETATM   12  C4  UNK     1      14.866   8.626  10.257  1.00  0.00    -0.025 A 
HETATM   13  C11 UNK     1      15.791   9.322   9.485  1.00  0.00     0.012 A 
HETATM   14  C13 UNK     1      16.182  10.607   9.861  1.00  0.00     0.001 A 
HETATM   15  C16 UNK     1      15.645  11.191  11.009  1.00  0.00     0.000 A 
HETATM   16  C14 UNK     1      14.719  10.491  11.780  1.00  0.00     0.001 A 
HETATM   17  C12 UNK     1      14.328   9.206  11.403  1.00  0.00     0.012 A 
ENDBRANCH   4  12
BRANCH   8  18
HETATM   18  O2  UNK     1       9.398   5.627   7.978  1.00  0.00    -0.351 OA
BRANCH  18  19
HETATM   19  C15 UNK     1       8.800   6.402   6.940  1.00  0.00     0.171 C 
HETATM   20  C17 UNK     1       9.599   6.222   5.667  1.00  0.00     0.034 C 
ENDBRANCH  18  19
ENDBRANCH   8  18
TORSDOF 3
ENDMDL
MODEL 10
REMARK VINA RESULT:      -7.1      1.718      2.157
REMARK  3 active torsions:
REMARK  status: ('A' for Active; 'I' for Inactive)
REMARK    1  A    between atoms: C15_18  and  O2_2 
REMARK    2  A    between atoms: C7_10  and  O2_2 
REMARK    3  A    between atoms: C2_5  and  C4_7 
ROOT
HETATM    1  O1  UNK     1      15.314   6.183  10.419  1.00  0.00    -0.275 OA
HETATM    2  O3  UNK     1      15.531   4.003   9.762  1.00  0.00    -0.260 OA
HETATM    3  C1  UNK     1      13.433   7.493   9.587  1.00  0.00     0.009 A 
HETATM    4  C2  UNK     1      12.968   6.322   8.827  1.00  0.00    -0.007 A 
HETATM    5  C3  UNK     1      14.588   7.388  10.358  1.00  0.00     0.093 A 
HETATM    6  C5  UNK     1      12.761   8.722   9.574  1.00  0.00     0.018 A 
HETATM    7  C6  UNK     1      15.083   8.459  11.103  1.00  0.00     0.075 A 
HETATM    8  C7  UNK     1      14.404   9.673  11.078  1.00  0.00     0.071 A 
HETATM    9  C8  UNK     1      13.682   5.187   8.907  1.00  0.00     0.095 A 
HETATM   10  C9  UNK     1      13.245   9.805  10.315  1.00  0.00     0.038 A 
HETATM   11  C10 UNK     1      14.907   5.058   9.718  1.00  0.00     0.289 A 
ENDROOT
BRANCH   4  12
HETATM   12  C4  UNK     1      11.784   6.264   7.974  1.00  0.00    -0.025 A 
HETATM   13  C11 UNK     1      11.919   6.383   6.594  1.00  0.00     0.012 A 
HETATM   14  C13 UNK     1      10.788   6.327   5.780  1.00  0.00     0.001 A 
HETATM   15  C16 UNK     1       9.526   6.153   6.349  1.00  0.00     0.000 A 
HETATM   16  C14 UNK     1       9.395   6.034   7.733  1.00  0.00     0.001 A 
HETATM   17  C12 UNK     1      10.527   6.089   8.547  1.00  0.00     0.012 A 
ENDBRANCH   4  12
BRANCH   8  18
HETATM   18  O2  UNK     1      14.870  10.731  11.798  1.00  0.00    -0.351 OA
BRANCH  18  19
HETATM   19  C15 UNK     1      13.898  11.587  12.397  1.00  0.00     0.171 C 
HETATM   20  C17 UNK     1      13.631  11.116  13.811  1.00  0.00     0.034 C 
ENDBRANCH  18  19
ENDBRANCH   8  18
TORSDOF 3
ENDMDL
