MODEL 1
REMARK VINA RESULT:      -8.6      0.000      0.000
REMARK  3 active torsions:
REMARK  status: ('A' for Active; 'I' for Inactive)
REMARK    1  A    between atoms: C15_19  and  O4_4 
REMARK    2  A    between atoms: C3_7  and  C8_12 
REMARK    3  A    between atoms: C10_14  and  C8_12 
ROOT
HETATM    1  O1  UNK     1      15.893   8.532  31.388  1.00  0.00    -0.321 OA
HETATM    2  O2  UNK     1      18.011   7.847  34.810  1.00  0.00    -0.286 OA
HETATM    3  C1  UNK     1      16.177   8.913  33.772  1.00  0.00     0.049 A 
HETATM    4  C2  UNK     1      15.495   9.108  32.569  1.00  0.00     0.089 A 
HETATM    5  C3  UNK     1      17.758   7.456  32.487  1.00  0.00     0.088 A 
HETATM    6  C4  UNK     1      17.375   8.054  33.785  1.00  0.00     0.201 A 
HETATM    7  C5  UNK     1      15.727   9.524  34.945  1.00  0.00     0.025 A 
HETATM    8  C6  UNK     1      14.589  10.333  34.905  1.00  0.00    -0.061 A 
HETATM    9  C7  UNK     1      14.360   9.917  32.534  1.00  0.00     0.039 A 
HETATM   10  C9  UNK     1      13.907  10.528  33.703  1.00  0.00     0.009 A 
HETATM   11  C11 UNK     1      17.011   7.732  31.414  1.00  0.00     0.162 A 
HETATM   12  C12 UNK     1      14.101  10.990  36.152  1.00  0.00     0.048 C 
ENDROOT
BRANCH   5  13
HETATM   13  C8  UNK     1      18.915   6.578  32.310  1.00  0.00     0.198 C 
HETATM   14  O3  UNK     1      20.036   6.935  32.676  1.00  0.00    -0.286 OA
BRANCH  13  15
HETATM   15  C10 UNK     1      18.723   5.234  31.703  1.00  0.00     0.015 A 
HETATM   16  C14 UNK     1      19.092   5.040  30.389  1.00  0.00     0.018 A 
HETATM   17  C17 UNK     1      18.911   3.779  29.819  1.00  0.00     0.037 A 
HETATM   18  C15 UNK     1      18.364   2.744  30.577  1.00  0.00     0.068 A 
HETATM   19  C16 UNK     1      17.999   2.968  31.905  1.00  0.00     0.037 A 
HETATM   20  C13 UNK     1      18.181   4.229  32.474  1.00  0.00     0.018 A 
BRANCH  18  21
HETATM   21  O4  UNK     1      18.185   1.514  30.021  1.00  0.00    -0.356 OA
HETATM   22  C18 UNK     1      17.918   1.467  28.621  1.00  0.00     0.210 C 
ENDBRANCH  18  21
ENDBRANCH  13  15
ENDBRANCH   5  13
TORSDOF 3
ENDMDL
MODEL 2
REMARK VINA RESULT:      -8.4      0.780      1.970
REMARK  3 active torsions:
REMARK  status: ('A' for Active; 'I' for Inactive)
REMARK    1  A    between atoms: C15_19  and  O4_4 
REMARK    2  A    between atoms: C3_7  and  C8_12 
REMARK    3  A    between atoms: C10_14  and  C8_12 
ROOT
HETATM    1  O1  UNK     1      17.134   8.377  35.436  1.00  0.00    -0.321 OA
HETATM    2  O2  UNK     1      17.051   8.071  31.366  1.00  0.00    -0.286 OA
HETATM    3  C1  UNK     1      16.058   8.931  33.329  1.00  0.00     0.049 A 
HETATM    4  C2  UNK     1      16.141   8.999  34.721  1.00  0.00     0.089 A 
HETATM    5  C3  UNK     1      18.123   7.517  33.405  1.00  0.00     0.088 A 
HETATM    6  C4  UNK     1      17.074   8.163  32.586  1.00  0.00     0.201 A 
HETATM    7  C5  UNK     1      15.024   9.584  32.652  1.00  0.00     0.025 A 
HETATM    8  C6  UNK     1      14.074  10.305  33.378  1.00  0.00    -0.061 A 
HETATM    9  C7  UNK     1      15.190   9.719  35.443  1.00  0.00     0.039 A 
HETATM   10  C9  UNK     1      14.157  10.372  34.770  1.00  0.00     0.009 A 
HETATM   11  C11 UNK     1      18.077   7.666  34.732  1.00  0.00     0.162 A 
HETATM   12  C12 UNK     1      12.967  11.004  32.665  1.00  0.00     0.048 C 
ENDROOT
BRANCH   5  13
HETATM   13  C8  UNK     1      19.212   6.717  32.842  1.00  0.00     0.198 C 
HETATM   14  O3  UNK     1      20.383   7.077  32.963  1.00  0.00    -0.286 OA
BRANCH  13  15
HETATM   15  C10 UNK     1      18.892   5.447  32.138  1.00  0.00     0.015 A 
HETATM   16  C14 UNK     1      19.248   5.313  30.813  1.00  0.00     0.018 A 
HETATM   17  C17 UNK     1      18.947   4.121  30.153  1.00  0.00     0.037 A 
HETATM   18  C15 UNK     1      18.297   3.092  30.833  1.00  0.00     0.068 A 
HETATM   19  C16 UNK     1      17.947   3.254  32.174  1.00  0.00     0.037 A 
HETATM   20  C13 UNK     1      18.249   4.446  32.834  1.00  0.00     0.018 A 
BRANCH  18  21
HETATM   21  O4  UNK     1      18.001   1.930  30.189  1.00  0.00    -0.356 OA
HETATM   22  C18 UNK     1      17.885   1.986  28.769  1.00  0.00     0.210 C 
ENDBRANCH  18  21
ENDBRANCH  13  15
ENDBRANCH   5  13
TORSDOF 3
ENDMDL
MODEL 3
REMARK VINA RESULT:      -8.3      3.618      8.931
REMARK  3 active torsions:
REMARK  status: ('A' for Active; 'I' for Inactive)
REMARK    1  A    between atoms: C15_19  and  O4_4 
REMARK    2  A    between atoms: C3_7  and  C8_12 
REMARK    3  A    between atoms: C10_14  and  C8_12 
ROOT
HETATM    1  O1  UNK     1      19.620   0.774  28.878  1.00  0.00    -0.321 OA
HETATM    2  O2  UNK     1      18.602   0.919  32.829  1.00  0.00    -0.286 OA
HETATM    3  C1  UNK     1      19.638  -0.271  31.072  1.00  0.00     0.049 A 
HETATM    4  C2  UNK     1      19.958  -0.262  29.713  1.00  0.00     0.089 A 
HETATM    5  C3  UNK     1      18.570   1.963  30.702  1.00  0.00     0.088 A 
HETATM    6  C4  UNK     1      18.907   0.874  31.645  1.00  0.00     0.201 A 
HETATM    7  C5  UNK     1      20.009  -1.352  31.876  1.00  0.00     0.025 A 
HETATM    8  C6  UNK     1      20.701  -2.425  31.310  1.00  0.00    -0.061 A 
HETATM    9  C7  UNK     1      20.649  -1.335  29.151  1.00  0.00     0.039 A 
HETATM   10  C9  UNK     1      21.021  -2.416  29.951  1.00  0.00     0.009 A 
HETATM   11  C11 UNK     1      18.940   1.836  29.424  1.00  0.00     0.162 A 
HETATM   12  C12 UNK     1      21.101  -3.584  32.160  1.00  0.00     0.048 C 
ENDROOT
BRANCH   5  13
HETATM   13  C8  UNK     1      17.849   3.176  31.091  1.00  0.00     0.198 C 
HETATM   14  O3  UNK     1      16.632   3.264  30.923  1.00  0.00    -0.286 OA
BRANCH  13  15
HETATM   15  C10 UNK     1      18.598   4.299  31.716  1.00  0.00     0.015 A 
HETATM   16  C14 UNK     1      19.459   5.039  30.935  1.00  0.00     0.018 A 
HETATM   17  C17 UNK     1      20.162   6.092  31.521  1.00  0.00     0.037 A 
HETATM   18  C15 UNK     1      19.986   6.379  32.875  1.00  0.00     0.068 A 
HETATM   19  C16 UNK     1      19.108   5.613  33.642  1.00  0.00     0.037 A 
HETATM   20  C13 UNK     1      18.405   4.560  33.055  1.00  0.00     0.018 A 
BRANCH  18  21
HETATM   21  O4  UNK     1      20.673   7.404  33.448  1.00  0.00    -0.356 OA
HETATM   22  C18 UNK     1      19.911   8.387  34.147  1.00  0.00     0.210 C 
ENDBRANCH  18  21
ENDBRANCH  13  15
ENDBRANCH   5  13
TORSDOF 3
ENDMDL
MODEL 4
REMARK VINA RESULT:      -8.3      3.580      5.263
REMARK  3 active torsions:
REMARK  status: ('A' for Active; 'I' for Inactive)
REMARK    1  A    between atoms: C15_19  and  O4_4 
REMARK    2  A    between atoms: C3_7  and  C8_12 
REMARK    3  A    between atoms: C10_14  and  C8_12 
ROOT
HETATM    1  O1  UNK     1      17.631   3.715  32.919  1.00  0.00    -0.321 OA
HETATM    2  O2  UNK     1      19.988   5.210  29.939  1.00  0.00    -0.286 OA
HETATM    3  C1  UNK     1      19.109   5.470  32.116  1.00  0.00     0.049 A 
HETATM    4  C2  UNK     1      18.290   4.907  33.096  1.00  0.00     0.089 A 
HETATM    5  C3  UNK     1      18.553   3.483  30.696  1.00  0.00     0.088 A 
HETATM    6  C4  UNK     1      19.282   4.763  30.833  1.00  0.00     0.201 A 
HETATM    7  C5  UNK     1      19.756   6.686  32.351  1.00  0.00     0.025 A 
HETATM    8  C6  UNK     1      19.576   7.335  33.574  1.00  0.00    -0.061 A 
HETATM    9  C7  UNK     1      18.112   5.559  34.316  1.00  0.00     0.039 A 
HETATM   10  C9  UNK     1      18.757   6.773  34.554  1.00  0.00     0.009 A 
HETATM   11  C11 UNK     1      17.802   3.065  31.720  1.00  0.00     0.162 A 
HETATM   12  C12 UNK     1      20.262   8.634  33.834  1.00  0.00     0.048 C 
ENDROOT
BRANCH   5  13
HETATM   13  C8  UNK     1      18.606   2.646  29.497  1.00  0.00     0.198 C 
HETATM   14  O3  UNK     1      18.181   3.064  28.420  1.00  0.00    -0.286 OA
BRANCH  13  15
HETATM   15  C10 UNK     1      19.201   1.286  29.586  1.00  0.00     0.015 A 
HETATM   16  C14 UNK     1      19.131   0.457  28.486  1.00  0.00     0.018 A 
HETATM   17  C17 UNK     1      19.689  -0.819  28.570  1.00  0.00     0.037 A 
HETATM   18  C15 UNK     1      20.303  -1.236  29.750  1.00  0.00     0.068 A 
HETATM   19  C16 UNK     1      20.360  -0.377  30.848  1.00  0.00     0.037 A 
HETATM   20  C13 UNK     1      19.802   0.899  30.765  1.00  0.00     0.018 A 
BRANCH  18  21
HETATM   21  O4  UNK     1      20.846  -2.481  29.833  1.00  0.00    -0.356 OA
HETATM   22  C18 UNK     1      20.879  -3.091  31.121  1.00  0.00     0.210 C 
ENDBRANCH  18  21
ENDBRANCH  13  15
ENDBRANCH   5  13
TORSDOF 3
ENDMDL
MODEL 5
REMARK VINA RESULT:      -8.2     23.089     24.803
REMARK  3 active torsions:
REMARK  status: ('A' for Active; 'I' for Inactive)
REMARK    1  A    between atoms: C15_19  and  O4_4 
REMARK    2  A    between atoms: C3_7  and  C8_12 
REMARK    3  A    between atoms: C10_14  and  C8_12 
ROOT
HETATM    1  O1  UNK     1       7.881   7.711  10.529  1.00  0.00    -0.321 OA
HETATM    2  O2  UNK     1       7.545   4.331   8.265  1.00  0.00    -0.286 OA
HETATM    3  C1  UNK     1       6.820   5.558  10.148  1.00  0.00     0.049 A 
HETATM    4  C2  UNK     1       6.981   6.736  10.880  1.00  0.00     0.089 A 
HETATM    5  C3  UNK     1       8.596   6.426   8.610  1.00  0.00     0.088 A 
HETATM    6  C4  UNK     1       7.644   5.343   8.945  1.00  0.00     0.201 A 
HETATM    7  C5  UNK     1       5.887   4.600  10.552  1.00  0.00     0.025 A 
HETATM    8  C6  UNK     1       5.118   4.827  11.694  1.00  0.00    -0.061 A 
HETATM    9  C7  UNK     1       6.211   6.959  12.022  1.00  0.00     0.039 A 
HETATM   10  C9  UNK     1       5.279   6.004  12.427  1.00  0.00     0.009 A 
HETATM   11  C11 UNK     1       8.643   7.500   9.405  1.00  0.00     0.162 A 
HETATM   12  C12 UNK     1       4.120   3.809  12.134  1.00  0.00     0.048 C 
ENDROOT
BRANCH   5  13
HETATM   13  C8  UNK     1       9.493   6.387   7.455  1.00  0.00     0.198 C 
HETATM   14  O3  UNK     1       9.059   6.567   6.316  1.00  0.00    -0.286 OA
BRANCH  13  15
HETATM   15  C10 UNK     1      10.945   6.151   7.669  1.00  0.00     0.015 A 
HETATM   16  C14 UNK     1      11.853   6.960   7.021  1.00  0.00     0.018 A 
HETATM   17  C17 UNK     1      13.215   6.738   7.222  1.00  0.00     0.037 A 
HETATM   18  C15 UNK     1      13.637   5.711   8.066  1.00  0.00     0.068 A 
HETATM   19  C16 UNK     1      12.697   4.906   8.710  1.00  0.00     0.037 A 
HETATM   20  C13 UNK     1      11.334   5.130   8.509  1.00  0.00     0.018 A 
BRANCH  18  21
HETATM   21  O4  UNK     1      14.966   5.492   8.261  1.00  0.00    -0.356 OA
HETATM   22  C18 UNK     1      15.390   5.208   9.593  1.00  0.00     0.210 C 
ENDBRANCH  18  21
ENDBRANCH  13  15
ENDBRANCH   5  13
TORSDOF 3
ENDMDL
MODEL 6
REMARK VINA RESULT:      -8.1      1.893      2.366
REMARK  3 active torsions:
REMARK  status: ('A' for Active; 'I' for Inactive)
REMARK    1  A    between atoms: C15_19  and  O4_4 
REMARK    2  A    between atoms: C3_7  and  C8_12 
REMARK    3  A    between atoms: C10_14  and  C8_12 
ROOT
HETATM    1  O1  UNK     1      16.019   8.144  33.638  1.00  0.00    -0.321 OA
HETATM    2  O2  UNK     1      20.085   8.409  33.888  1.00  0.00    -0.286 OA
HETATM    3  C1  UNK     1      18.002   9.520  33.924  1.00  0.00     0.049 A 
HETATM    4  C2  UNK     1      16.617   9.364  33.831  1.00  0.00     0.089 A 
HETATM    5  C3  UNK     1      18.171   7.042  33.609  1.00  0.00     0.088 A 
HETATM    6  C4  UNK     1      18.867   8.331  33.813  1.00  0.00     0.201 A 
HETATM    7  C5  UNK     1      18.556  10.788  34.122  1.00  0.00     0.025 A 
HETATM    8  C6  UNK     1      17.716  11.898  34.225  1.00  0.00    -0.061 A 
HETATM    9  C7  UNK     1      15.781  10.476  33.933  1.00  0.00     0.039 A 
HETATM   10  C9  UNK     1      16.332  11.742  34.131  1.00  0.00     0.009 A 
HETATM   11  C11 UNK     1      16.836   7.043  33.538  1.00  0.00     0.162 A 
HETATM   12  C12 UNK     1      18.299  13.254  34.435  1.00  0.00     0.048 C 
ENDROOT
BRANCH   5  13
HETATM   13  C8  UNK     1      18.864   5.760  33.477  1.00  0.00     0.198 C 
HETATM   14  O3  UNK     1      19.504   5.292  34.420  1.00  0.00    -0.286 OA
BRANCH  13  15
HETATM   15  C10 UNK     1      18.769   5.010  32.197  1.00  0.00     0.015 A 
HETATM   16  C14 UNK     1      18.226   3.743  32.207  1.00  0.00     0.018 A 
HETATM   17  C17 UNK     1      18.138   3.040  31.005  1.00  0.00     0.037 A 
HETATM   18  C15 UNK     1      18.596   3.620  29.822  1.00  0.00     0.068 A 
HETATM   19  C16 UNK     1      19.141   4.904  29.840  1.00  0.00     0.037 A 
HETATM   20  C13 UNK     1      19.229   5.607  31.043  1.00  0.00     0.018 A 
BRANCH  18  21
HETATM   21  O4  UNK     1      18.512   2.933  28.650  1.00  0.00    -0.356 OA
HETATM   22  C18 UNK     1      17.863   1.664  28.686  1.00  0.00     0.210 C 
ENDBRANCH  18  21
ENDBRANCH  13  15
ENDBRANCH   5  13
TORSDOF 3
ENDMDL
MODEL 7
REMARK VINA RESULT:      -8.1      2.952      5.122
REMARK  3 active torsions:
REMARK  status: ('A' for Active; 'I' for Inactive)
REMARK    1  A    between atoms: C15_19  and  O4_4 
REMARK    2  A    between atoms: C3_7  and  C8_12 
REMARK    3  A    between atoms: C10_14  and  C8_12 
ROOT
HETATM    1  O1  UNK     1      20.111   5.459  30.701  1.00  0.00    -0.321 OA
HETATM    2  O2  UNK     1      16.879   3.140  31.621  1.00  0.00    -0.286 OA
HETATM    3  C1  UNK     1      18.170   5.057  32.107  1.00  0.00     0.049 A 
HETATM    4  C2  UNK     1      19.289   5.808  31.743  1.00  0.00     0.089 A 
HETATM    5  C3  UNK     1      18.763   3.507  30.232  1.00  0.00     0.088 A 
HETATM    6  C4  UNK     1      17.847   3.836  31.347  1.00  0.00     0.201 A 
HETATM    7  C5  UNK     1      17.367   5.462  33.177  1.00  0.00     0.025 A 
HETATM    8  C6  UNK     1      17.694   6.622  33.882  1.00  0.00    -0.061 A 
HETATM    9  C7  UNK     1      19.612   6.967  32.449  1.00  0.00     0.039 A 
HETATM   10  C9  UNK     1      18.813   7.373  33.518  1.00  0.00     0.009 A 
HETATM   11  C11 UNK     1      19.798   4.319  29.998  1.00  0.00     0.162 A 
HETATM   12  C12 UNK     1      16.844   7.061  35.026  1.00  0.00     0.048 C 
ENDROOT
BRANCH   5  13
HETATM   13  C8  UNK     1      18.600   2.337  29.369  1.00  0.00     0.198 C 
HETATM   14  O3  UNK     1      18.009   2.427  28.292  1.00  0.00    -0.286 OA
BRANCH  13  15
HETATM   15  C10 UNK     1      19.178   1.034  29.794  1.00  0.00     0.015 A 
HETATM   16  C14 UNK     1      19.753   0.219  28.842  1.00  0.00     0.018 A 
HETATM   17  C17 UNK     1      20.294  -1.003  29.242  1.00  0.00     0.037 A 
HETATM   18  C15 UNK     1      20.247  -1.382  30.583  1.00  0.00     0.068 A 
HETATM   19  C16 UNK     1      19.659  -0.539  31.526  1.00  0.00     0.037 A 
HETATM   20  C13 UNK     1      19.118   0.684  31.126  1.00  0.00     0.018 A 
BRANCH  18  21
HETATM   21  O4  UNK     1      20.773  -2.575  30.972  1.00  0.00    -0.356 OA
HETATM   22  C18 UNK     1      21.027  -2.750  32.365  1.00  0.00     0.210 C 
ENDBRANCH  18  21
ENDBRANCH  13  15
ENDBRANCH   5  13
TORSDOF 3
ENDMDL
MODEL 8
REMARK VINA RESULT:      -8.0      1.462      2.054
REMARK  3 active torsions:
REMARK  status: ('A' for Active; 'I' for Inactive)
REMARK    1  A    between atoms: C15_19  and  O4_4 
REMARK    2  A    between atoms: C3_7  and  C8_12 
REMARK    3  A    between atoms: C10_14  and  C8_12 
ROOT
HETATM    1  O1  UNK     1      18.834   9.790  34.139  1.00  0.00    -0.321 OA
HETATM    2  O2  UNK     1      16.268   6.764  33.175  1.00  0.00    -0.286 OA
HETATM    3  C1  UNK     1      16.570   9.060  33.640  1.00  0.00     0.049 A 
HETATM    4  C2  UNK     1      17.497  10.050  33.969  1.00  0.00     0.089 A 
HETATM    5  C3  UNK     1      18.486   7.446  33.655  1.00  0.00     0.088 A 
HETATM    6  C4  UNK     1      17.036   7.672  33.464  1.00  0.00     0.201 A 
HETATM    7  C5  UNK     1      15.220   9.383  33.479  1.00  0.00     0.025 A 
HETATM    8  C6  UNK     1      14.805  10.705  33.651  1.00  0.00    -0.061 A 
HETATM    9  C7  UNK     1      17.078  11.370  34.141  1.00  0.00     0.039 A 
HETATM   10  C9  UNK     1      15.731  11.696  33.981  1.00  0.00     0.009 A 
HETATM   11  C11 UNK     1      19.257   8.492  33.970  1.00  0.00     0.162 A 
HETATM   12  C12 UNK     1      13.366  11.060  33.482  1.00  0.00     0.048 C 
ENDROOT
BRANCH   5  13
HETATM   13  C8  UNK     1      19.126   6.138  33.521  1.00  0.00     0.198 C 
HETATM   14  O3  UNK     1      19.789   5.665  34.445  1.00  0.00    -0.286 OA
BRANCH  13  15
HETATM   15  C10 UNK     1      18.949   5.367  32.261  1.00  0.00     0.015 A 
HETATM   16  C14 UNK     1      19.392   5.919  31.077  1.00  0.00     0.018 A 
HETATM   17  C17 UNK     1      19.226   5.196  29.896  1.00  0.00     0.037 A 
HETATM   18  C15 UNK     1      18.621   3.940  29.926  1.00  0.00     0.068 A 
HETATM   19  C16 UNK     1      18.182   3.406  31.137  1.00  0.00     0.037 A 
HETATM   20  C13 UNK     1      18.348   4.129  32.319  1.00  0.00     0.018 A 
BRANCH  18  21
HETATM   21  O4  UNK     1      18.456   3.236  28.773  1.00  0.00    -0.356 OA
HETATM   22  C18 UNK     1      17.940   1.911  28.888  1.00  0.00     0.210 C 
ENDBRANCH  18  21
ENDBRANCH  13  15
ENDBRANCH   5  13
TORSDOF 3
ENDMDL
MODEL 9
REMARK VINA RESULT:      -8.0     22.438     24.514
REMARK  3 active torsions:
REMARK  status: ('A' for Active; 'I' for Inactive)
REMARK    1  A    between atoms: C15_19  and  O4_4 
REMARK    2  A    between atoms: C3_7  and  C8_12 
REMARK    3  A    between atoms: C10_14  and  C8_12 
ROOT
HETATM    1  O1  UNK     1      12.417   6.559   6.381  1.00  0.00    -0.321 OA
HETATM    2  O2  UNK     1      12.364   5.679  10.367  1.00  0.00    -0.286 OA
HETATM    3  C1  UNK     1      11.143   5.980   8.369  1.00  0.00     0.049 A 
HETATM    4  C2  UNK     1      11.227   6.287   7.009  1.00  0.00     0.089 A 
HETATM    5  C3  UNK     1      13.633   6.240   8.447  1.00  0.00     0.088 A 
HETATM    6  C4  UNK     1      12.378   5.943   9.173  1.00  0.00     0.201 A 
HETATM    7  C5  UNK     1       9.904   5.712   8.955  1.00  0.00     0.025 A 
HETATM    8  C6  UNK     1       8.749   5.753   8.172  1.00  0.00    -0.061 A 
HETATM    9  C7  UNK     1      10.071   6.329   6.230  1.00  0.00     0.039 A 
HETATM   10  C9  UNK     1       8.832   6.061   6.813  1.00  0.00     0.009 A 
HETATM   11  C11 UNK     1      13.562   6.519   7.141  1.00  0.00     0.162 A 
HETATM   12  C12 UNK     1       7.421   5.469   8.790  1.00  0.00     0.048 C 
ENDROOT
BRANCH   5  13
HETATM   13  C8  UNK     1      14.952   6.248   9.079  1.00  0.00     0.198 C 
HETATM   14  O3  UNK     1      15.586   5.202   9.225  1.00  0.00    -0.286 OA
BRANCH  13  15
HETATM   15  C10 UNK     1      15.536   7.540   9.527  1.00  0.00     0.015 A 
HETATM   16  C14 UNK     1      14.731   8.660   9.554  1.00  0.00     0.018 A 
HETATM   17  C17 UNK     1      15.279   9.871   9.974  1.00  0.00     0.037 A 
HETATM   18  C15 UNK     1      16.619   9.936  10.356  1.00  0.00     0.068 A 
HETATM   19  C16 UNK     1      17.411   8.789  10.319  1.00  0.00     0.037 A 
HETATM   20  C13 UNK     1      16.862   7.576   9.899  1.00  0.00     0.018 A 
BRANCH  18  21
HETATM   21  O4  UNK     1      17.154  11.119  10.763  1.00  0.00    -0.356 OA
HETATM   22  C18 UNK     1      18.315  11.579  10.074  1.00  0.00     0.210 C 
ENDBRANCH  18  21
ENDBRANCH  13  15
ENDBRANCH   5  13
TORSDOF 3
ENDMDL
MODEL 10
REMARK VINA RESULT:      -7.9     22.376     24.801
REMARK  3 active torsions:
REMARK  status: ('A' for Active; 'I' for Inactive)
REMARK    1  A    between atoms: C15_19  and  O4_4 
REMARK    2  A    between atoms: C3_7  and  C8_12 
REMARK    3  A    between atoms: C10_14  and  C8_12 
ROOT
HETATM    1  O1  UNK     1      14.914   5.465   8.722  1.00  0.00    -0.321 OA
HETATM    2  O2  UNK     1      12.561   8.739   8.078  1.00  0.00    -0.286 OA
HETATM    3  C1  UNK     1      14.508   7.837   9.065  1.00  0.00     0.049 A 
HETATM    4  C2  UNK     1      15.270   6.681   9.249  1.00  0.00     0.089 A 
HETATM    5  C3  UNK     1      12.931   6.426   7.725  1.00  0.00     0.088 A 
HETATM    6  C4  UNK     1      13.267   7.759   8.272  1.00  0.00     0.201 A 
HETATM    7  C5  UNK     1      14.920   9.049   9.624  1.00  0.00     0.025 A 
HETATM    8  C6  UNK     1      16.099   9.097  10.370  1.00  0.00    -0.061 A 
HETATM    9  C7  UNK     1      16.447   6.733   9.995  1.00  0.00     0.039 A 
HETATM   10  C9  UNK     1      16.861   7.942  10.555  1.00  0.00     0.009 A 
HETATM   11  C11 UNK     1      13.756   5.405   7.983  1.00  0.00     0.162 A 
HETATM   12  C12 UNK     1      16.547  10.386  10.971  1.00  0.00     0.048 C 
ENDROOT
BRANCH   5  13
HETATM   13  C8  UNK     1      11.742   6.159   6.916  1.00  0.00     0.198 C 
HETATM   14  O3  UNK     1      11.826   6.046   5.693  1.00  0.00    -0.286 OA
BRANCH  13  15
HETATM   15  C10 UNK     1      10.425   6.001   7.589  1.00  0.00     0.015 A 
HETATM   16  C14 UNK     1      10.390   5.498   8.872  1.00  0.00     0.018 A 
HETATM   17  C17 UNK     1       9.155   5.349   9.503  1.00  0.00     0.037 A 
HETATM   18  C15 UNK     1       7.984   5.707   8.835  1.00  0.00     0.068 A 
HETATM   19  C16 UNK     1       8.047   6.213   7.537  1.00  0.00     0.037 A 
HETATM   20  C13 UNK     1       9.284   6.362   6.907  1.00  0.00     0.018 A 
BRANCH  18  21
HETATM   21  O4  UNK     1       6.778   5.560   9.450  1.00  0.00    -0.356 OA
HETATM   22  C18 UNK     1       6.598   4.398  10.257  1.00  0.00     0.210 C 
ENDBRANCH  18  21
ENDBRANCH  13  15
ENDBRANCH   5  13
TORSDOF 3
ENDMDL
