MODEL 1
REMARK VINA RESULT:      -8.2      0.000      0.000
REMARK  4 active torsions:
REMARK  status: ('A' for Active; 'I' for Inactive)
REMARK    1  A    between atoms: C7_12  and  O2_2 
REMARK    2  A    between atoms: C11_16  and  O4_4 
REMARK    3  A    between atoms: C12_17  and  O5_5 
REMARK    4  A    between atoms: C1_6  and  C3_8 
ROOT
HETATM    1  O1  UNK     1      19.090   6.401  31.836  1.00  0.00    -0.340 OA
HETATM    2  O3  UNK     1      18.081   3.330  34.363  1.00  0.00    -0.292 OA
HETATM    3  C1  UNK     1      18.432   6.663  33.085  1.00  0.00     0.172 C 
HETATM    4  C2  UNK     1      18.794   5.608  34.128  1.00  0.00     0.121 C 
HETATM    5  C4  UNK     1      18.388   4.251  33.616  1.00  0.00     0.165 C 
HETATM    6  C5  UNK     1      18.451   4.067  32.151  1.00  0.00     0.046 A 
HETATM    7  C6  UNK     1      18.820   5.148  31.345  1.00  0.00     0.083 A 
HETATM    8  C9  UNK     1      18.186   2.821  31.581  1.00  0.00     0.054 A 
HETATM    9  C10 UNK     1      18.959   4.971  29.968  1.00  0.00     0.040 A 
HETATM   10  C12 UNK     1      18.306   2.654  30.200  1.00  0.00     0.069 A 
HETATM   11  C14 UNK     1      18.696   3.726  29.396  1.00  0.00     0.039 A 
ENDROOT
BRANCH   3  12
HETATM   12  C3  UNK     1      18.828   8.049  33.552  1.00  0.00     0.008 A 
HETATM   13  C7  UNK     1      17.947   9.125  33.424  1.00  0.00     0.110 A 
HETATM   14  C11 UNK     1      18.328  10.394  33.858  1.00  0.00     0.102 A 
HETATM   15  C15 UNK     1      19.589  10.589  34.420  1.00  0.00     0.039 A 
HETATM   16  C13 UNK     1      20.470   9.516  34.547  1.00  0.00     0.003 A 
HETATM   17  C8  UNK     1      20.089   8.246  34.113  1.00  0.00     0.013 A 
BRANCH  13  18
HETATM   18  O2  UNK     1      16.713   8.937  32.874  1.00  0.00    -0.352 OA
HETATM   19  C16 UNK     1      15.642   8.653  33.772  1.00  0.00     0.210 C 
ENDBRANCH  13  18
BRANCH  14  20
HETATM   20  O4  UNK     1      17.478  11.452  33.739  1.00  0.00    -0.353 OA
HETATM   21  C17 UNK     1      17.927  12.706  34.250  1.00  0.00     0.210 C 
ENDBRANCH  14  20
ENDBRANCH   3  12
BRANCH  10  22
HETATM   22  O5  UNK     1      18.052   1.441  29.637  1.00  0.00    -0.356 OA
HETATM   23  C18 UNK     1      19.127   0.812  28.941  1.00  0.00     0.210 C 
ENDBRANCH  10  22
TORSDOF 4
ENDMDL
MODEL 2
REMARK VINA RESULT:      -7.6      1.486      7.337
REMARK  4 active torsions:
REMARK  status: ('A' for Active; 'I' for Inactive)
REMARK    1  A    between atoms: C7_12  and  O2_2 
REMARK    2  A    between atoms: C11_16  and  O4_4 
REMARK    3  A    between atoms: C12_17  and  O5_5 
REMARK    4  A    between atoms: C1_6  and  C3_8 
ROOT
HETATM    1  O1  UNK     1      16.952   6.747  32.992  1.00  0.00    -0.340 OA
HETATM    2  O3  UNK     1      20.111   8.866  34.527  1.00  0.00    -0.292 OA
HETATM    3  C1  UNK     1      18.303   6.394  32.659  1.00  0.00     0.172 C 
HETATM    4  C2  UNK     1      19.258   6.747  33.798  1.00  0.00     0.121 C 
HETATM    5  C4  UNK     1      19.172   8.225  34.073  1.00  0.00     0.165 C 
HETATM    6  C5  UNK     1      17.856   8.852  33.831  1.00  0.00     0.046 A 
HETATM    7  C6  UNK     1      16.812   8.071  33.324  1.00  0.00     0.083 A 
HETATM    8  C9  UNK     1      17.642  10.196  34.143  1.00  0.00     0.054 A 
HETATM    9  C10 UNK     1      15.544   8.628  33.163  1.00  0.00     0.040 A 
HETATM   10  C12 UNK     1      16.376  10.754  33.960  1.00  0.00     0.069 A 
HETATM   11  C14 UNK     1      15.328   9.970  33.475  1.00  0.00     0.039 A 
ENDROOT
BRANCH   3  12
HETATM   12  C3  UNK     1      18.349   4.913  32.348  1.00  0.00     0.008 A 
HETATM   13  C7  UNK     1      18.614   4.462  31.054  1.00  0.00     0.110 A 
HETATM   14  C11 UNK     1      18.652   3.094  30.785  1.00  0.00     0.102 A 
HETATM   15  C15 UNK     1      18.423   2.176  31.810  1.00  0.00     0.039 A 
HETATM   16  C13 UNK     1      18.156   2.625  33.103  1.00  0.00     0.003 A 
HETATM   17  C8  UNK     1      18.119   3.993  33.372  1.00  0.00     0.013 A 
BRANCH  13  18
HETATM   18  O2  UNK     1      18.838   5.357  30.050  1.00  0.00    -0.352 OA
HETATM   19  C16 UNK     1      20.154   5.898  29.948  1.00  0.00     0.210 C 
ENDBRANCH  13  18
BRANCH  14  20
HETATM   20  O4  UNK     1      18.910   2.641  29.527  1.00  0.00    -0.353 OA
HETATM   21  C17 UNK     1      17.881   1.892  28.882  1.00  0.00     0.210 C 
ENDBRANCH  14  20
ENDBRANCH   3  12
BRANCH  10  22
HETATM   22  O5  UNK     1      16.160  12.063  34.265  1.00  0.00    -0.356 OA
HETATM   23  C18 UNK     1      17.237  12.774  34.871  1.00  0.00     0.210 C 
ENDBRANCH  10  22
TORSDOF 4
ENDMDL
MODEL 3
REMARK VINA RESULT:      -7.5     22.895     25.208
REMARK  4 active torsions:
REMARK  status: ('A' for Active; 'I' for Inactive)
REMARK    1  A    between atoms: C7_12  and  O2_2 
REMARK    2  A    between atoms: C11_16  and  O4_4 
REMARK    3  A    between atoms: C12_17  and  O5_5 
REMARK    4  A    between atoms: C1_6  and  C3_8 
ROOT
HETATM    1  O1  UNK     1      13.128   8.522   8.160  1.00  0.00    -0.340 OA
HETATM    2  O3  UNK     1      15.084   6.026  10.762  1.00  0.00    -0.292 OA
HETATM    3  C1  UNK     1      12.889   7.106   8.139  1.00  0.00     0.172 C 
HETATM    4  C2  UNK     1      13.084   6.497   9.526  1.00  0.00     0.121 C 
HETATM    5  C4  UNK     1      14.491   6.768   9.989  1.00  0.00     0.165 C 
HETATM    6  C5  UNK     1      15.097   8.028   9.513  1.00  0.00     0.046 A 
HETATM    7  C6  UNK     1      14.371   8.846   8.641  1.00  0.00     0.083 A 
HETATM    8  C9  UNK     1      16.361   8.421   9.958  1.00  0.00     0.054 A 
HETATM    9  C10 UNK     1      14.897  10.075   8.243  1.00  0.00     0.040 A 
HETATM   10  C12 UNK     1      16.891   9.642   9.540  1.00  0.00     0.069 A 
HETATM   11  C14 UNK     1      16.159  10.469   8.688  1.00  0.00     0.039 A 
ENDROOT
BRANCH   3  12
HETATM   12  C3  UNK     1      11.483   6.866   7.630  1.00  0.00     0.008 A 
HETATM   13  C7  UNK     1      10.373   7.216   8.402  1.00  0.00     0.110 A 
HETATM   14  C11 UNK     1       9.086   6.987   7.917  1.00  0.00     0.102 A 
HETATM   15  C15 UNK     1       8.907   6.407   6.661  1.00  0.00     0.039 A 
HETATM   16  C13 UNK     1      10.015   6.056   5.890  1.00  0.00     0.003 A 
HETATM   17  C8  UNK     1      11.302   6.285   6.374  1.00  0.00     0.013 A 
BRANCH  13  18
HETATM   18  O2  UNK     1      10.546   7.783   9.630  1.00  0.00    -0.352 OA
HETATM   19  C16 UNK     1      10.297   9.183   9.736  1.00  0.00     0.210 C 
ENDBRANCH  13  18
BRANCH  14  20
HETATM   20  O4  UNK     1       7.995   7.324   8.660  1.00  0.00    -0.353 OA
HETATM   21  C17 UNK     1       7.433   6.307   9.487  1.00  0.00     0.210 C 
ENDBRANCH  14  20
ENDBRANCH   3  12
BRANCH  10  22
HETATM   22  O5  UNK     1      18.122  10.032   9.973  1.00  0.00    -0.356 OA
HETATM   23  C18 UNK     1      18.472  11.401   9.782  1.00  0.00     0.210 C 
ENDBRANCH  10  22
TORSDOF 4
ENDMDL
MODEL 4
REMARK VINA RESULT:      -7.5     13.692     19.499
REMARK  4 active torsions:
REMARK  status: ('A' for Active; 'I' for Inactive)
REMARK    1  A    between atoms: C7_12  and  O2_2 
REMARK    2  A    between atoms: C11_16  and  O4_4 
REMARK    3  A    between atoms: C12_17  and  O5_5 
REMARK    4  A    between atoms: C1_6  and  C3_8 
ROOT
HETATM    1  O1  UNK     1      19.451  -1.090  16.546  1.00  0.00    -0.340 OA
HETATM    2  O3  UNK     1      19.205   2.933  15.784  1.00  0.00    -0.292 OA
HETATM    3  C1  UNK     1      18.987  -0.611  15.275  1.00  0.00     0.172 C 
HETATM    4  C2  UNK     1      19.626   0.732  14.929  1.00  0.00     0.121 C 
HETATM    5  C4  UNK     1      19.285   1.731  16.004  1.00  0.00     0.165 C 
HETATM    6  C5  UNK     1      19.122   1.184  17.366  1.00  0.00     0.046 A 
HETATM    7  C6  UNK     1      19.237  -0.196  17.564  1.00  0.00     0.083 A 
HETATM    8  C9  UNK     1      18.899   2.035  18.450  1.00  0.00     0.054 A 
HETATM    9  C10 UNK     1      19.161  -0.720  18.855  1.00  0.00     0.040 A 
HETATM   10  C12 UNK     1      18.804   1.503  19.737  1.00  0.00     0.069 A 
HETATM   11  C14 UNK     1      18.939   0.129  19.939  1.00  0.00     0.039 A 
ENDROOT
BRANCH   3  12
HETATM   12  C3  UNK     1      19.306  -1.654  14.225  1.00  0.00     0.008 A 
HETATM   13  C7  UNK     1      18.546  -2.821  14.121  1.00  0.00     0.110 A 
HETATM   14  C11 UNK     1      18.855  -3.770  13.148  1.00  0.00     0.102 A 
HETATM   15  C15 UNK     1      19.924  -3.556  12.278  1.00  0.00     0.039 A 
HETATM   16  C13 UNK     1      20.685  -2.392  12.382  1.00  0.00     0.003 A 
HETATM   17  C8  UNK     1      20.376  -1.441  13.355  1.00  0.00     0.013 A 
BRANCH  13  18
HETATM   18  O2  UNK     1      17.501  -3.033  14.970  1.00  0.00    -0.352 OA
HETATM   19  C16 UNK     1      17.683  -4.016  15.987  1.00  0.00     0.210 C 
ENDBRANCH  13  18
BRANCH  14  20
HETATM   20  O4  UNK     1      18.121  -4.913  13.036  1.00  0.00    -0.353 OA
HETATM   21  C17 UNK     1      18.828  -6.149  13.117  1.00  0.00     0.210 C 
ENDBRANCH  14  20
ENDBRANCH   3  12
BRANCH  10  22
HETATM   22  O5  UNK     1      18.589   2.327  20.799  1.00  0.00    -0.356 OA
HETATM   23  C18 UNK     1      19.542   2.282  21.859  1.00  0.00     0.210 C 
ENDBRANCH  10  22
TORSDOF 4
ENDMDL
MODEL 5
REMARK VINA RESULT:      -7.4      9.084     13.197
REMARK  4 active torsions:
REMARK  status: ('A' for Active; 'I' for Inactive)
REMARK    1  A    between atoms: C7_12  and  O2_2 
REMARK    2  A    between atoms: C11_16  and  O4_4 
REMARK    3  A    between atoms: C12_17  and  O5_5 
REMARK    4  A    between atoms: C1_6  and  C3_8 
ROOT
HETATM    1  O1  UNK     1      19.275  -3.163  37.691  1.00  0.00    -0.340 OA
HETATM    2  O3  UNK     1      20.371  -2.160  33.867  1.00  0.00    -0.292 OA
HETATM    3  C1  UNK     1      19.542  -4.180  36.713  1.00  0.00     0.172 C 
HETATM    4  C2  UNK     1      20.573  -3.702  35.693  1.00  0.00     0.121 C 
HETATM    5  C4  UNK     1      20.052  -2.464  35.010  1.00  0.00     0.165 C 
HETATM    6  C5  UNK     1      19.185  -1.591  35.828  1.00  0.00     0.046 A 
HETATM    7  C6  UNK     1      18.864  -1.980  37.132  1.00  0.00     0.083 A 
HETATM    8  C9  UNK     1      18.727  -0.373  35.322  1.00  0.00     0.054 A 
HETATM    9  C10 UNK     1      18.110  -1.131  37.943  1.00  0.00     0.040 A 
HETATM   10  C12 UNK     1      17.956   0.463  36.131  1.00  0.00     0.069 A 
HETATM   11  C14 UNK     1      17.652   0.087  37.440  1.00  0.00     0.039 A 
ENDROOT
BRANCH   3  12
HETATM   12  C3  UNK     1      20.023  -5.422  37.434  1.00  0.00     0.008 A 
HETATM   13  C7  UNK     1      19.201  -6.546  37.546  1.00  0.00     0.110 A 
HETATM   14  C11 UNK     1      19.661  -7.681  38.214  1.00  0.00     0.102 A 
HETATM   15  C15 UNK     1      20.940  -7.694  38.769  1.00  0.00     0.039 A 
HETATM   16  C13 UNK     1      21.761  -6.572  38.658  1.00  0.00     0.003 A 
HETATM   17  C8  UNK     1      21.302  -5.437  37.990  1.00  0.00     0.013 A 
BRANCH  13  18
HETATM   18  O2  UNK     1      17.950  -6.536  37.005  1.00  0.00    -0.352 OA
HETATM   19  C16 UNK     1      17.796  -7.139  35.722  1.00  0.00     0.210 C 
ENDBRANCH  13  18
BRANCH  14  20
HETATM   20  O4  UNK     1      18.870  -8.784  38.331  1.00  0.00    -0.353 OA
HETATM   21  C17 UNK     1      19.304  -9.968  37.664  1.00  0.00     0.210 C 
ENDBRANCH  14  20
ENDBRANCH   3  12
BRANCH  10  22
HETATM   22  O5  UNK     1      17.507   1.654  35.646  1.00  0.00    -0.356 OA
HETATM   23  C18 UNK     1      18.357   2.342  34.730  1.00  0.00     0.210 C 
ENDBRANCH  10  22
TORSDOF 4
ENDMDL
MODEL 6
REMARK VINA RESULT:      -7.4      2.231      3.958
REMARK  4 active torsions:
REMARK  status: ('A' for Active; 'I' for Inactive)
REMARK    1  A    between atoms: C7_12  and  O2_2 
REMARK    2  A    between atoms: C11_16  and  O4_4 
REMARK    3  A    between atoms: C12_17  and  O5_5 
REMARK    4  A    between atoms: C1_6  and  C3_8 
ROOT
HETATM    1  O1  UNK     1      17.894   3.452  33.146  1.00  0.00    -0.340 OA
HETATM    2  O3  UNK     1      19.091   2.286  29.400  1.00  0.00    -0.292 OA
HETATM    3  C1  UNK     1      18.509   4.388  32.247  1.00  0.00     0.172 C 
HETATM    4  C2  UNK     1      18.211   4.028  30.794  1.00  0.00     0.121 C 
HETATM    5  C4  UNK     1      18.727   2.641  30.514  1.00  0.00     0.165 C 
HETATM    6  C5  UNK     1      18.703   1.701  31.653  1.00  0.00     0.046 A 
HETATM    7  C6  UNK     1      18.266   2.155  32.902  1.00  0.00     0.083 A 
HETATM    8  C9  UNK     1      19.070   0.365  31.478  1.00  0.00     0.054 A 
HETATM    9  C10 UNK     1      18.164   1.261  33.968  1.00  0.00     0.040 A 
HETATM   10  C12 UNK     1      18.986  -0.520  32.554  1.00  0.00     0.069 A 
HETATM   11  C14 UNK     1      18.530  -0.074  33.795  1.00  0.00     0.039 A 
ENDROOT
BRANCH   3  12
HETATM   12  C3  UNK     1      18.002   5.776  32.581  1.00  0.00     0.008 A 
HETATM   13  C7  UNK     1      18.806   6.682  33.275  1.00  0.00     0.110 A 
HETATM   14  C11 UNK     1      18.322   7.956  33.574  1.00  0.00     0.102 A 
HETATM   15  C15 UNK     1      17.036   8.324  33.180  1.00  0.00     0.039 A 
HETATM   16  C13 UNK     1      16.232   7.418  32.488  1.00  0.00     0.003 A 
HETATM   17  C8  UNK     1      16.715   6.145  32.189  1.00  0.00     0.013 A 
BRANCH  13  18
HETATM   18  O2  UNK     1      20.063   6.325  33.661  1.00  0.00    -0.352 OA
HETATM   19  C16 UNK     1      21.111   6.524  32.714  1.00  0.00     0.210 C 
ENDBRANCH  13  18
BRANCH  14  20
HETATM   20  O4  UNK     1      19.096   8.850  34.250  1.00  0.00    -0.353 OA
HETATM   21  C17 UNK     1      18.827  10.235  34.034  1.00  0.00     0.210 C 
ENDBRANCH  14  20
ENDBRANCH   3  12
BRANCH  10  22
HETATM   22  O5  UNK     1      19.341  -1.825  32.390  1.00  0.00    -0.356 OA
HETATM   23  C18 UNK     1      20.203  -2.130  31.296  1.00  0.00     0.210 C 
ENDBRANCH  10  22
TORSDOF 4
ENDMDL
MODEL 7
REMARK VINA RESULT:      -7.3      1.692      7.532
REMARK  4 active torsions:
REMARK  status: ('A' for Active; 'I' for Inactive)
REMARK    1  A    between atoms: C7_12  and  O2_2 
REMARK    2  A    between atoms: C11_16  and  O4_4 
REMARK    3  A    between atoms: C12_17  and  O5_5 
REMARK    4  A    between atoms: C1_6  and  C3_8 
ROOT
HETATM    1  O1  UNK     1      19.133   5.688  32.628  1.00  0.00    -0.340 OA
HETATM    2  O3  UNK     1      15.780   7.705  31.398  1.00  0.00    -0.292 OA
HETATM    3  C1  UNK     1      17.934   4.977  32.281  1.00  0.00     0.172 C 
HETATM    4  C2  UNK     1      17.135   5.734  31.223  1.00  0.00     0.121 C 
HETATM    5  C4  UNK     1      16.781   7.097  31.756  1.00  0.00     0.165 C 
HETATM    6  C5  UNK     1      17.755   7.700  32.690  1.00  0.00     0.046 A 
HETATM    7  C6  UNK     1      18.889   6.968  33.056  1.00  0.00     0.083 A 
HETATM    8  C9  UNK     1      17.569   8.998  33.168  1.00  0.00     0.054 A 
HETATM    9  C10 UNK     1      19.855   7.551  33.876  1.00  0.00     0.040 A 
HETATM   10  C12 UNK     1      18.530   9.569  34.004  1.00  0.00     0.069 A 
HETATM   11  C14 UNK     1      19.673   8.848  34.353  1.00  0.00     0.039 A 
ENDROOT
BRANCH   3  12
HETATM   12  C3  UNK     1      18.321   3.598  31.790  1.00  0.00     0.008 A 
HETATM   13  C7  UNK     1      18.244   2.489  32.636  1.00  0.00     0.110 A 
HETATM   14  C11 UNK     1      18.604   1.227  32.166  1.00  0.00     0.102 A 
HETATM   15  C15 UNK     1      19.044   1.071  30.851  1.00  0.00     0.039 A 
HETATM   16  C13 UNK     1      19.123   2.177  30.006  1.00  0.00     0.003 A 
HETATM   17  C8  UNK     1      18.762   3.440  30.475  1.00  0.00     0.013 A 
BRANCH  13  18
HETATM   18  O2  UNK     1      17.815   2.639  33.921  1.00  0.00    -0.352 OA
HETATM   19  C16 UNK     1      18.819   2.745  34.929  1.00  0.00     0.210 C 
ENDBRANCH  13  18
BRANCH  14  20
HETATM   20  O4  UNK     1      18.533   0.137  32.981  1.00  0.00    -0.353 OA
HETATM   21  C17 UNK     1      18.925  -1.116  32.424  1.00  0.00     0.210 C 
ENDBRANCH  14  20
ENDBRANCH   3  12
BRANCH  10  22
HETATM   22  O5  UNK     1      18.357  10.836  34.472  1.00  0.00    -0.356 OA
HETATM   23  C18 UNK     1      17.106  11.464  34.198  1.00  0.00     0.210 C 
ENDBRANCH  10  22
TORSDOF 4
ENDMDL
MODEL 8
REMARK VINA RESULT:      -7.1      2.649      5.002
REMARK  4 active torsions:
REMARK  status: ('A' for Active; 'I' for Inactive)
REMARK    1  A    between atoms: C7_12  and  O2_2 
REMARK    2  A    between atoms: C11_16  and  O4_4 
REMARK    3  A    between atoms: C12_17  and  O5_5 
REMARK    4  A    between atoms: C1_6  and  C3_8 
ROOT
HETATM    1  O1  UNK     1      17.228   9.189  34.632  1.00  0.00    -0.340 OA
HETATM    2  O3  UNK     1      15.811   8.261  30.895  1.00  0.00    -0.292 OA
HETATM    3  C1  UNK     1      16.428  10.127  33.896  1.00  0.00     0.172 C 
HETATM    4  C2  UNK     1      15.450   9.406  32.971  1.00  0.00     0.121 C 
HETATM    5  C4  UNK     1      16.225   8.539  32.014  1.00  0.00     0.165 C 
HETATM    6  C5  UNK     1      17.490   7.977  32.530  1.00  0.00     0.046 A 
HETATM    7  C6  UNK     1      17.909   8.317  33.820  1.00  0.00     0.083 A 
HETATM    8  C9  UNK     1      18.237   7.086  31.758  1.00  0.00     0.054 A 
HETATM    9  C10 UNK     1      19.061   7.736  34.351  1.00  0.00     0.040 A 
HETATM   10  C12 UNK     1      19.400   6.523  32.287  1.00  0.00     0.069 A 
HETATM   11  C14 UNK     1      19.808   6.844  33.582  1.00  0.00     0.039 A 
ENDROOT
BRANCH   3  12
HETATM   12  C3  UNK     1      15.695  11.010  34.885  1.00  0.00     0.008 A 
HETATM   13  C7  UNK     1      16.246  12.222  35.305  1.00  0.00     0.110 A 
HETATM   14  C11 UNK     1      15.557  13.022  36.216  1.00  0.00     0.102 A 
HETATM   15  C15 UNK     1      14.318  12.611  36.709  1.00  0.00     0.039 A 
HETATM   16  C13 UNK     1      13.768  11.399  36.290  1.00  0.00     0.003 A 
HETATM   17  C8  UNK     1      14.457  10.599  35.378  1.00  0.00     0.013 A 
BRANCH  13  18
HETATM   18  O2  UNK     1      17.456  12.626  34.826  1.00  0.00    -0.352 OA
HETATM   19  C16 UNK     1      17.445  13.523  33.717  1.00  0.00     0.210 C 
ENDBRANCH  13  18
BRANCH  14  20
HETATM   20  O4  UNK     1      16.082  14.207  36.634  1.00  0.00    -0.353 OA
HETATM   21  C17 UNK     1      15.359  15.391  36.302  1.00  0.00     0.210 C 
ENDBRANCH  14  20
ENDBRANCH   3  12
BRANCH  10  22
HETATM   22  O5  UNK     1      20.132   5.650  31.540  1.00  0.00    -0.356 OA
HETATM   23  C18 UNK     1      20.124   5.840  30.127  1.00  0.00     0.210 C 
ENDBRANCH  10  22
TORSDOF 4
ENDMDL
MODEL 9
REMARK VINA RESULT:      -7.0      9.017     11.630
REMARK  4 active torsions:
REMARK  status: ('A' for Active; 'I' for Inactive)
REMARK    1  A    between atoms: C7_12  and  O2_2 
REMARK    2  A    between atoms: C11_16  and  O4_4 
REMARK    3  A    between atoms: C12_17  and  O5_5 
REMARK    4  A    between atoms: C1_6  and  C3_8 
ROOT
HETATM    1  O1  UNK     1      20.372  -3.851  37.643  1.00  0.00    -0.340 OA
HETATM    2  O3  UNK     1      18.382  -6.864  35.696  1.00  0.00    -0.292 OA
HETATM    3  C1  UNK     1      19.546  -3.569  36.504  1.00  0.00     0.172 C 
HETATM    4  C2  UNK     1      18.398  -4.571  36.397  1.00  0.00     0.121 C 
HETATM    5  C4  UNK     1      18.967  -5.960  36.280  1.00  0.00     0.165 C 
HETATM    6  C5  UNK     1      20.249  -6.194  36.976  1.00  0.00     0.046 A 
HETATM    7  C6  UNK     1      20.868  -5.130  37.638  1.00  0.00     0.083 A 
HETATM    8  C9  UNK     1      20.815  -7.470  37.010  1.00  0.00     0.054 A 
HETATM    9  C10 UNK     1      22.038  -5.351  38.364  1.00  0.00     0.040 A 
HETATM   10  C12 UNK     1      21.997  -7.682  37.721  1.00  0.00     0.069 A 
HETATM   11  C14 UNK     1      22.605  -6.626  38.400  1.00  0.00     0.039 A 
ENDROOT
BRANCH   3  12
HETATM   12  C3  UNK     1      19.024  -2.153  36.630  1.00  0.00     0.008 A 
HETATM   13  C7  UNK     1      19.303  -1.198  35.650  1.00  0.00     0.110 A 
HETATM   14  C11 UNK     1      18.815   0.102  35.784  1.00  0.00     0.102 A 
HETATM   15  C15 UNK     1      18.047   0.448  36.896  1.00  0.00     0.039 A 
HETATM   16  C13 UNK     1      17.769  -0.505  37.875  1.00  0.00     0.003 A 
HETATM   17  C8  UNK     1      18.257  -1.805  37.742  1.00  0.00     0.013 A 
BRANCH  13  18
HETATM   18  O2  UNK     1      20.053  -1.533  34.563  1.00  0.00    -0.352 OA
HETATM   19  C16 UNK     1      19.362  -1.692  33.325  1.00  0.00     0.210 C 
ENDBRANCH  13  18
BRANCH  14  20
HETATM   20  O4  UNK     1      19.080   1.043  34.835  1.00  0.00    -0.353 OA
HETATM   21  C17 UNK     1      17.960   1.668  34.211  1.00  0.00     0.210 C 
ENDBRANCH  14  20
ENDBRANCH   3  12
BRANCH  10  22
HETATM   22  O5  UNK     1      22.553  -8.924  37.760  1.00  0.00    -0.356 OA
HETATM   23  C18 UNK     1      22.673  -9.621  36.522  1.00  0.00     0.210 C 
ENDBRANCH  10  22
TORSDOF 4
ENDMDL
MODEL 10
REMARK VINA RESULT:      -7.0      1.311      7.296
REMARK  4 active torsions:
REMARK  status: ('A' for Active; 'I' for Inactive)
REMARK    1  A    between atoms: C7_12  and  O2_2 
REMARK    2  A    between atoms: C11_16  and  O4_4 
REMARK    3  A    between atoms: C12_17  and  O5_5 
REMARK    4  A    between atoms: C1_6  and  C3_8 
ROOT
HETATM    1  O1  UNK     1      19.133   6.557  33.160  1.00  0.00    -0.340 OA
HETATM    2  O3  UNK     1      15.614   8.567  32.522  1.00  0.00    -0.292 OA
HETATM    3  C1  UNK     1      17.879   5.857  33.147  1.00  0.00     0.172 C 
HETATM    4  C2  UNK     1      16.875   6.548  32.227  1.00  0.00     0.121 C 
HETATM    5  C4  UNK     1      16.663   7.961  32.704  1.00  0.00     0.165 C 
HETATM    6  C5  UNK     1      17.825   8.608  33.346  1.00  0.00     0.046 A 
HETATM    7  C6  UNK     1      19.004   7.875  33.518  1.00  0.00     0.083 A 
HETATM    8  C9  UNK     1      17.765   9.947  33.739  1.00  0.00     0.054 A 
HETATM    9  C10 UNK     1      20.134   8.493  34.052  1.00  0.00     0.040 A 
HETATM   10  C12 UNK     1      18.893  10.555  34.292  1.00  0.00     0.069 A 
HETATM   11  C14 UNK     1      20.076   9.831  34.444  1.00  0.00     0.039 A 
ENDROOT
BRANCH   3  12
HETATM   12  C3  UNK     1      18.132   4.430  32.705  1.00  0.00     0.008 A 
HETATM   13  C7  UNK     1      18.438   4.138  31.374  1.00  0.00     0.110 A 
HETATM   14  C11 UNK     1      18.668   2.819  30.985  1.00  0.00     0.102 A 
HETATM   15  C15 UNK     1      18.591   1.791  31.925  1.00  0.00     0.039 A 
HETATM   16  C13 UNK     1      18.283   2.082  33.254  1.00  0.00     0.003 A 
HETATM   17  C8  UNK     1      18.054   3.401  33.643  1.00  0.00     0.013 A 
BRANCH  13  18
HETATM   18  O2  UNK     1      18.514   5.141  30.454  1.00  0.00    -0.352 OA
HETATM   19  C16 UNK     1      19.817   5.612  30.117  1.00  0.00     0.210 C 
ENDBRANCH  13  18
BRANCH  14  20
HETATM   20  O4  UNK     1      18.968   2.520  29.690  1.00  0.00    -0.353 OA
HETATM   21  C17 UNK     1      17.927   1.951  28.897  1.00  0.00     0.210 C 
ENDBRANCH  14  20
ENDBRANCH   3  12
BRANCH  10  22
HETATM   22  O5  UNK     1      18.842  11.861  34.674  1.00  0.00    -0.356 OA
HETATM   23  C18 UNK     1      17.703  12.613  34.262  1.00  0.00     0.210 C 
ENDBRANCH  10  22
TORSDOF 4
ENDMDL
