MODEL 1
REMARK VINA RESULT:     -10.1      0.000      0.000
REMARK  6 active torsions:
REMARK  status: ('A' for Active; 'I' for Inactive)
REMARK    1  A    between atoms: C5_11  and  N1_4 
REMARK    2  A    between atoms: C6_12  and  N2_5 
REMARK    3  A    between atoms: C18_24  and  N3_6 
REMARK       I    between atoms: C9_15  and  N3_6 
REMARK    4  A    between atoms: C5_11  and  C7_13 
REMARK    5  A    between atoms: C6_12  and  C9_15 
REMARK    6  A    between atoms: C13_19  and  C17_23 
ROOT
HETATM    1  N1  UNK     1      19.266  -3.702  36.446  1.00  0.00     0.096 N 
HETATM    2  N2  UNK     1      19.001  -0.926  35.685  1.00  0.00     0.100 N 
HETATM    3  C1  UNK     1      20.373  -2.976  35.811  1.00  0.00     0.303 C 
HETATM    4  C2  UNK     1      18.422  -2.778  37.214  1.00  0.00     0.303 C 
HETATM    5  C3  UNK     1      19.844  -1.849  34.917  1.00  0.00     0.303 C 
HETATM    6  C4  UNK     1      17.894  -1.651  36.320  1.00  0.00     0.303 C 
ENDROOT
BRANCH   1   7
HETATM    7  C5  UNK     1      19.772  -4.775  37.301  1.00  0.00     0.312 C 
BRANCH   7   8
HETATM    8  C7  UNK     1      19.219  -6.104  36.921  1.00  0.00    -0.011 A 
HETATM    9  C10 UNK     1      18.225  -6.210  36.027  1.00  0.00     0.092 A 
HETATM   10  C14 UNK     1      17.647  -7.502  35.619  1.00  0.00     0.288 A 
HETATM   11  O1  UNK     1      18.180  -8.638  36.210  1.00  0.00    -0.275 OA
HETATM   12  O3  UNK     1      16.740  -7.560  34.797  1.00  0.00    -0.260 OA
HETATM   13  C11 UNK     1      19.224  -8.557  37.152  1.00  0.00     0.090 A 
HETATM   14  C8  UNK     1      19.763  -7.326  37.529  1.00  0.00     0.007 A 
HETATM   15  C15 UNK     1      19.682  -9.765  37.682  1.00  0.00     0.039 A 
HETATM   16  C12 UNK     1      20.799  -7.331  38.472  1.00  0.00     0.022 A 
HETATM   17  C13 UNK     1      21.269  -8.535  39.012  1.00  0.00    -0.058 A 
HETATM   18  C16 UNK     1      20.711  -9.749  38.617  1.00  0.00     0.010 A 
BRANCH  17  19
HETATM   19  C17 UNK     1      22.373  -8.516  40.016  1.00  0.00     0.034 C 
HETATM   20  C20 UNK     1      23.561  -7.675  39.556  1.00  0.00     0.010 C 
ENDBRANCH  17  19
ENDBRANCH   7   8
ENDBRANCH   1   7
BRANCH   2  21
HETATM   21  C6  UNK     1      18.497   0.148  34.833  1.00  0.00     0.375 C 
BRANCH  21  22
HETATM   22  C9  UNK     1      18.330  -0.368  33.413  1.00  0.00     0.250 C 
HETATM   23  O2  UNK     1      17.410  -1.111  33.084  1.00  0.00    -0.271 OA
HETATM   24  N3  UNK     1      19.345   0.128  32.597  1.00  0.00    -0.325 N 
HETATM   25  H15 UNK     1      20.025   0.743  33.033  1.00  0.00     0.169 HD
BRANCH  24  26
HETATM   26  C18 UNK     1      19.540  -0.119  31.217  1.00  0.00     0.040 A 
HETATM   27  C19 UNK     1      19.187   0.835  30.263  1.00  0.00    -0.035 A 
HETATM   28  C22 UNK     1      19.387   0.573  28.907  1.00  0.00     0.009 A 
HETATM   29  C23 UNK     1      18.593   2.147  30.663  1.00  0.00     0.050 C 
HETATM   30  C25 UNK     1      19.940  -0.644  28.507  1.00  0.00     0.001 A 
HETATM   31  C24 UNK     1      20.292  -1.598  29.462  1.00  0.00     0.002 A 
HETATM   32  C21 UNK     1      20.093  -1.336  30.817  1.00  0.00     0.030 A 
ENDBRANCH  24  26
ENDBRANCH  21  22
ENDBRANCH   2  21
TORSDOF 6
ENDMDL
MODEL 2
REMARK VINA RESULT:      -9.9      1.835      2.914
REMARK  6 active torsions:
REMARK  status: ('A' for Active; 'I' for Inactive)
REMARK    1  A    between atoms: C5_11  and  N1_4 
REMARK    2  A    between atoms: C6_12  and  N2_5 
REMARK    3  A    between atoms: C18_24  and  N3_6 
REMARK       I    between atoms: C9_15  and  N3_6 
REMARK    4  A    between atoms: C5_11  and  C7_13 
REMARK    5  A    between atoms: C6_12  and  C9_15 
REMARK    6  A    between atoms: C13_19  and  C17_23 
ROOT
HETATM    1  N1  UNK     1      19.232  -3.044  36.149  1.00  0.00     0.096 N 
HETATM    2  N2  UNK     1      18.358  -0.417  35.315  1.00  0.00     0.100 N 
HETATM    3  C1  UNK     1      19.953  -2.292  35.114  1.00  0.00     0.303 C 
HETATM    4  C2  UNK     1      18.579  -2.124  37.088  1.00  0.00     0.303 C 
HETATM    5  C3  UNK     1      19.009  -1.337  34.376  1.00  0.00     0.303 C 
HETATM    6  C4  UNK     1      17.635  -1.168  36.350  1.00  0.00     0.303 C 
ENDROOT
BRANCH   1   7
HETATM    7  C5  UNK     1      20.135  -3.952  36.854  1.00  0.00     0.312 C 
BRANCH   7   8
HETATM    8  C7  UNK     1      19.694  -5.371  36.754  1.00  0.00    -0.011 A 
HETATM    9  C10 UNK     1      18.554  -5.700  36.130  1.00  0.00     0.092 A 
HETATM   10  C14 UNK     1      18.079  -7.089  36.005  1.00  0.00     0.288 A 
HETATM   11  O1  UNK     1      18.874  -8.073  36.572  1.00  0.00    -0.275 OA
HETATM   12  O3  UNK     1      17.031  -7.351  35.425  1.00  0.00    -0.260 OA
HETATM   13  C11 UNK     1      20.077  -7.758  37.235  1.00  0.00     0.090 A 
HETATM   14  C8  UNK     1      20.515  -6.438  37.345  1.00  0.00     0.007 A 
HETATM   15  C15 UNK     1      20.795  -8.829  37.768  1.00  0.00     0.039 A 
HETATM   16  C12 UNK     1      21.722  -6.207  38.019  1.00  0.00     0.022 A 
HETATM   17  C13 UNK     1      22.454  -7.272  38.559  1.00  0.00    -0.058 A 
HETATM   18  C16 UNK     1      21.990  -8.580  38.433  1.00  0.00     0.010 A 
BRANCH  17  19
HETATM   19  C17 UNK     1      23.736  -7.003  39.273  1.00  0.00     0.034 C 
HETATM   20  C20 UNK     1      24.861  -7.927  38.812  1.00  0.00     0.010 C 
ENDBRANCH  17  19
ENDBRANCH   7   8
ENDBRANCH   1   7
BRANCH   2  21
HETATM   21  C6  UNK     1      17.457   0.493  34.611  1.00  0.00     0.375 C 
BRANCH  21  22
HETATM   22  C9  UNK     1      18.198   1.774  34.269  1.00  0.00     0.250 C 
HETATM   23  O2  UNK     1      19.062   2.253  34.997  1.00  0.00    -0.271 OA
HETATM   24  N3  UNK     1      17.752   2.279  33.049  1.00  0.00    -0.325 N 
HETATM   25  H15 UNK     1      17.031   1.748  32.569  1.00  0.00     0.169 HD
BRANCH  24  26
HETATM   26  C18 UNK     1      18.191   3.450  32.387  1.00  0.00     0.040 A 
HETATM   27  C19 UNK     1      18.639   3.400  31.067  1.00  0.00    -0.035 A 
HETATM   28  C22 UNK     1      19.069   4.565  30.432  1.00  0.00     0.009 A 
HETATM   29  C23 UNK     1      18.670   2.112  30.308  1.00  0.00     0.050 C 
HETATM   30  C25 UNK     1      19.049   5.780  31.117  1.00  0.00     0.001 A 
HETATM   31  C24 UNK     1      18.602   5.830  32.437  1.00  0.00     0.002 A 
HETATM   32  C21 UNK     1      18.173   4.665  33.072  1.00  0.00     0.030 A 
ENDBRANCH  24  26
ENDBRANCH  21  22
ENDBRANCH   2  21
TORSDOF 6
ENDMDL
MODEL 3
REMARK VINA RESULT:      -9.9      6.832     12.762
REMARK  6 active torsions:
REMARK  status: ('A' for Active; 'I' for Inactive)
REMARK    1  A    between atoms: C5_11  and  N1_4 
REMARK    2  A    between atoms: C6_12  and  N2_5 
REMARK    3  A    between atoms: C18_24  and  N3_6 
REMARK       I    between atoms: C9_15  and  N3_6 
REMARK    4  A    between atoms: C5_11  and  C7_13 
REMARK    5  A    between atoms: C6_12  and  C9_15 
REMARK    6  A    between atoms: C13_19  and  C17_23 
ROOT
HETATM    1  N1  UNK     1      18.528   5.716  32.851  1.00  0.00     0.096 N 
HETATM    2  N2  UNK     1      18.941   3.999  30.562  1.00  0.00     0.100 N 
HETATM    3  C1  UNK     1      18.251   4.276  32.918  1.00  0.00     0.303 C 
HETATM    4  C2  UNK     1      19.591   5.988  31.876  1.00  0.00     0.303 C 
HETATM    5  C3  UNK     1      17.877   3.728  31.536  1.00  0.00     0.303 C 
HETATM    6  C4  UNK     1      19.218   5.439  30.494  1.00  0.00     0.303 C 
ENDROOT
BRANCH   1   7
HETATM    7  C5  UNK     1      18.888   6.237  34.169  1.00  0.00     0.312 C 
BRANCH   7   8
HETATM    8  C7  UNK     1      18.869   7.726  34.209  1.00  0.00    -0.011 A 
HETATM    9  C10 UNK     1      19.994   8.427  34.408  1.00  0.00     0.092 A 
HETATM   10  C14 UNK     1      20.025   9.899  34.454  1.00  0.00     0.288 A 
HETATM   11  O1  UNK     1      18.815  10.553  34.280  1.00  0.00    -0.275 OA
HETATM   12  O3  UNK     1      21.073  10.507  34.637  1.00  0.00    -0.260 OA
HETATM   13  C11 UNK     1      17.616   9.843  34.069  1.00  0.00     0.090 A 
HETATM   14  C8  UNK     1      17.602   8.448  34.028  1.00  0.00     0.007 A 
HETATM   15  C15 UNK     1      16.458  10.605  33.908  1.00  0.00     0.039 A 
HETATM   16  C12 UNK     1      16.370   7.816  33.814  1.00  0.00     0.022 A 
HETATM   17  C13 UNK     1      15.200   8.568  33.649  1.00  0.00    -0.058 A 
HETATM   18  C16 UNK     1      15.245   9.960  33.696  1.00  0.00     0.010 A 
BRANCH  17  19
HETATM   19  C17 UNK     1      13.899   7.874  33.423  1.00  0.00     0.034 C 
HETATM   20  C20 UNK     1      13.872   7.108  32.103  1.00  0.00     0.010 C 
ENDBRANCH  17  19
ENDBRANCH   7   8
ENDBRANCH   1   7
BRANCH   2  21
HETATM   21  C6  UNK     1      18.584   3.477  29.245  1.00  0.00     0.375 C 
BRANCH  21  22
HETATM   22  C9  UNK     1      18.487   1.962  29.310  1.00  0.00     0.250 C 
HETATM   23  O2  UNK     1      17.529   1.341  28.861  1.00  0.00    -0.271 OA
HETATM   24  N3  UNK     1      19.618   1.433  29.930  1.00  0.00    -0.325 N 
HETATM   25  H15 UNK     1      20.325   2.094  30.237  1.00  0.00     0.169 HD
BRANCH  24  26
HETATM   26  C18 UNK     1      19.905   0.070  30.182  1.00  0.00     0.040 A 
HETATM   27  C19 UNK     1      19.575  -0.516  31.405  1.00  0.00    -0.035 A 
HETATM   28  C22 UNK     1      19.868  -1.860  31.635  1.00  0.00     0.009 A 
HETATM   29  C23 UNK     1      18.909   0.273  32.486  1.00  0.00     0.050 C 
HETATM   30  C25 UNK     1      20.489  -2.618  30.643  1.00  0.00     0.001 A 
HETATM   31  C24 UNK     1      20.820  -2.032  29.421  1.00  0.00     0.002 A 
HETATM   32  C21 UNK     1      20.527  -0.688  29.190  1.00  0.00     0.030 A 
ENDBRANCH  24  26
ENDBRANCH  21  22
ENDBRANCH   2  21
TORSDOF 6
ENDMDL
MODEL 4
REMARK VINA RESULT:      -9.7      6.018     10.092
REMARK  6 active torsions:
REMARK  status: ('A' for Active; 'I' for Inactive)
REMARK    1  A    between atoms: C5_11  and  N1_4 
REMARK    2  A    between atoms: C6_12  and  N2_5 
REMARK    3  A    between atoms: C18_24  and  N3_6 
REMARK       I    between atoms: C9_15  and  N3_6 
REMARK    4  A    between atoms: C5_11  and  C7_13 
REMARK    5  A    between atoms: C6_12  and  C9_15 
REMARK    6  A    between atoms: C13_19  and  C17_23 
ROOT
HETATM    1  N1  UNK     1      18.899   3.663  31.306  1.00  0.00     0.096 N 
HETATM    2  N2  UNK     1      19.199   6.325  32.394  1.00  0.00     0.100 N 
HETATM    3  C1  UNK     1      18.066   4.130  32.422  1.00  0.00     0.303 C 
HETATM    4  C2  UNK     1      19.299   4.793  30.458  1.00  0.00     0.303 C 
HETATM    5  C3  UNK     1      18.801   5.195  33.242  1.00  0.00     0.303 C 
HETATM    6  C4  UNK     1      20.033   5.859  31.279  1.00  0.00     0.303 C 
ENDROOT
BRANCH   1   7
HETATM    7  C5  UNK     1      18.196   2.649  30.522  1.00  0.00     0.312 C 
BRANCH   7   8
HETATM    8  C7  UNK     1      18.922   1.349  30.505  1.00  0.00    -0.011 A 
HETATM    9  C10 UNK     1      19.596   0.946  29.418  1.00  0.00     0.092 A 
HETATM   10  C14 UNK     1      20.328  -0.330  29.355  1.00  0.00     0.288 A 
HETATM   11  O1  UNK     1      20.297  -1.123  30.491  1.00  0.00    -0.275 OA
HETATM   12  O3  UNK     1      20.934  -0.664  28.343  1.00  0.00    -0.260 OA
HETATM   13  C11 UNK     1      19.598  -0.726  31.648  1.00  0.00     0.090 A 
HETATM   14  C8  UNK     1      18.908   0.486  31.694  1.00  0.00     0.007 A 
HETATM   15  C15 UNK     1      19.635  -1.605  32.732  1.00  0.00     0.039 A 
HETATM   16  C12 UNK     1      18.237   0.808  32.881  1.00  0.00     0.022 A 
HETATM   17  C13 UNK     1      18.265  -0.063  33.977  1.00  0.00    -0.058 A 
HETATM   18  C16 UNK     1      18.963  -1.267  33.902  1.00  0.00     0.010 A 
BRANCH  17  19
HETATM   19  C17 UNK     1      17.544   0.300  35.232  1.00  0.00     0.034 C 
HETATM   20  C20 UNK     1      16.034   0.111  35.108  1.00  0.00     0.010 C 
ENDBRANCH  17  19
ENDBRANCH   7   8
ENDBRANCH   1   7
BRANCH   2  21
HETATM   21  C6  UNK     1      19.900   7.340  33.177  1.00  0.00     0.375 C 
BRANCH  21  22
HETATM   22  C9  UNK     1      18.919   8.021  34.117  1.00  0.00     0.250 C 
HETATM   23  O2  UNK     1      19.040   7.988  35.337  1.00  0.00    -0.271 OA
HETATM   24  N3  UNK     1      17.917   8.659  33.388  1.00  0.00    -0.325 N 
HETATM   25  H15 UNK     1      17.973   8.594  32.376  1.00  0.00     0.169 HD
BRANCH  24  26
HETATM   26  C18 UNK     1      16.821   9.400  33.892  1.00  0.00     0.040 A 
HETATM   27  C19 UNK     1      15.567   8.808  34.043  1.00  0.00    -0.035 A 
HETATM   28  C22 UNK     1      14.499   9.554  34.541  1.00  0.00     0.009 A 
HETATM   29  C23 UNK     1      15.338   7.376  33.680  1.00  0.00     0.050 C 
HETATM   30  C25 UNK     1      14.686  10.892  34.888  1.00  0.00     0.001 A 
HETATM   31  C24 UNK     1      15.940  11.484  34.736  1.00  0.00     0.002 A 
HETATM   32  C21 UNK     1      17.008  10.738  34.239  1.00  0.00     0.030 A 
ENDBRANCH  24  26
ENDBRANCH  21  22
ENDBRANCH   2  21
TORSDOF 6
ENDMDL
MODEL 5
REMARK VINA RESULT:      -9.4      2.801      9.390
REMARK  6 active torsions:
REMARK  status: ('A' for Active; 'I' for Inactive)
REMARK    1  A    between atoms: C5_11  and  N1_4 
REMARK    2  A    between atoms: C6_12  and  N2_5 
REMARK    3  A    between atoms: C18_24  and  N3_6 
REMARK       I    between atoms: C9_15  and  N3_6 
REMARK    4  A    between atoms: C5_11  and  C7_13 
REMARK    5  A    between atoms: C6_12  and  C9_15 
REMARK    6  A    between atoms: C13_19  and  C17_23 
ROOT
HETATM    1  N1  UNK     1      19.919  -4.745  36.771  1.00  0.00     0.096 N 
HETATM    2  N2  UNK     1      19.988  -7.636  36.761  1.00  0.00     0.100 N 
HETATM    3  C1  UNK     1      20.553  -5.498  37.862  1.00  0.00     0.303 C 
HETATM    4  C2  UNK     1      19.997  -5.502  35.516  1.00  0.00     0.303 C 
HETATM    5  C3  UNK     1      19.909  -6.880  38.017  1.00  0.00     0.303 C 
HETATM    6  C4  UNK     1      19.354  -6.885  35.671  1.00  0.00     0.303 C 
ENDROOT
BRANCH   1   7
HETATM    7  C5  UNK     1      20.536  -3.428  36.622  1.00  0.00     0.312 C 
BRANCH   7   8
HETATM    8  C7  UNK     1      19.539  -2.376  36.281  1.00  0.00    -0.011 A 
HETATM    9  C10 UNK     1      18.749  -1.839  37.222  1.00  0.00     0.092 A 
HETATM   10  C14 UNK     1      17.750  -0.797  36.932  1.00  0.00     0.288 A 
HETATM   11  O1  UNK     1      17.650  -0.379  35.614  1.00  0.00    -0.275 OA
HETATM   12  O3  UNK     1      17.046  -0.328  37.819  1.00  0.00    -0.260 OA
HETATM   13  C11 UNK     1      18.466  -0.925  34.603  1.00  0.00     0.090 A 
HETATM   14  C8  UNK     1      19.409  -1.912  34.893  1.00  0.00     0.007 A 
HETATM   15  C15 UNK     1      18.278  -0.429  33.312  1.00  0.00     0.039 A 
HETATM   16  C12 UNK     1      20.181  -2.404  33.832  1.00  0.00     0.022 A 
HETATM   17  C13 UNK     1      20.004  -1.916  32.532  1.00  0.00    -0.058 A 
HETATM   18  C16 UNK     1      19.054  -0.930  32.274  1.00  0.00     0.010 A 
BRANCH  17  19
HETATM   19  C17 UNK     1      20.838  -2.455  31.417  1.00  0.00     0.034 C 
HETATM   20  C20 UNK     1      20.334  -2.006  30.048  1.00  0.00     0.010 C 
ENDBRANCH  17  19
ENDBRANCH   7   8
ENDBRANCH   1   7
BRANCH   2  21
HETATM   21  C6  UNK     1      19.374  -8.953  36.909  1.00  0.00     0.375 C 
BRANCH  21  22
HETATM   22  C9  UNK     1      20.461 -10.005  37.050  1.00  0.00     0.250 C 
HETATM   23  O2  UNK     1      20.287 -11.059  37.653  1.00  0.00    -0.271 OA
HETATM   24  N3  UNK     1      21.623  -9.588  36.402  1.00  0.00    -0.325 N 
HETATM   25  H15 UNK     1      21.591  -8.684  35.940  1.00  0.00     0.169 HD
BRANCH  24  26
HETATM   26  C18 UNK     1      22.853 -10.281  36.305  1.00  0.00     0.040 A 
HETATM   27  C19 UNK     1      24.021  -9.742  36.845  1.00  0.00    -0.035 A 
HETATM   28  C22 UNK     1      25.225 -10.440  36.738  1.00  0.00     0.009 A 
HETATM   29  C23 UNK     1      24.014  -8.420  37.542  1.00  0.00     0.050 C 
HETATM   30  C25 UNK     1      25.259 -11.675  36.092  1.00  0.00     0.001 A 
HETATM   31  C24 UNK     1      24.091 -12.213  35.551  1.00  0.00     0.002 A 
HETATM   32  C21 UNK     1      22.888 -11.516  35.658  1.00  0.00     0.030 A 
ENDBRANCH  24  26
ENDBRANCH  21  22
ENDBRANCH   2  21
TORSDOF 6
ENDMDL
MODEL 6
REMARK VINA RESULT:      -9.2      2.130     10.153
REMARK  6 active torsions:
REMARK  status: ('A' for Active; 'I' for Inactive)
REMARK    1  A    between atoms: C5_11  and  N1_4 
REMARK    2  A    between atoms: C6_12  and  N2_5 
REMARK    3  A    between atoms: C18_24  and  N3_6 
REMARK       I    between atoms: C9_15  and  N3_6 
REMARK    4  A    between atoms: C5_11  and  C7_13 
REMARK    5  A    between atoms: C6_12  and  C9_15 
REMARK    6  A    between atoms: C13_19  and  C17_23 
ROOT
HETATM    1  N1  UNK     1      19.090  -1.227  34.712  1.00  0.00     0.096 N 
HETATM    2  N2  UNK     1      19.824  -3.208  36.686  1.00  0.00     0.100 N 
HETATM    3  C1  UNK     1      20.128  -2.230  34.438  1.00  0.00     0.303 C 
HETATM    4  C2  UNK     1      18.105  -1.757  35.663  1.00  0.00     0.303 C 
HETATM    5  C3  UNK     1      20.808  -2.678  35.736  1.00  0.00     0.303 C 
HETATM    6  C4  UNK     1      18.787  -2.206  36.961  1.00  0.00     0.303 C 
ENDROOT
BRANCH   1   7
HETATM    7  C5  UNK     1      18.439  -0.803  33.474  1.00  0.00     0.312 C 
BRANCH   7   8
HETATM    8  C7  UNK     1      18.397   0.680  33.341  1.00  0.00    -0.011 A 
HETATM    9  C10 UNK     1      18.253   1.468  34.417  1.00  0.00     0.092 A 
HETATM   10  C14 UNK     1      18.207   2.937  34.335  1.00  0.00     0.288 A 
HETATM   11  O1  UNK     1      18.322   3.495  33.070  1.00  0.00    -0.275 OA
HETATM   12  O3  UNK     1      18.076   3.625  35.341  1.00  0.00    -0.260 OA
HETATM   13  C11 UNK     1      18.474   2.693  31.922  1.00  0.00     0.090 A 
HETATM   14  C8  UNK     1      18.515   1.301  32.015  1.00  0.00     0.007 A 
HETATM   15  C15 UNK     1      18.578   3.363  30.702  1.00  0.00     0.039 A 
HETATM   16  C12 UNK     1      18.669   0.575  30.826  1.00  0.00     0.022 A 
HETATM   17  C13 UNK     1      18.775   1.233  29.595  1.00  0.00    -0.058 A 
HETATM   18  C16 UNK     1      18.730   2.624  29.534  1.00  0.00     0.010 A 
BRANCH  17  19
HETATM   19  C17 UNK     1      18.938   0.439  28.341  1.00  0.00     0.034 C 
HETATM   20  C20 UNK     1      19.875  -0.752  28.527  1.00  0.00     0.010 C 
ENDBRANCH  17  19
ENDBRANCH   7   8
ENDBRANCH   1   7
BRANCH   2  21
HETATM   21  C6  UNK     1      20.474  -3.635  37.923  1.00  0.00     0.375 C 
BRANCH  21  22
HETATM   22  C9  UNK     1      20.791  -5.119  37.842  1.00  0.00     0.250 C 
HETATM   23  O2  UNK     1      21.903  -5.541  37.542  1.00  0.00    -0.271 OA
HETATM   24  N3  UNK     1      19.661  -5.872  38.157  1.00  0.00    -0.325 N 
HETATM   25  H15 UNK     1      18.818  -5.357  38.393  1.00  0.00     0.169 HD
BRANCH  24  26
HETATM   26  C18 UNK     1      19.547  -7.282  38.194  1.00  0.00     0.040 A 
HETATM   27  C19 UNK     1      18.960  -7.979  37.137  1.00  0.00    -0.035 A 
HETATM   28  C22 UNK     1      18.854  -9.369  37.192  1.00  0.00     0.009 A 
HETATM   29  C23 UNK     1      18.433  -7.263  35.935  1.00  0.00     0.050 C 
HETATM   30  C25 UNK     1      19.338 -10.061  38.303  1.00  0.00     0.001 A 
HETATM   31  C24 UNK     1      19.924  -9.364  39.359  1.00  0.00     0.002 A 
HETATM   32  C21 UNK     1      20.030  -7.974  39.304  1.00  0.00     0.030 A 
ENDBRANCH  24  26
ENDBRANCH  21  22
ENDBRANCH   2  21
TORSDOF 6
ENDMDL
MODEL 7
REMARK VINA RESULT:      -9.2      3.115     10.914
REMARK  6 active torsions:
REMARK  status: ('A' for Active; 'I' for Inactive)
REMARK    1  A    between atoms: C5_11  and  N1_4 
REMARK    2  A    between atoms: C6_12  and  N2_5 
REMARK    3  A    between atoms: C18_24  and  N3_6 
REMARK       I    between atoms: C9_15  and  N3_6 
REMARK    4  A    between atoms: C5_11  and  C7_13 
REMARK    5  A    between atoms: C6_12  and  C9_15 
REMARK    6  A    between atoms: C13_19  and  C17_23 
ROOT
HETATM    1  N1  UNK     1      18.713   0.899  34.149  1.00  0.00     0.096 N 
HETATM    2  N2  UNK     1      19.335  -1.673  35.313  1.00  0.00     0.100 N 
HETATM    3  C1  UNK     1      18.412  -0.351  33.440  1.00  0.00     0.303 C 
HETATM    4  C2  UNK     1      18.668   0.689  35.601  1.00  0.00     0.303 C 
HETATM    5  C3  UNK     1      19.381  -1.462  33.861  1.00  0.00     0.303 C 
HETATM    6  C4  UNK     1      19.636  -0.423  36.021  1.00  0.00     0.303 C 
ENDROOT
BRANCH   1   7
HETATM    7  C5  UNK     1      17.786   1.958  33.749  1.00  0.00     0.312 C 
BRANCH   7   8
HETATM    8  C7  UNK     1      18.176   2.587  32.457  1.00  0.00    -0.011 A 
HETATM    9  C10 UNK     1      18.387   1.844  31.361  1.00  0.00     0.092 A 
HETATM   10  C14 UNK     1      18.773   2.422  30.062  1.00  0.00     0.288 A 
HETATM   11  O1  UNK     1      18.916   3.800  30.011  1.00  0.00    -0.275 OA
HETATM   12  O3  UNK     1      18.956   1.711  29.081  1.00  0.00    -0.260 OA
HETATM   13  C11 UNK     1      18.702   4.606  31.146  1.00  0.00     0.090 A 
HETATM   14  C8  UNK     1      18.336   4.045  32.371  1.00  0.00     0.007 A 
HETATM   15  C15 UNK     1      18.875   5.981  30.978  1.00  0.00     0.039 A 
HETATM   16  C12 UNK     1      18.142   4.915  33.452  1.00  0.00     0.022 A 
HETATM   17  C13 UNK     1      18.312   6.296  33.298  1.00  0.00    -0.058 A 
HETATM   18  C16 UNK     1      18.677   6.827  32.063  1.00  0.00     0.010 A 
BRANCH  17  19
HETATM   19  C17 UNK     1      18.100   7.204  34.464  1.00  0.00     0.034 C 
HETATM   20  C20 UNK     1      19.311   8.093  34.734  1.00  0.00     0.010 C 
ENDBRANCH  17  19
ENDBRANCH   7   8
ENDBRANCH   1   7
BRANCH   2  21
HETATM   21  C6  UNK     1      20.259  -2.732  35.713  1.00  0.00     0.375 C 
BRANCH  21  22
HETATM   22  C9  UNK     1      19.503  -3.795  36.492  1.00  0.00     0.250 C 
HETATM   23  O2  UNK     1      18.339  -3.649  36.851  1.00  0.00    -0.271 OA
HETATM   24  N3  UNK     1      20.317  -4.905  36.707  1.00  0.00    -0.325 N 
HETATM   25  H15 UNK     1      21.260  -4.863  36.330  1.00  0.00     0.169 HD
BRANCH  24  26
HETATM   26  C18 UNK     1      19.985  -6.100  37.390  1.00  0.00     0.040 A 
HETATM   27  C19 UNK     1      19.325  -7.139  36.734  1.00  0.00    -0.035 A 
HETATM   28  C22 UNK     1      19.005  -8.308  37.424  1.00  0.00     0.009 A 
HETATM   29  C23 UNK     1      18.947  -7.027  35.292  1.00  0.00     0.050 C 
HETATM   30  C25 UNK     1      19.346  -8.438  38.770  1.00  0.00     0.001 A 
HETATM   31  C24 UNK     1      20.006  -7.398  39.427  1.00  0.00     0.002 A 
HETATM   32  C21 UNK     1      20.326  -6.230  38.736  1.00  0.00     0.030 A 
ENDBRANCH  24  26
ENDBRANCH  21  22
ENDBRANCH   2  21
TORSDOF 6
ENDMDL
MODEL 8
REMARK VINA RESULT:      -9.0      5.741     12.616
REMARK  6 active torsions:
REMARK  status: ('A' for Active; 'I' for Inactive)
REMARK    1  A    between atoms: C5_11  and  N1_4 
REMARK    2  A    between atoms: C6_12  and  N2_5 
REMARK    3  A    between atoms: C18_24  and  N3_6 
REMARK       I    between atoms: C9_15  and  N3_6 
REMARK    4  A    between atoms: C5_11  and  C7_13 
REMARK    5  A    between atoms: C6_12  and  C9_15 
REMARK    6  A    between atoms: C13_19  and  C17_23 
ROOT
HETATM    1  N1  UNK     1      18.043   5.186  31.409  1.00  0.00     0.096 N 
HETATM    2  N2  UNK     1      18.899   2.752  30.104  1.00  0.00     0.100 N 
HETATM    3  C1  UNK     1      18.123   3.915  32.141  1.00  0.00     0.303 C 
HETATM    4  C2  UNK     1      19.024   5.211  30.317  1.00  0.00     0.303 C 
HETATM    5  C3  UNK     1      17.917   2.728  31.195  1.00  0.00     0.303 C 
HETATM    6  C4  UNK     1      18.819   4.022  29.372  1.00  0.00     0.303 C 
ENDROOT
BRANCH   1   7
HETATM    7  C5  UNK     1      18.244   6.318  32.313  1.00  0.00     0.312 C 
BRANCH   7   8
HETATM    8  C7  UNK     1      17.004   7.125  32.486  1.00  0.00    -0.011 A 
HETATM    9  C10 UNK     1      15.808   6.645  32.113  1.00  0.00     0.092 A 
HETATM   10  C14 UNK     1      14.556   7.405  32.265  1.00  0.00     0.288 A 
HETATM   11  O1  UNK     1      14.658   8.670  32.823  1.00  0.00    -0.275 OA
HETATM   12  O3  UNK     1      13.481   6.933  31.913  1.00  0.00    -0.260 OA
HETATM   13  C11 UNK     1      15.900   9.201  33.224  1.00  0.00     0.090 A 
HETATM   14  C8  UNK     1      17.079   8.469  33.074  1.00  0.00     0.007 A 
HETATM   15  C15 UNK     1      15.883  10.484  33.772  1.00  0.00     0.039 A 
HETATM   16  C12 UNK     1      18.273   9.067  33.497  1.00  0.00     0.022 A 
HETATM   17  C13 UNK     1      18.272  10.354  34.049  1.00  0.00    -0.058 A 
HETATM   18  C16 UNK     1      17.079  11.060  34.187  1.00  0.00     0.010 A 
BRANCH  17  19
HETATM   19  C17 UNK     1      19.556  10.972  34.493  1.00  0.00     0.034 C 
HETATM   20  C20 UNK     1      20.692   9.955  34.571  1.00  0.00     0.010 C 
ENDBRANCH  17  19
ENDBRANCH   7   8
ENDBRANCH   1   7
BRANCH   2  21
HETATM   21  C6  UNK     1      18.701   1.620  29.202  1.00  0.00     0.375 C 
BRANCH  21  22
HETATM   22  C9  UNK     1      19.501   0.429  29.702  1.00  0.00     0.250 C 
HETATM   23  O2  UNK     1      20.370  -0.114  29.027  1.00  0.00    -0.271 OA
HETATM   24  N3  UNK     1      19.100   0.086  30.992  1.00  0.00    -0.325 N 
HETATM   25  H15 UNK     1      18.367   0.651  31.410  1.00  0.00     0.169 HD
BRANCH  24  26
HETATM   26  C18 UNK     1      19.600  -0.963  31.801  1.00  0.00     0.040 A 
HETATM   27  C19 UNK     1      19.202  -1.090  33.132  1.00  0.00    -0.035 A 
HETATM   28  C22 UNK     1      19.706  -2.129  33.914  1.00  0.00     0.009 A 
HETATM   29  C23 UNK     1      18.238  -0.127  33.747  1.00  0.00     0.050 C 
HETATM   30  C25 UNK     1      20.607  -3.041  33.364  1.00  0.00     0.001 A 
HETATM   31  C24 UNK     1      21.005  -2.913  32.033  1.00  0.00     0.002 A 
HETATM   32  C21 UNK     1      20.501  -1.874  31.251  1.00  0.00     0.030 A 
ENDBRANCH  24  26
ENDBRANCH  21  22
ENDBRANCH   2  21
TORSDOF 6
ENDMDL
MODEL 9
REMARK VINA RESULT:      -9.0      2.091      9.814
REMARK  6 active torsions:
REMARK  status: ('A' for Active; 'I' for Inactive)
REMARK    1  A    between atoms: C5_11  and  N1_4 
REMARK    2  A    between atoms: C6_12  and  N2_5 
REMARK    3  A    between atoms: C18_24  and  N3_6 
REMARK       I    between atoms: C9_15  and  N3_6 
REMARK    4  A    between atoms: C5_11  and  C7_13 
REMARK    5  A    between atoms: C6_12  and  C9_15 
REMARK    6  A    between atoms: C13_19  and  C17_23 
ROOT
HETATM    1  N1  UNK     1      18.780  -0.918  35.205  1.00  0.00     0.096 N 
HETATM    2  N2  UNK     1      19.757  -3.026  36.927  1.00  0.00     0.100 N 
HETATM    3  C1  UNK     1      19.653  -1.981  34.691  1.00  0.00     0.303 C 
HETATM    4  C2  UNK     1      17.981  -1.414  36.333  1.00  0.00     0.303 C 
HETATM    5  C3  UNK     1      20.556  -2.530  35.801  1.00  0.00     0.303 C 
HETATM    6  C4  UNK     1      18.884  -1.964  37.442  1.00  0.00     0.303 C 
ENDROOT
BRANCH   1   7
HETATM    7  C5  UNK     1      17.917  -0.398  34.146  1.00  0.00     0.312 C 
BRANCH   7   8
HETATM    8  C7  UNK     1      18.604  -0.368  32.825  1.00  0.00    -0.011 A 
HETATM    9  C10 UNK     1      19.155  -1.475  32.307  1.00  0.00     0.092 A 
HETATM   10  C14 UNK     1      19.844  -1.494  31.005  1.00  0.00     0.288 A 
HETATM   11  O1  UNK     1      19.905  -0.294  30.315  1.00  0.00    -0.275 OA
HETATM   12  O3  UNK     1      20.335  -2.527  30.562  1.00  0.00    -0.260 OA
HETATM   13  C11 UNK     1      19.336   0.886  30.834  1.00  0.00     0.090 A 
HETATM   14  C8  UNK     1      18.686   0.889  32.069  1.00  0.00     0.007 A 
HETATM   15  C15 UNK     1      19.458   2.035  30.053  1.00  0.00     0.039 A 
HETATM   16  C12 UNK     1      18.146   2.102  32.516  1.00  0.00     0.022 A 
HETATM   17  C13 UNK     1      18.261   3.264  31.743  1.00  0.00    -0.058 A 
HETATM   18  C16 UNK     1      18.915   3.230  30.514  1.00  0.00     0.010 A 
BRANCH  17  19
HETATM   19  C17 UNK     1      17.678   4.546  32.239  1.00  0.00     0.034 C 
HETATM   20  C20 UNK     1      18.538   5.192  33.322  1.00  0.00     0.010 C 
ENDBRANCH  17  19
ENDBRANCH   7   8
ENDBRANCH   1   7
BRANCH   2  21
HETATM   21  C6  UNK     1      20.618  -3.549  37.985  1.00  0.00     0.375 C 
BRANCH  21  22
HETATM   22  C9  UNK     1      20.842  -5.036  37.767  1.00  0.00     0.250 C 
HETATM   23  O2  UNK     1      21.877  -5.485  37.285  1.00  0.00    -0.271 OA
HETATM   24  N3  UNK     1      19.728  -5.759  38.192  1.00  0.00    -0.325 N 
HETATM   25  H15 UNK     1      18.955  -5.225  38.577  1.00  0.00     0.169 HD
BRANCH  24  26
HETATM   26  C18 UNK     1      19.545  -7.162  38.156  1.00  0.00     0.040 A 
HETATM   27  C19 UNK     1      18.913  -7.773  37.073  1.00  0.00    -0.035 A 
HETATM   28  C22 UNK     1      18.740  -9.157  37.057  1.00  0.00     0.009 A 
HETATM   29  C23 UNK     1      18.409  -6.970  35.917  1.00  0.00     0.050 C 
HETATM   30  C25 UNK     1      19.201  -9.929  38.123  1.00  0.00     0.001 A 
HETATM   31  C24 UNK     1      19.833  -9.318  39.206  1.00  0.00     0.002 A 
HETATM   32  C21 UNK     1      20.006  -7.934  39.222  1.00  0.00     0.030 A 
ENDBRANCH  24  26
ENDBRANCH  21  22
ENDBRANCH   2  21
TORSDOF 6
ENDMDL
MODEL 10
REMARK VINA RESULT:      -9.0      3.343     10.709
REMARK  6 active torsions:
REMARK  status: ('A' for Active; 'I' for Inactive)
REMARK    1  A    between atoms: C5_11  and  N1_4 
REMARK    2  A    between atoms: C6_12  and  N2_5 
REMARK    3  A    between atoms: C18_24  and  N3_6 
REMARK       I    between atoms: C9_15  and  N3_6 
REMARK    4  A    between atoms: C5_11  and  C7_13 
REMARK    5  A    between atoms: C6_12  and  C9_15 
REMARK    6  A    between atoms: C13_19  and  C17_23 
ROOT
HETATM    1  N1  UNK     1      17.930   1.398  35.350  1.00  0.00     0.096 N 
HETATM    2  N2  UNK     1      18.421  -1.189  36.543  1.00  0.00     0.100 N 
HETATM    3  C1  UNK     1      17.841   1.198  36.802  1.00  0.00     0.303 C 
HETATM    4  C2  UNK     1      18.891   0.457  34.761  1.00  0.00     0.303 C 
HETATM    5  C3  UNK     1      17.460  -0.250  37.130  1.00  0.00     0.303 C 
HETATM    6  C4  UNK     1      18.510  -0.990  35.091  1.00  0.00     0.303 C 
ENDROOT
BRANCH   1   7
HETATM    7  C5  UNK     1      18.297   2.779  35.038  1.00  0.00     0.312 C 
BRANCH   7   8
HETATM    8  C7  UNK     1      18.311   3.038  33.572  1.00  0.00    -0.011 A 
HETATM    9  C10 UNK     1      18.307   2.028  32.690  1.00  0.00     0.092 A 
HETATM   10  C14 UNK     1      18.320   2.236  31.232  1.00  0.00     0.288 A 
HETATM   11  O1  UNK     1      18.337   3.549  30.789  1.00  0.00    -0.275 OA
HETATM   12  O3  UNK     1      18.313   1.287  30.456  1.00  0.00    -0.260 OA
HETATM   13  C11 UNK     1      18.343   4.631  31.692  1.00  0.00     0.090 A 
HETATM   14  C8  UNK     1      18.330   4.419  33.071  1.00  0.00     0.007 A 
HETATM   15  C15 UNK     1      18.362   5.910  31.134  1.00  0.00     0.039 A 
HETATM   16  C12 UNK     1      18.337   5.548  33.902  1.00  0.00     0.022 A 
HETATM   17  C13 UNK     1      18.356   6.837  33.357  1.00  0.00    -0.058 A 
HETATM   18  C16 UNK     1      18.368   7.017  31.976  1.00  0.00     0.010 A 
BRANCH  17  19
HETATM   19  C17 UNK     1      18.363   8.025  34.261  1.00  0.00     0.034 C 
HETATM   20  C20 UNK     1      19.774   8.540  34.530  1.00  0.00     0.010 C 
ENDBRANCH  17  19
ENDBRANCH   7   8
ENDBRANCH   1   7
BRANCH   2  21
HETATM   21  C6  UNK     1      18.057  -2.569  36.856  1.00  0.00     0.375 C 
BRANCH  21  22
HETATM   22  C9  UNK     1      19.263  -3.470  36.650  1.00  0.00     0.250 C 
HETATM   23  O2  UNK     1      20.413  -3.042  36.630  1.00  0.00    -0.271 OA
HETATM   24  N3  UNK     1      18.855  -4.795  36.501  1.00  0.00    -0.325 N 
HETATM   25  H15 UNK     1      17.857  -4.977  36.553  1.00  0.00     0.169 HD
BRANCH  24  26
HETATM   26  C18 UNK     1      19.673  -5.931  36.291  1.00  0.00     0.040 A 
HETATM   27  C19 UNK     1      20.317  -6.557  37.359  1.00  0.00    -0.035 A 
HETATM   28  C22 UNK     1      21.119  -7.674  37.131  1.00  0.00     0.009 A 
HETATM   29  C23 UNK     1      20.165  -6.051  38.757  1.00  0.00     0.050 C 
HETATM   30  C25 UNK     1      21.277  -8.166  35.836  1.00  0.00     0.001 A 
HETATM   31  C24 UNK     1      20.634  -7.540  34.768  1.00  0.00     0.002 A 
HETATM   32  C21 UNK     1      19.831  -6.423  34.995  1.00  0.00     0.030 A 
ENDBRANCH  24  26
ENDBRANCH  21  22
ENDBRANCH   2  21
TORSDOF 6
ENDMDL
