MODEL 1
REMARK VINA RESULT:      -7.9      0.000      0.000
REMARK  2 active torsions:
REMARK  status: ('A' for Active; 'I' for Inactive)
REMARK    1  A    between atoms: C16_19  and  O3_3 
REMARK    2  A    between atoms: C4_7  and  C5_8 
ROOT
HETATM    1  O1  UNK     1      18.153   2.801  32.993  1.00  0.00    -0.308 OA
HETATM    2  O2  UNK     1      19.396   1.271  29.428  1.00  0.00    -0.287 OA
HETATM    3  C1  UNK     1      18.420   1.460  32.880  1.00  0.00     0.096 A 
HETATM    4  C2  UNK     1      18.849   0.872  31.692  1.00  0.00     0.048 A 
HETATM    5  C3  UNK     1      18.243   0.677  34.022  1.00  0.00    -0.027 A 
HETATM    6  C4  UNK     1      18.327   3.604  31.877  1.00  0.00     0.090 A 
HETATM    7  C6  UNK     1      19.026   1.720  30.504  1.00  0.00     0.187 A 
HETATM    8  C7  UNK     1      18.728   3.157  30.677  1.00  0.00     0.093 A 
HETATM    9  C8  UNK     1      19.106  -0.500  31.635  1.00  0.00     0.018 A 
HETATM   10  C9  UNK     1      18.499  -0.693  33.970  1.00  0.00     0.009 A 
HETATM   11  C10 UNK     1      18.929  -1.280  32.779  1.00  0.00     0.002 A 
HETATM   12  C11 UNK     1      17.786   1.280  35.310  1.00  0.00     0.051 C 
ENDROOT
BRANCH   6  13
HETATM   13  C5  UNK     1      18.007   5.028  32.107  1.00  0.00    -0.002 A 
HETATM   14  C12 UNK     1      18.107   5.948  31.061  1.00  0.00     0.017 A 
HETATM   15  C14 UNK     1      17.805   7.292  31.278  1.00  0.00     0.037 A 
HETATM   16  C16 UNK     1      17.402   7.721  32.544  1.00  0.00     0.068 A 
HETATM   17  C15 UNK     1      17.301   6.805  33.591  1.00  0.00     0.037 A 
HETATM   18  C13 UNK     1      17.603   5.461  33.373  1.00  0.00     0.017 A 
BRANCH  16  19
HETATM   19  O3  UNK     1      17.106   9.033  32.755  1.00  0.00    -0.356 OA
HETATM   20  C17 UNK     1      17.705   9.659  33.889  1.00  0.00     0.210 C 
ENDBRANCH  16  19
ENDBRANCH   6  13
TORSDOF 2
ENDMDL
MODEL 2
REMARK VINA RESULT:      -7.9      2.438      7.389
REMARK  2 active torsions:
REMARK  status: ('A' for Active; 'I' for Inactive)
REMARK    1  A    between atoms: C16_19  and  O3_3 
REMARK    2  A    between atoms: C4_7  and  C5_8 
ROOT
HETATM    1  O1  UNK     1      16.549   6.901  32.557  1.00  0.00    -0.308 OA
HETATM    2  O2  UNK     1      19.337   9.335  34.259  1.00  0.00    -0.287 OA
HETATM    3  C1  UNK     1      16.152   8.028  33.233  1.00  0.00     0.096 A 
HETATM    4  C2  UNK     1      17.053   8.903  33.837  1.00  0.00     0.048 A 
HETATM    5  C3  UNK     1      14.782   8.279  33.302  1.00  0.00    -0.027 A 
HETATM    6  C4  UNK     1      17.905   6.630  32.466  1.00  0.00     0.090 A 
HETATM    7  C6  UNK     1      18.492   8.612  33.750  1.00  0.00     0.187 A 
HETATM    8  C7  UNK     1      18.867   7.390  33.010  1.00  0.00     0.093 A 
HETATM    9  C8  UNK     1      16.592  10.035  34.513  1.00  0.00     0.018 A 
HETATM   10  C9  UNK     1      14.317   9.410  33.974  1.00  0.00     0.009 A 
HETATM   11  C10 UNK     1      15.220  10.285  34.579  1.00  0.00     0.002 A 
HETATM   12  C11 UNK     1      13.793   7.360  32.662  1.00  0.00     0.051 C 
ENDROOT
BRANCH   6  13
HETATM   13  C5  UNK     1      18.220   5.393  31.723  1.00  0.00    -0.002 A 
HETATM   14  C12 UNK     1      17.972   4.145  32.300  1.00  0.00     0.017 A 
HETATM   15  C14 UNK     1      18.270   2.976  31.598  1.00  0.00     0.037 A 
HETATM   16  C16 UNK     1      18.818   3.052  30.317  1.00  0.00     0.068 A 
HETATM   17  C15 UNK     1      19.068   4.297  29.738  1.00  0.00     0.037 A 
HETATM   18  C13 UNK     1      18.769   5.465  30.440  1.00  0.00     0.017 A 
BRANCH  16  19
HETATM   19  O3  UNK     1      19.107   1.912  29.633  1.00  0.00    -0.356 OA
HETATM   20  C17 UNK     1      18.156   1.481  28.660  1.00  0.00     0.210 C 
ENDBRANCH  16  19
ENDBRANCH   6  13
TORSDOF 2
ENDMDL
MODEL 3
REMARK VINA RESULT:      -7.8      1.926      6.287
REMARK  2 active torsions:
REMARK  status: ('A' for Active; 'I' for Inactive)
REMARK    1  A    between atoms: C16_19  and  O3_3 
REMARK    2  A    between atoms: C4_7  and  C5_8 
ROOT
HETATM    1  O1  UNK     1      18.155   3.540  33.225  1.00  0.00    -0.308 OA
HETATM    2  O2  UNK     1      19.088   1.972  29.583  1.00  0.00    -0.287 OA
HETATM    3  C1  UNK     1      18.347   4.372  32.151  1.00  0.00     0.096 A 
HETATM    4  C2  UNK     1      18.667   3.902  30.878  1.00  0.00     0.048 A 
HETATM    5  C3  UNK     1      18.210   5.742  32.374  1.00  0.00    -0.027 A 
HETATM    6  C4  UNK     1      18.277   2.173  33.031  1.00  0.00     0.090 A 
HETATM    7  C6  UNK     1      18.806   2.453  30.671  1.00  0.00     0.187 A 
HETATM    8  C7  UNK     1      18.587   1.600  31.857  1.00  0.00     0.093 A 
HETATM    9  C8  UNK     1      18.851   4.796  29.821  1.00  0.00     0.018 A 
HETATM   10  C9  UNK     1      18.392   6.639  31.321  1.00  0.00     0.009 A 
HETATM   11  C10 UNK     1      18.712   6.167  30.048  1.00  0.00     0.002 A 
HETATM   12  C11 UNK     1      17.866   6.275  33.727  1.00  0.00     0.051 C 
ENDROOT
BRANCH   6  13
HETATM   13  C5  UNK     1      18.056   1.372  34.252  1.00  0.00    -0.002 A 
HETATM   14  C12 UNK     1      17.844  -0.006  34.158  1.00  0.00     0.017 A 
HETATM   15  C14 UNK     1      17.635  -0.762  35.312  1.00  0.00     0.037 A 
HETATM   16  C16 UNK     1      17.637  -0.143  36.562  1.00  0.00     0.068 A 
HETATM   17  C15 UNK     1      17.848   1.232  36.659  1.00  0.00     0.037 A 
HETATM   18  C13 UNK     1      18.057   1.989  35.505  1.00  0.00     0.017 A 
BRANCH  16  19
HETATM   19  O3  UNK     1      17.435  -0.882  37.687  1.00  0.00    -0.356 OA
HETATM   20  C17 UNK     1      18.470  -1.790  38.062  1.00  0.00     0.210 C 
ENDBRANCH  16  19
ENDBRANCH   6  13
TORSDOF 2
ENDMDL
MODEL 4
REMARK VINA RESULT:      -7.6      3.618      5.281
REMARK  2 active torsions:
REMARK  status: ('A' for Active; 'I' for Inactive)
REMARK    1  A    between atoms: C16_19  and  O3_3 
REMARK    2  A    between atoms: C4_7  and  C5_8 
ROOT
HETATM    1  O1  UNK     1      19.121  -0.092  32.586  1.00  0.00    -0.308 OA
HETATM    2  O2  UNK     1      18.561   2.840  29.815  1.00  0.00    -0.287 OA
HETATM    3  C1  UNK     1      19.571  -0.270  31.302  1.00  0.00     0.096 A 
HETATM    4  C2  UNK     1      19.414   0.692  30.306  1.00  0.00     0.048 A 
HETATM    5  C3  UNK     1      20.209  -1.476  31.012  1.00  0.00    -0.027 A 
HETATM    6  C4  UNK     1      18.491   1.100  32.906  1.00  0.00     0.090 A 
HETATM    7  C6  UNK     1      18.737   1.954  30.640  1.00  0.00     0.187 A 
HETATM    8  C7  UNK     1      18.273   2.098  32.035  1.00  0.00     0.093 A 
HETATM    9  C8  UNK     1      19.892   0.457  29.015  1.00  0.00     0.018 A 
HETATM   10  C9  UNK     1      20.689  -1.715  29.724  1.00  0.00     0.009 A 
HETATM   11  C10 UNK     1      20.530  -0.751  28.728  1.00  0.00     0.002 A 
HETATM   12  C11 UNK     1      20.394  -2.525  32.059  1.00  0.00     0.051 C 
ENDROOT
BRANCH   6  13
HETATM   13  C5  UNK     1      18.042   1.183  34.310  1.00  0.00    -0.002 A 
HETATM   14  C12 UNK     1      18.787   1.910  35.243  1.00  0.00     0.017 A 
HETATM   15  C14 UNK     1      18.363   1.988  36.570  1.00  0.00     0.037 A 
HETATM   16  C16 UNK     1      17.194   1.339  36.969  1.00  0.00     0.068 A 
HETATM   17  C15 UNK     1      16.449   0.612  36.040  1.00  0.00     0.037 A 
HETATM   18  C13 UNK     1      16.872   0.534  34.713  1.00  0.00     0.017 A 
BRANCH  16  19
HETATM   19  O3  UNK     1      16.780   1.418  38.263  1.00  0.00    -0.356 OA
HETATM   20  C17 UNK     1      17.788   1.610  39.255  1.00  0.00     0.210 C 
ENDBRANCH  16  19
ENDBRANCH   6  13
TORSDOF 2
ENDMDL
MODEL 5
REMARK VINA RESULT:      -7.5      2.050      6.821
REMARK  2 active torsions:
REMARK  status: ('A' for Active; 'I' for Inactive)
REMARK    1  A    between atoms: C16_19  and  O3_3 
REMARK    2  A    between atoms: C4_7  and  C5_8 
ROOT
HETATM    1  O1  UNK     1      18.420   2.735  32.432  1.00  0.00    -0.308 OA
HETATM    2  O2  UNK     1      18.541   6.443  34.114  1.00  0.00    -0.287 OA
HETATM    3  C1  UNK     1      18.583   3.841  31.637  1.00  0.00     0.096 A 
HETATM    4  C2  UNK     1      18.634   5.137  32.147  1.00  0.00     0.048 A 
HETATM    5  C3  UNK     1      18.699   3.627  30.263  1.00  0.00    -0.027 A 
HETATM    6  C4  UNK     1      18.310   2.916  33.801  1.00  0.00     0.090 A 
HETATM    7  C6  UNK     1      18.509   5.334  33.599  1.00  0.00     0.187 A 
HETATM    8  C7  UNK     1      18.337   4.112  34.411  1.00  0.00     0.093 A 
HETATM    9  C8  UNK     1      18.802   6.227  31.289  1.00  0.00     0.018 A 
HETATM   10  C9  UNK     1      18.868   4.713  29.404  1.00  0.00     0.009 A 
HETATM   11  C10 UNK     1      18.919   6.010  29.916  1.00  0.00     0.002 A 
HETATM   12  C11 UNK     1      18.650   2.249  29.688  1.00  0.00     0.051 C 
ENDROOT
BRANCH   6  13
HETATM   13  C5  UNK     1      18.132   1.662  34.560  1.00  0.00    -0.002 A 
HETATM   14  C12 UNK     1      17.885   1.702  35.934  1.00  0.00     0.017 A 
HETATM   15  C14 UNK     1      17.718   0.517  36.651  1.00  0.00     0.037 A 
HETATM   16  C16 UNK     1      17.798  -0.713  35.995  1.00  0.00     0.068 A 
HETATM   17  C15 UNK     1      18.045  -0.756  34.623  1.00  0.00     0.037 A 
HETATM   18  C13 UNK     1      18.212   0.429  33.907  1.00  0.00     0.017 A 
BRANCH  16  19
HETATM   19  O3  UNK     1      17.633  -1.868  36.695  1.00  0.00    -0.356 OA
HETATM   20  C17 UNK     1      18.771  -2.719  36.821  1.00  0.00     0.210 C 
ENDBRANCH  16  19
ENDBRANCH   6  13
TORSDOF 2
ENDMDL
MODEL 6
REMARK VINA RESULT:      -7.5      2.424      4.659
REMARK  2 active torsions:
REMARK  status: ('A' for Active; 'I' for Inactive)
REMARK    1  A    between atoms: C16_19  and  O3_3 
REMARK    2  A    between atoms: C4_7  and  C5_8 
ROOT
HETATM    1  O1  UNK     1      18.825   0.482  34.495  1.00  0.00    -0.308 OA
HETATM    2  O2  UNK     1      17.313   1.241  38.201  1.00  0.00    -0.287 OA
HETATM    3  C1  UNK     1      18.841  -0.499  35.454  1.00  0.00     0.096 A 
HETATM    4  C2  UNK     1      18.340  -0.307  36.740  1.00  0.00     0.048 A 
HETATM    5  C3  UNK     1      19.391  -1.730  35.096  1.00  0.00    -0.027 A 
HETATM    6  C4  UNK     1      18.279   1.714  34.820  1.00  0.00     0.090 A 
HETATM    7  C6  UNK     1      17.767   1.002  37.090  1.00  0.00     0.187 A 
HETATM    8  C7  UNK     1      17.771   2.023  36.023  1.00  0.00     0.093 A 
HETATM    9  C8  UNK     1      18.383  -1.343  37.677  1.00  0.00     0.018 A 
HETATM   10  C9  UNK     1      19.435  -2.768  36.028  1.00  0.00     0.009 A 
HETATM   11  C10 UNK     1      18.932  -2.574  37.315  1.00  0.00     0.002 A 
HETATM   12  C11 UNK     1      19.934  -1.966  33.725  1.00  0.00     0.051 C 
ENDROOT
BRANCH   6  13
HETATM   13  C5  UNK     1      18.317   2.696  33.718  1.00  0.00    -0.002 A 
HETATM   14  C12 UNK     1      18.373   4.064  33.998  1.00  0.00     0.017 A 
HETATM   15  C14 UNK     1      18.409   4.991  32.957  1.00  0.00     0.037 A 
HETATM   16  C16 UNK     1      18.389   4.555  31.632  1.00  0.00     0.068 A 
HETATM   17  C15 UNK     1      18.333   3.190  31.349  1.00  0.00     0.037 A 
HETATM   18  C13 UNK     1      18.297   2.262  32.390  1.00  0.00     0.017 A 
BRANCH  16  19
HETATM   19  O3  UNK     1      18.426   5.461  30.617  1.00  0.00    -0.356 OA
HETATM   20  C17 UNK     1      19.714   5.858  30.149  1.00  0.00     0.210 C 
ENDBRANCH  16  19
ENDBRANCH   6  13
TORSDOF 2
ENDMDL
MODEL 7
REMARK VINA RESULT:      -7.4      6.050      9.059
REMARK  2 active torsions:
REMARK  status: ('A' for Active; 'I' for Inactive)
REMARK    1  A    between atoms: C16_19  and  O3_3 
REMARK    2  A    between atoms: C4_7  and  C5_8 
ROOT
HETATM    1  O1  UNK     1      18.910  -4.863  36.616  1.00  0.00    -0.308 OA
HETATM    2  O2  UNK     1      22.582  -5.511  38.256  1.00  0.00    -0.287 OA
HETATM    3  C1  UNK     1      19.346  -6.147  36.829  1.00  0.00     0.096 A 
HETATM    4  C2  UNK     1      20.590  -6.439  37.386  1.00  0.00     0.048 A 
HETATM    5  C3  UNK     1      18.487  -7.181  36.460  1.00  0.00    -0.027 A 
HETATM    6  C4  UNK     1      19.739  -3.815  36.979  1.00  0.00     0.090 A 
HETATM    7  C6  UNK     1      21.476  -5.328  37.765  1.00  0.00     0.187 A 
HETATM    8  C7  UNK     1      20.959  -3.967  37.518  1.00  0.00     0.093 A 
HETATM    9  C8  UNK     1      20.982  -7.765  37.580  1.00  0.00     0.018 A 
HETATM   10  C9  UNK     1      18.875  -8.507  36.653  1.00  0.00     0.009 A 
HETATM   11  C10 UNK     1      20.120  -8.798  37.211  1.00  0.00     0.002 A 
HETATM   12  C11 UNK     1      17.148  -6.899  35.861  1.00  0.00     0.051 C 
ENDROOT
BRANCH   6  13
HETATM   13  C5  UNK     1      19.174  -2.479  36.702  1.00  0.00    -0.002 A 
HETATM   14  C12 UNK     1      18.392  -1.833  37.663  1.00  0.00     0.017 A 
HETATM   15  C14 UNK     1      17.858  -0.572  37.400  1.00  0.00     0.037 A 
HETATM   16  C16 UNK     1      18.104   0.049  36.174  1.00  0.00     0.068 A 
HETATM   17  C15 UNK     1      18.885  -0.593  35.212  1.00  0.00     0.037 A 
HETATM   18  C13 UNK     1      19.418  -1.855  35.475  1.00  0.00     0.017 A 
BRANCH  16  19
HETATM   19  O3  UNK     1      17.585   1.280  35.919  1.00  0.00    -0.356 OA
HETATM   20  C17 UNK     1      18.339   2.139  35.065  1.00  0.00     0.210 C 
ENDBRANCH  16  19
ENDBRANCH   6  13
TORSDOF 2
ENDMDL
MODEL 8
REMARK VINA RESULT:      -7.3     13.452     15.569
REMARK  2 active torsions:
REMARK  status: ('A' for Active; 'I' for Inactive)
REMARK    1  A    between atoms: C16_19  and  O3_3 
REMARK    2  A    between atoms: C4_7  and  C5_8 
ROOT
HETATM    1  O1  UNK     1      24.402  -8.654  37.184  1.00  0.00    -0.308 OA
HETATM    2  O2  UNK     1      25.021 -12.344  35.571  1.00  0.00    -0.287 OA
HETATM    3  C1  UNK     1      23.336  -9.389  36.729  1.00  0.00     0.096 A 
HETATM    4  C2  UNK     1      23.477 -10.657  36.168  1.00  0.00     0.048 A 
HETATM    5  C3  UNK     1      22.070  -8.815  36.847  1.00  0.00    -0.027 A 
HETATM    6  C4  UNK     1      25.671  -9.203  37.086  1.00  0.00     0.090 A 
HETATM    7  C6  UNK     1      24.824 -11.238  36.056  1.00  0.00     0.187 A 
HETATM    8  C7  UNK     1      25.937 -10.409  36.561  1.00  0.00     0.093 A 
HETATM    9  C8  UNK     1      22.356 -11.360  35.722  1.00  0.00     0.018 A 
HETATM   10  C9  UNK     1      20.948  -9.514  36.403  1.00  0.00     0.009 A 
HETATM   11  C10 UNK     1      21.090 -10.784  35.842  1.00  0.00     0.002 A 
HETATM   12  C11 UNK     1      21.889  -7.459  37.445  1.00  0.00     0.051 C 
ENDROOT
BRANCH   6  13
HETATM   13  C5  UNK     1      26.744  -8.326  37.599  1.00  0.00    -0.002 A 
HETATM   14  C12 UNK     1      26.930  -8.175  38.975  1.00  0.00     0.017 A 
HETATM   15  C14 UNK     1      27.943  -7.347  39.459  1.00  0.00     0.037 A 
HETATM   16  C16 UNK     1      28.773  -6.666  38.567  1.00  0.00     0.068 A 
HETATM   17  C15 UNK     1      28.590  -6.815  37.192  1.00  0.00     0.037 A 
HETATM   18  C13 UNK     1      27.577  -7.643  36.709  1.00  0.00     0.017 A 
BRANCH  16  19
HETATM   19  O3  UNK     1      29.762  -5.860  39.040  1.00  0.00    -0.356 OA
HETATM   20  C17 UNK     1      29.542  -4.452  38.968  1.00  0.00     0.210 C 
ENDBRANCH  16  19
ENDBRANCH   6  13
TORSDOF 2
ENDMDL
MODEL 9
REMARK VINA RESULT:      -7.3      4.855      7.176
REMARK  2 active torsions:
REMARK  status: ('A' for Active; 'I' for Inactive)
REMARK    1  A    between atoms: C16_19  and  O3_3 
REMARK    2  A    between atoms: C4_7  and  C5_8 
ROOT
HETATM    1  O1  UNK     1      18.865  -0.752  34.297  1.00  0.00    -0.308 OA
HETATM    2  O2  UNK     1      20.648  -3.895  36.177  1.00  0.00    -0.287 OA
HETATM    3  C1  UNK     1      18.691  -0.929  35.646  1.00  0.00     0.096 A 
HETATM    4  C2  UNK     1      19.273  -1.982  36.351  1.00  0.00     0.048 A 
HETATM    5  C3  UNK     1      17.892  -0.001  36.313  1.00  0.00    -0.027 A 
HETATM    6  C4  UNK     1      19.661  -1.655  33.609  1.00  0.00     0.090 A 
HETATM    7  C6  UNK     1      20.110  -2.947  35.623  1.00  0.00     0.187 A 
HETATM    8  C7  UNK     1      20.268  -2.711  34.173  1.00  0.00     0.093 A 
HETATM    9  C8  UNK     1      19.061  -2.113  37.726  1.00  0.00     0.018 A 
HETATM   10  C9  UNK     1      17.679  -0.128  37.686  1.00  0.00     0.009 A 
HETATM   11  C10 UNK     1      18.261  -1.182  38.390  1.00  0.00     0.002 A 
HETATM   12  C11 UNK     1      17.257   1.138  35.584  1.00  0.00     0.051 C 
ENDROOT
BRANCH   6  13
HETATM   13  C5  UNK     1      19.776  -1.374  32.164  1.00  0.00    -0.002 A 
HETATM   14  C12 UNK     1      19.305  -0.165  31.644  1.00  0.00     0.017 A 
HETATM   15  C14 UNK     1      19.413   0.100  30.279  1.00  0.00     0.037 A 
HETATM   16  C16 UNK     1      19.992  -0.844  29.429  1.00  0.00     0.068 A 
HETATM   17  C15 UNK     1      20.462  -2.051  29.944  1.00  0.00     0.037 A 
HETATM   18  C13 UNK     1      20.354  -2.316  31.310  1.00  0.00     0.017 A 
BRANCH  16  19
HETATM   19  O3  UNK     1      20.099  -0.583  28.097  1.00  0.00    -0.356 OA
HETATM   20  C17 UNK     1      18.890  -0.580  27.338  1.00  0.00     0.210 C 
ENDBRANCH  16  19
ENDBRANCH   6  13
TORSDOF 2
ENDMDL
MODEL 10
REMARK VINA RESULT:      -7.3      3.559      7.800
REMARK  2 active torsions:
REMARK  status: ('A' for Active; 'I' for Inactive)
REMARK    1  A    between atoms: C16_19  and  O3_3 
REMARK    2  A    between atoms: C4_7  and  C5_8 
ROOT
HETATM    1  O1  UNK     1      19.443  -0.742  32.535  1.00  0.00    -0.308 OA
HETATM    2  O2  UNK     1      17.703   2.888  33.164  1.00  0.00    -0.287 OA
HETATM    3  C1  UNK     1      19.271   0.126  31.486  1.00  0.00     0.096 A 
HETATM    4  C2  UNK     1      18.685   1.381  31.631  1.00  0.00     0.048 A 
HETATM    5  C3  UNK     1      19.712  -0.297  30.232  1.00  0.00    -0.027 A 
HETATM    6  C4  UNK     1      19.021  -0.345  33.794  1.00  0.00     0.090 A 
HETATM    7  C6  UNK     1      18.229   1.801  32.964  1.00  0.00     0.187 A 
HETATM    8  C7  UNK     1      18.437   0.834  34.061  1.00  0.00     0.093 A 
HETATM    9  C8  UNK     1      18.536   2.223  30.526  1.00  0.00     0.018 A 
HETATM   10  C9  UNK     1      19.567   0.541  29.126  1.00  0.00     0.009 A 
HETATM   11  C10 UNK     1      18.980   1.798  29.273  1.00  0.00     0.002 A 
HETATM   12  C11 UNK     1      20.346  -1.637  30.046  1.00  0.00     0.051 C 
ENDROOT
BRANCH   6  13
HETATM   13  C5  UNK     1      19.247  -1.355  34.848  1.00  0.00    -0.002 A 
HETATM   14  C12 UNK     1      20.113  -2.427  34.619  1.00  0.00     0.017 A 
HETATM   15  C14 UNK     1      20.326  -3.381  35.614  1.00  0.00     0.037 A 
HETATM   16  C16 UNK     1      19.674  -3.266  36.842  1.00  0.00     0.068 A 
HETATM   17  C15 UNK     1      18.808  -2.197  37.074  1.00  0.00     0.037 A 
HETATM   18  C13 UNK     1      18.595  -1.243  36.079  1.00  0.00     0.017 A 
BRANCH  16  19
HETATM   19  O3  UNK     1      19.884  -4.196  37.813  1.00  0.00    -0.356 OA
HETATM   20  C17 UNK     1      21.052  -5.007  37.693  1.00  0.00     0.210 C 
ENDBRANCH  16  19
ENDBRANCH   6  13
TORSDOF 2
ENDMDL
