MODEL 1
REMARK VINA RESULT:      -9.2      0.000      0.000
REMARK  6 active torsions:
REMARK  status: ('A' for Active; 'I' for Inactive)
REMARK    1  A    between atoms: C12_16  and  O2_2 
REMARK    2  A    between atoms: C9_13  and  O2_2 
REMARK    3  A    between atoms: C3_7  and  C5_9 
REMARK    4  A    between atoms: C13_17  and  C5_9 
REMARK    5  A    between atoms: C12_16  and  C15_19 
REMARK    6  A    between atoms: C14_18  and  C15_19 
ROOT
HETATM    1  O1  UNK     1      16.466   7.788  32.107  1.00  0.00    -0.274 OA
HETATM    2  O3  UNK     1      15.126   9.434  32.910  1.00  0.00    -0.259 OA
HETATM    3  C1  UNK     1      18.758   7.577  32.895  1.00  0.00     0.005 A 
HETATM    4  C2  UNK     1      18.540   8.738  33.784  1.00  0.00    -0.036 A 
HETATM    5  C3  UNK     1      17.348   9.371  33.767  1.00  0.00     0.028 A 
HETATM    6  C4  UNK     1      17.711   7.142  32.088  1.00  0.00     0.092 A 
HETATM    7  C6  UNK     1      19.972   6.879  32.801  1.00  0.00     0.017 A 
HETATM    8  C7  UNK     1      17.832   6.054  31.220  1.00  0.00     0.075 A 
HETATM    9  C8  UNK     1      16.225   8.890  32.910  1.00  0.00     0.295 A 
HETATM   10  C9  UNK     1      19.042   5.373  31.147  1.00  0.00     0.072 A 
HETATM   11  C10 UNK     1      19.686   9.135  34.681  1.00  0.00     0.050 C 
HETATM   12  C11 UNK     1      20.112   5.787  31.935  1.00  0.00     0.038 A 
ENDROOT
BRANCH  10  13
HETATM   13  O2  UNK     1      19.182   4.312  30.308  1.00  0.00    -0.344 OA
BRANCH  13  14
HETATM   14  C12 UNK     1      18.327   3.191  30.528  1.00  0.00     0.259 C 
BRANCH  14  15
HETATM   15  C15 UNK     1      18.483   2.189  29.400  1.00  0.00     0.183 C 
HETATM   16  O4  UNK     1      18.106   2.439  28.258  1.00  0.00    -0.290 OA
BRANCH  15  17
HETATM   17  C14 UNK     1      19.111   0.869  29.696  1.00  0.00     0.012 A 
HETATM   18  C17 UNK     1      19.513   0.078  28.644  1.00  0.00     0.016 A 
HETATM   19  C19 UNK     1      20.103  -1.155  28.921  1.00  0.00     0.007 A 
HETATM   20  C16 UNK     1      20.275  -1.565  30.243  1.00  0.00    -0.062 A 
HETATM   21  C20 UNK     1      19.856  -0.741  31.288  1.00  0.00     0.007 A 
HETATM   22  C21 UNK     1      20.904  -2.885  30.540  1.00  0.00     0.048 C 
HETATM   23  C18 UNK     1      19.267   0.492  31.011  1.00  0.00     0.016 A 
ENDBRANCH  15  17
ENDBRANCH  14  15
ENDBRANCH  13  14
ENDBRANCH  10  13
BRANCH   5  24
HETATM   24  C5  UNK     1      17.013  10.601  34.573  1.00  0.00     0.071 C 
BRANCH  24  25
HETATM   25  C13 UNK     1      17.594  11.832  33.961  1.00  0.00    -0.032 C 
HETATM   26  C22 UNK     1      18.301  12.739  34.646  1.00  0.00     0.007 C 
ENDBRANCH  24  25
ENDBRANCH   5  24
TORSDOF 6
ENDMDL
MODEL 2
REMARK VINA RESULT:      -8.5      5.472      8.187
REMARK  6 active torsions:
REMARK  status: ('A' for Active; 'I' for Inactive)
REMARK    1  A    between atoms: C12_16  and  O2_2 
REMARK    2  A    between atoms: C9_13  and  O2_2 
REMARK    3  A    between atoms: C3_7  and  C5_9 
REMARK    4  A    between atoms: C13_17  and  C5_9 
REMARK    5  A    between atoms: C12_16  and  C15_19 
REMARK    6  A    between atoms: C14_18  and  C15_19 
ROOT
HETATM    1  O1  UNK     1      18.821   0.263  31.465  1.00  0.00    -0.274 OA
HETATM    2  O3  UNK     1      19.055   1.162  29.394  1.00  0.00    -0.259 OA
HETATM    3  C1  UNK     1      18.333   1.691  33.374  1.00  0.00     0.005 A 
HETATM    4  C2  UNK     1      18.327   2.862  32.473  1.00  0.00    -0.036 A 
HETATM    5  C3  UNK     1      18.595   2.692  31.161  1.00  0.00     0.028 A 
HETATM    6  C4  UNK     1      18.579   0.430  32.837  1.00  0.00     0.092 A 
HETATM    7  C6  UNK     1      18.115   1.765  34.759  1.00  0.00     0.017 A 
HETATM    8  C7  UNK     1      18.603  -0.728  33.617  1.00  0.00     0.075 A 
HETATM    9  C8  UNK     1      18.844   1.336  30.590  1.00  0.00     0.295 A 
HETATM   10  C9  UNK     1      18.379  -0.633  34.985  1.00  0.00     0.072 A 
HETATM   11  C10 UNK     1      17.998   4.198  33.094  1.00  0.00     0.050 C 
HETATM   12  C11 UNK     1      18.136   0.613  35.556  1.00  0.00     0.038 A 
ENDROOT
BRANCH  10  13
HETATM   13  O2  UNK     1      18.398  -1.748  35.763  1.00  0.00    -0.344 OA
BRANCH  13  14
HETATM   14  C12 UNK     1      19.651  -2.121  36.334  1.00  0.00     0.259 C 
BRANCH  14  15
HETATM   15  C15 UNK     1      20.083  -3.475  35.803  1.00  0.00     0.183 C 
HETATM   16  O4  UNK     1      20.461  -3.622  34.644  1.00  0.00    -0.290 OA
BRANCH  15  17
HETATM   17  C14 UNK     1      20.043  -4.651  36.719  1.00  0.00     0.012 A 
HETATM   18  C17 UNK     1      21.029  -4.780  37.671  1.00  0.00     0.016 A 
HETATM   19  C19 UNK     1      20.990  -5.878  38.530  1.00  0.00     0.007 A 
HETATM   20  C16 UNK     1      19.966  -6.819  38.413  1.00  0.00    -0.062 A 
HETATM   21  C20 UNK     1      18.981  -6.660  37.438  1.00  0.00     0.007 A 
HETATM   22  C21 UNK     1      19.925  -7.995  39.331  1.00  0.00     0.048 C 
HETATM   23  C18 UNK     1      19.020  -5.562  36.580  1.00  0.00     0.016 A 
ENDBRANCH  15  17
ENDBRANCH  14  15
ENDBRANCH  13  14
ENDBRANCH  10  13
BRANCH   5  24
HETATM   24  C5  UNK     1      18.683   3.804  30.148  1.00  0.00     0.071 C 
BRANCH  24  25
HETATM   25  C13 UNK     1      19.774   4.766  30.481  1.00  0.00    -0.032 C 
HETATM   26  C22 UNK     1      19.673   6.090  30.317  1.00  0.00     0.007 C 
ENDBRANCH  24  25
ENDBRANCH   5  24
TORSDOF 6
ENDMDL
MODEL 3
REMARK VINA RESULT:      -8.4      8.005     14.405
REMARK  6 active torsions:
REMARK  status: ('A' for Active; 'I' for Inactive)
REMARK    1  A    between atoms: C12_16  and  O2_2 
REMARK    2  A    between atoms: C9_13  and  O2_2 
REMARK    3  A    between atoms: C3_7  and  C5_9 
REMARK    4  A    between atoms: C13_17  and  C5_9 
REMARK    5  A    between atoms: C12_16  and  C15_19 
REMARK    6  A    between atoms: C14_18  and  C15_19 
ROOT
HETATM    1  O1  UNK     1      20.886  -7.947  34.757  1.00  0.00    -0.274 OA
HETATM    2  O3  UNK     1      21.724  -9.900  33.960  1.00  0.00    -0.259 OA
HETATM    3  C1  UNK     1      20.796  -7.537  37.153  1.00  0.00     0.005 A 
HETATM    4  C2  UNK     1      21.409  -8.862  37.384  1.00  0.00    -0.036 A 
HETATM    5  C3  UNK     1      21.689  -9.656  36.329  1.00  0.00     0.028 A 
HETATM    6  C4  UNK     1      20.557  -7.125  35.845  1.00  0.00     0.092 A 
HETATM    7  C6  UNK     1      20.424  -6.656  38.180  1.00  0.00     0.017 A 
HETATM    8  C7  UNK     1      19.982  -5.890  35.539  1.00  0.00     0.075 A 
HETATM    9  C8  UNK     1      21.442  -9.203  34.929  1.00  0.00     0.295 A 
HETATM   10  C9  UNK     1      19.626  -5.030  36.571  1.00  0.00     0.072 A 
HETATM   11  C10 UNK     1      21.702  -9.237  38.816  1.00  0.00     0.050 C 
HETATM   12  C11 UNK     1      19.845  -5.413  37.891  1.00  0.00     0.038 A 
ENDROOT
BRANCH  10  13
HETATM   13  O2  UNK     1      19.063  -3.823  36.295  1.00  0.00    -0.344 OA
BRANCH  13  14
HETATM   14  C12 UNK     1      19.844  -2.662  36.575  1.00  0.00     0.259 C 
BRANCH  14  15
HETATM   15  C15 UNK     1      19.427  -1.523  35.665  1.00  0.00     0.183 C 
HETATM   16  O4  UNK     1      18.908  -0.501  36.107  1.00  0.00    -0.290 OA
BRANCH  15  17
HETATM   17  C14 UNK     1      19.658  -1.656  34.197  1.00  0.00     0.012 A 
HETATM   18  C17 UNK     1      18.819  -0.990  33.333  1.00  0.00     0.016 A 
HETATM   19  C19 UNK     1      19.036  -1.113  31.962  1.00  0.00     0.007 A 
HETATM   20  C16 UNK     1      20.086  -1.900  31.489  1.00  0.00    -0.062 A 
HETATM   21  C20 UNK     1      20.920  -2.563  32.391  1.00  0.00     0.007 A 
HETATM   22  C21 UNK     1      20.318  -2.033  30.022  1.00  0.00     0.048 C 
HETATM   23  C18 UNK     1      20.702  -2.440  33.762  1.00  0.00     0.016 A 
ENDBRANCH  15  17
ENDBRANCH  14  15
ENDBRANCH  13  14
ENDBRANCH  10  13
BRANCH   5  24
HETATM   24  C5  UNK     1      22.254 -11.050  36.426  1.00  0.00     0.071 C 
BRANCH  24  25
HETATM   25  C13 UNK     1      23.713 -11.074  36.113  1.00  0.00    -0.032 C 
HETATM   26  C22 UNK     1      24.381 -12.181  35.766  1.00  0.00     0.007 C 
ENDBRANCH  24  25
ENDBRANCH   5  24
TORSDOF 6
ENDMDL
MODEL 4
REMARK VINA RESULT:      -8.4     21.857     24.270
REMARK  6 active torsions:
REMARK  status: ('A' for Active; 'I' for Inactive)
REMARK    1  A    between atoms: C12_16  and  O2_2 
REMARK    2  A    between atoms: C9_13  and  O2_2 
REMARK    3  A    between atoms: C3_7  and  C5_9 
REMARK    4  A    between atoms: C13_17  and  C5_9 
REMARK    5  A    between atoms: C12_16  and  C15_19 
REMARK    6  A    between atoms: C14_18  and  C15_19 
ROOT
HETATM    1  O1  UNK     1      13.979   5.162   8.747  1.00  0.00    -0.274 OA
HETATM    2  O3  UNK     1      16.109   4.873   9.473  1.00  0.00    -0.259 OA
HETATM    3  C1  UNK     1      12.766   7.203   9.281  1.00  0.00     0.005 A 
HETATM    4  C2  UNK     1      13.956   7.699  10.003  1.00  0.00    -0.036 A 
HETATM    5  C3  UNK     1      15.053   6.916  10.092  1.00  0.00     0.028 A 
HETATM    6  C4  UNK     1      12.820   5.950   8.676  1.00  0.00     0.092 A 
HETATM    7  C6  UNK     1      11.562   7.915   9.171  1.00  0.00     0.017 A 
HETATM    8  C7  UNK     1      11.741   5.406   7.975  1.00  0.00     0.075 A 
HETATM    9  C8  UNK     1      15.108   5.580   9.430  1.00  0.00     0.295 A 
HETATM   10  C9  UNK     1      10.560   6.132   7.873  1.00  0.00     0.072 A 
HETATM   11  C10 UNK     1      13.868   9.086  10.591  1.00  0.00     0.050 C 
HETATM   12  C11 UNK     1      10.470   7.385   8.472  1.00  0.00     0.038 A 
ENDROOT
BRANCH  10  13
HETATM   13  O2  UNK     1       9.498   5.621   7.196  1.00  0.00    -0.344 OA
BRANCH  13  14
HETATM   14  C12 UNK     1       8.204   6.110   7.548  1.00  0.00     0.259 C 
BRANCH  14  15
HETATM   15  C15 UNK     1       7.572   5.207   8.589  1.00  0.00     0.183 C 
HETATM   16  O4  UNK     1       7.428   4.003   8.396  1.00  0.00    -0.290 OA
BRANCH  15  17
HETATM   17  C14 UNK     1       7.116   5.806   9.877  1.00  0.00     0.012 A 
HETATM   18  C17 UNK     1       7.107   7.177  10.001  1.00  0.00     0.016 A 
HETATM   19  C19 UNK     1       6.679   7.737  11.204  1.00  0.00     0.007 A 
HETATM   20  C16 UNK     1       6.271   6.911  12.252  1.00  0.00    -0.062 A 
HETATM   21  C20 UNK     1       6.292   5.525  12.095  1.00  0.00     0.007 A 
HETATM   22  C21 UNK     1       5.814   7.510  13.539  1.00  0.00     0.048 C 
HETATM   23  C18 UNK     1       6.721   4.965  10.892  1.00  0.00     0.016 A 
ENDBRANCH  15  17
ENDBRANCH  14  15
ENDBRANCH  13  14
ENDBRANCH  10  13
BRANCH   5  24
HETATM   24  C5  UNK     1      16.307   7.272  10.849  1.00  0.00     0.071 C 
BRANCH  24  25
HETATM   25  C13 UNK     1      17.294   7.972   9.976  1.00  0.00    -0.032 C 
HETATM   26  C22 UNK     1      17.320   9.299   9.800  1.00  0.00     0.007 C 
ENDBRANCH  24  25
ENDBRANCH   5  24
TORSDOF 6
ENDMDL
MODEL 5
REMARK VINA RESULT:      -8.3      8.219     14.686
REMARK  6 active torsions:
REMARK  status: ('A' for Active; 'I' for Inactive)
REMARK    1  A    between atoms: C12_16  and  O2_2 
REMARK    2  A    between atoms: C9_13  and  O2_2 
REMARK    3  A    between atoms: C3_7  and  C5_9 
REMARK    4  A    between atoms: C13_17  and  C5_9 
REMARK    5  A    between atoms: C12_16  and  C15_19 
REMARK    6  A    between atoms: C14_18  and  C15_19 
ROOT
HETATM    1  O1  UNK     1      20.915  -7.848  34.765  1.00  0.00    -0.274 OA
HETATM    2  O3  UNK     1      21.687  -9.818  33.946  1.00  0.00    -0.259 OA
HETATM    3  C1  UNK     1      20.857  -7.456  37.166  1.00  0.00     0.005 A 
HETATM    4  C2  UNK     1      21.431  -8.801  37.381  1.00  0.00    -0.036 A 
HETATM    5  C3  UNK     1      21.678  -9.594  36.317  1.00  0.00     0.028 A 
HETATM    6  C4  UNK     1      20.620  -7.026  35.863  1.00  0.00     0.092 A 
HETATM    7  C6  UNK     1      20.519  -6.573  38.203  1.00  0.00     0.017 A 
HETATM    8  C7  UNK     1      20.080  -5.771  35.572  1.00  0.00     0.075 A 
HETATM    9  C8  UNK     1      21.434  -9.122  34.923  1.00  0.00     0.295 A 
HETATM   10  C9  UNK     1      19.758  -4.910  36.614  1.00  0.00     0.072 A 
HETATM   11  C10 UNK     1      21.723  -9.197  38.807  1.00  0.00     0.050 C 
HETATM   12  C11 UNK     1      19.976  -5.311  37.929  1.00  0.00     0.038 A 
ENDROOT
BRANCH  10  13
HETATM   13  O2  UNK     1      19.231  -3.684  36.353  1.00  0.00    -0.344 OA
BRANCH  13  14
HETATM   14  C12 UNK     1      20.140  -2.651  35.974  1.00  0.00     0.259 C 
BRANCH  14  15
HETATM   15  C15 UNK     1      19.462  -1.684  35.022  1.00  0.00     0.183 C 
HETATM   16  O4  UNK     1      19.877  -1.507  33.880  1.00  0.00    -0.290 OA
BRANCH  15  17
HETATM   17  C14 UNK     1      18.262  -0.935  35.495  1.00  0.00     0.012 A 
HETATM   18  C17 UNK     1      17.223  -0.730  34.616  1.00  0.00     0.016 A 
HETATM   19  C19 UNK     1      16.100  -0.032  35.059  1.00  0.00     0.007 A 
HETATM   20  C16 UNK     1      16.046   0.445  36.369  1.00  0.00    -0.062 A 
HETATM   21  C20 UNK     1      17.117   0.221  37.236  1.00  0.00     0.007 A 
HETATM   22  C21 UNK     1      14.846   1.193  36.843  1.00  0.00     0.048 C 
HETATM   23  C18 UNK     1      18.239  -0.477  36.793  1.00  0.00     0.016 A 
ENDBRANCH  15  17
ENDBRANCH  14  15
ENDBRANCH  13  14
ENDBRANCH  10  13
BRANCH   5  24
HETATM   24  C5  UNK     1      22.201 -11.006  36.398  1.00  0.00     0.071 C 
BRANCH  24  25
HETATM   25  C13 UNK     1      23.655 -11.071  36.067  1.00  0.00    -0.032 C 
HETATM   26  C22 UNK     1      24.298 -12.207  35.770  1.00  0.00     0.007 C 
ENDBRANCH  24  25
ENDBRANCH   5  24
TORSDOF 6
ENDMDL
MODEL 6
REMARK VINA RESULT:      -8.2     21.669     24.077
REMARK  6 active torsions:
REMARK  status: ('A' for Active; 'I' for Inactive)
REMARK    1  A    between atoms: C12_16  and  O2_2 
REMARK    2  A    between atoms: C9_13  and  O2_2 
REMARK    3  A    between atoms: C3_7  and  C5_9 
REMARK    4  A    between atoms: C13_17  and  C5_9 
REMARK    5  A    between atoms: C12_16  and  C15_19 
REMARK    6  A    between atoms: C14_18  and  C15_19 
ROOT
HETATM    1  O1  UNK     1      12.559   8.350  10.022  1.00  0.00    -0.274 OA
HETATM    2  O3  UNK     1      13.815   9.681  11.364  1.00  0.00    -0.259 OA
HETATM    3  C1  UNK     1      13.488   6.290   9.121  1.00  0.00     0.005 A 
HETATM    4  C2  UNK     1      14.753   6.571   9.830  1.00  0.00    -0.036 A 
HETATM    5  C3  UNK     1      14.872   7.708  10.548  1.00  0.00     0.028 A 
HETATM    6  C4  UNK     1      12.433   7.189   9.243  1.00  0.00     0.092 A 
HETATM    7  C6  UNK     1      13.277   5.163   8.310  1.00  0.00     0.017 A 
HETATM    8  C7  UNK     1      11.204   6.999   8.606  1.00  0.00     0.075 A 
HETATM    9  C8  UNK     1      13.733   8.662  10.686  1.00  0.00     0.295 A 
HETATM   10  C9  UNK     1      11.016   5.874   7.813  1.00  0.00     0.072 A 
HETATM   11  C10 UNK     1      15.846   5.537   9.713  1.00  0.00     0.050 C 
HETATM   12  C11 UNK     1      12.052   4.956   7.663  1.00  0.00     0.038 A 
ENDROOT
BRANCH  10  13
HETATM   13  O2  UNK     1       9.827   5.670   7.184  1.00  0.00    -0.344 OA
BRANCH  13  14
HETATM   14  C12 UNK     1       8.711   6.435   7.635  1.00  0.00     0.259 C 
BRANCH  14  15
HETATM   15  C15 UNK     1       7.792   5.569   8.474  1.00  0.00     0.183 C 
HETATM   16  O4  UNK     1       7.466   4.440   8.116  1.00  0.00    -0.290 OA
BRANCH  15  17
HETATM   17  C14 UNK     1       7.274   6.111   9.764  1.00  0.00     0.012 A 
HETATM   18  C17 UNK     1       7.248   7.475   9.944  1.00  0.00     0.016 A 
HETATM   19  C19 UNK     1       6.762   7.982  11.148  1.00  0.00     0.007 A 
HETATM   20  C16 UNK     1       6.315   7.111  12.142  1.00  0.00    -0.062 A 
HETATM   21  C20 UNK     1       6.354   5.732  11.929  1.00  0.00     0.007 A 
HETATM   22  C21 UNK     1       5.796   7.652  13.432  1.00  0.00     0.048 C 
HETATM   23  C18 UNK     1       6.840   5.226  10.725  1.00  0.00     0.016 A 
ENDBRANCH  15  17
ENDBRANCH  14  15
ENDBRANCH  13  14
ENDBRANCH  10  13
BRANCH   5  24
HETATM   24  C5  UNK     1      16.123   8.147  11.267  1.00  0.00     0.071 C 
BRANCH  24  25
HETATM   25  C13 UNK     1      17.140   8.686  10.317  1.00  0.00    -0.032 C 
HETATM   26  C22 UNK     1      17.086   9.915   9.790  1.00  0.00     0.007 C 
ENDBRANCH  24  25
ENDBRANCH   5  24
TORSDOF 6
ENDMDL
MODEL 7
REMARK VINA RESULT:      -8.2      2.622      8.307
REMARK  6 active torsions:
REMARK  status: ('A' for Active; 'I' for Inactive)
REMARK    1  A    between atoms: C12_16  and  O2_2 
REMARK    2  A    between atoms: C9_13  and  O2_2 
REMARK    3  A    between atoms: C3_7  and  C5_9 
REMARK    4  A    between atoms: C13_17  and  C5_9 
REMARK    5  A    between atoms: C12_16  and  C15_19 
REMARK    6  A    between atoms: C14_18  and  C15_19 
ROOT
HETATM    1  O1  UNK     1      17.745   1.973  33.349  1.00  0.00    -0.274 OA
HETATM    2  O3  UNK     1      17.247   1.199  35.423  1.00  0.00    -0.259 OA
HETATM    3  C1  UNK     1      18.882   0.541  31.745  1.00  0.00     0.005 A 
HETATM    4  C2  UNK     1      18.891  -0.545  32.748  1.00  0.00    -0.036 A 
HETATM    5  C3  UNK     1      18.376  -0.318  33.975  1.00  0.00     0.028 A 
HETATM    6  C4  UNK     1      18.307   1.763  32.081  1.00  0.00     0.092 A 
HETATM    7  C6  UNK     1      19.433   0.424  30.459  1.00  0.00     0.017 A 
HETATM    8  C7  UNK     1      18.258   2.840  31.193  1.00  0.00     0.075 A 
HETATM    9  C8  UNK     1      17.749   0.991  34.324  1.00  0.00     0.295 A 
HETATM   10  C9  UNK     1      18.804   2.701  29.923  1.00  0.00     0.072 A 
HETATM   11  C10 UNK     1      19.472  -1.868  32.316  1.00  0.00     0.050 C 
HETATM   12  C11 UNK     1      19.393   1.494  29.556  1.00  0.00     0.038 A 
ENDROOT
BRANCH  10  13
HETATM   13  O2  UNK     1      18.767   3.738  29.043  1.00  0.00    -0.344 OA
BRANCH  13  14
HETATM   14  C12 UNK     1      18.234   4.974  29.516  1.00  0.00     0.259 C 
BRANCH  14  15
HETATM   15  C15 UNK     1      19.353   5.862  30.025  1.00  0.00     0.183 C 
HETATM   16  O4  UNK     1      20.318   6.150  29.322  1.00  0.00    -0.290 OA
BRANCH  15  17
HETATM   17  C14 UNK     1      19.271   6.393  31.417  1.00  0.00     0.012 A 
HETATM   18  C17 UNK     1      20.379   6.296  32.227  1.00  0.00     0.016 A 
HETATM   19  C19 UNK     1      20.302   6.795  33.527  1.00  0.00     0.007 A 
HETATM   20  C16 UNK     1      19.119   7.377  33.983  1.00  0.00    -0.062 A 
HETATM   21  C20 UNK     1      18.013   7.460  33.137  1.00  0.00     0.007 A 
HETATM   22  C21 UNK     1      19.036   7.910  35.373  1.00  0.00     0.048 C 
HETATM   23  C18 UNK     1      18.089   6.961  31.837  1.00  0.00     0.016 A 
ENDBRANCH  15  17
ENDBRANCH  14  15
ENDBRANCH  13  14
ENDBRANCH  10  13
BRANCH   5  24
HETATM   24  C5  UNK     1      18.378  -1.313  35.108  1.00  0.00     0.071 C 
BRANCH  24  25
HETATM   25  C13 UNK     1      19.699  -1.353  35.801  1.00  0.00    -0.032 C 
HETATM   26  C22 UNK     1      20.257  -2.475  36.271  1.00  0.00     0.007 C 
ENDBRANCH  24  25
ENDBRANCH   5  24
TORSDOF 6
ENDMDL
MODEL 8
REMARK VINA RESULT:      -8.2     16.274     18.312
REMARK  6 active torsions:
REMARK  status: ('A' for Active; 'I' for Inactive)
REMARK    1  A    between atoms: C12_16  and  O2_2 
REMARK    2  A    between atoms: C9_13  and  O2_2 
REMARK    3  A    between atoms: C3_7  and  C5_9 
REMARK    4  A    between atoms: C13_17  and  C5_9 
REMARK    5  A    between atoms: C12_16  and  C15_19 
REMARK    6  A    between atoms: C14_18  and  C15_19 
ROOT
HETATM    1  O1  UNK     1      32.348  -7.014  37.692  1.00  0.00    -0.274 OA
HETATM    2  O3  UNK     1      34.390  -7.402  36.781  1.00  0.00    -0.259 OA
HETATM    3  C1  UNK     1      31.309  -4.824  37.489  1.00  0.00     0.005 A 
HETATM    4  C2  UNK     1      32.482  -4.359  36.720  1.00  0.00    -0.036 A 
HETATM    5  C3  UNK     1      33.515  -5.203  36.511  1.00  0.00     0.028 A 
HETATM    6  C4  UNK     1      31.283  -6.138  37.947  1.00  0.00     0.092 A 
HETATM    7  C6  UNK     1      30.206  -4.014  37.802  1.00  0.00     0.017 A 
HETATM    8  C7  UNK     1      30.213  -6.657  38.680  1.00  0.00     0.075 A 
HETATM    9  C8  UNK     1      33.474  -6.614  36.994  1.00  0.00     0.295 A 
HETATM   10  C9  UNK     1      29.128  -5.840  38.974  1.00  0.00     0.072 A 
HETATM   11  C10 UNK     1      32.437  -2.945  36.195  1.00  0.00     0.050 C 
HETATM   12  C11 UNK     1      29.125  -4.518  38.537  1.00  0.00     0.038 A 
ENDROOT
BRANCH  10  13
HETATM   13  O2  UNK     1      28.077  -6.325  39.688  1.00  0.00    -0.344 OA
BRANCH  13  14
HETATM   14  C12 UNK     1      27.651  -7.656  39.396  1.00  0.00     0.259 C 
BRANCH  14  15
HETATM   15  C15 UNK     1      26.773  -7.661  38.160  1.00  0.00     0.183 C 
HETATM   16  O4  UNK     1      25.590  -7.335  38.208  1.00  0.00    -0.290 OA
BRANCH  15  17
HETATM   17  C14 UNK     1      27.370  -8.076  36.858  1.00  0.00     0.012 A 
HETATM   18  C17 UNK     1      27.449  -9.419  36.565  1.00  0.00     0.016 A 
HETATM   19  C19 UNK     1      28.005  -9.807  35.347  1.00  0.00     0.007 A 
HETATM   20  C16 UNK     1      28.467  -8.841  34.452  1.00  0.00    -0.062 A 
HETATM   21  C20 UNK     1      28.373  -7.488  34.778  1.00  0.00     0.007 A 
HETATM   22  C21 UNK     1      29.063  -9.255  33.149  1.00  0.00     0.048 C 
HETATM   23  C18 UNK     1      27.818  -7.100  35.997  1.00  0.00     0.016 A 
ENDBRANCH  15  17
ENDBRANCH  14  15
ENDBRANCH  13  14
ENDBRANCH  10  13
BRANCH   5  24
HETATM   24  C5  UNK     1      34.794  -4.840  35.801  1.00  0.00     0.071 C 
BRANCH  24  25
HETATM   25  C13 UNK     1      34.670  -5.014  34.324  1.00  0.00    -0.032 C 
HETATM   26  C22 UNK     1      35.216  -6.032  33.648  1.00  0.00     0.007 C 
ENDBRANCH  24  25
ENDBRANCH   5  24
TORSDOF 6
ENDMDL
MODEL 9
REMARK VINA RESULT:      -8.2      7.604     13.814
REMARK  6 active torsions:
REMARK  status: ('A' for Active; 'I' for Inactive)
REMARK    1  A    between atoms: C12_16  and  O2_2 
REMARK    2  A    between atoms: C9_13  and  O2_2 
REMARK    3  A    between atoms: C3_7  and  C5_9 
REMARK    4  A    between atoms: C13_17  and  C5_9 
REMARK    5  A    between atoms: C12_16  and  C15_19 
REMARK    6  A    between atoms: C14_18  and  C15_19 
ROOT
HETATM    1  O1  UNK     1      22.026  -6.559  37.264  1.00  0.00    -0.274 OA
HETATM    2  O3  UNK     1      23.401  -8.348  37.509  1.00  0.00    -0.259 OA
HETATM    3  C1  UNK     1      19.639  -6.884  36.921  1.00  0.00     0.005 A 
HETATM    4  C2  UNK     1      19.845  -8.346  37.000  1.00  0.00    -0.036 A 
HETATM    5  C3  UNK     1      21.094  -8.831  37.165  1.00  0.00     0.028 A 
HETATM    6  C4  UNK     1      20.738  -6.042  37.058  1.00  0.00     0.092 A 
HETATM    7  C6  UNK     1      18.391  -6.279  36.704  1.00  0.00     0.017 A 
HETATM    8  C7  UNK     1      20.631  -4.650  36.996  1.00  0.00     0.075 A 
HETATM    9  C8  UNK     1      22.266  -7.922  37.324  1.00  0.00     0.295 A 
HETATM   10  C9  UNK     1      19.385  -4.072  36.786  1.00  0.00     0.072 A 
HETATM   11  C10 UNK     1      18.615  -9.214  36.905  1.00  0.00     0.050 C 
HETATM   12  C11 UNK     1      18.266  -4.885  36.639  1.00  0.00     0.038 A 
ENDROOT
BRANCH  10  13
HETATM   13  O2  UNK     1      19.259  -2.719  36.722  1.00  0.00    -0.344 OA
BRANCH  13  14
HETATM   14  C12 UNK     1      19.968  -2.048  35.682  1.00  0.00     0.259 C 
BRANCH  14  15
HETATM   15  C15 UNK     1      18.992  -1.458  34.683  1.00  0.00     0.183 C 
HETATM   16  O4  UNK     1      17.863  -1.105  35.015  1.00  0.00    -0.290 OA
BRANCH  15  17
HETATM   17  C14 UNK     1      19.422  -1.308  33.262  1.00  0.00     0.012 A 
HETATM   18  C17 UNK     1      20.249  -2.264  32.718  1.00  0.00     0.016 A 
HETATM   19  C19 UNK     1      20.649  -2.125  31.390  1.00  0.00     0.007 A 
HETATM   20  C16 UNK     1      20.213  -1.033  30.640  1.00  0.00    -0.062 A 
HETATM   21  C20 UNK     1      19.375  -0.080  31.221  1.00  0.00     0.007 A 
HETATM   22  C21 UNK     1      20.642  -0.883  29.220  1.00  0.00     0.048 C 
HETATM   23  C18 UNK     1      18.975  -0.219  32.549  1.00  0.00     0.016 A 
ENDBRANCH  15  17
ENDBRANCH  14  15
ENDBRANCH  13  14
ENDBRANCH  10  13
BRANCH   5  24
HETATM   24  C5  UNK     1      21.452 -10.295  37.198  1.00  0.00     0.071 C 
BRANCH  24  25
HETATM   25  C13 UNK     1      21.875 -10.788  35.854  1.00  0.00    -0.032 C 
HETATM   26  C22 UNK     1      23.019 -11.444  35.630  1.00  0.00     0.007 C 
ENDBRANCH  24  25
ENDBRANCH   5  24
TORSDOF 6
ENDMDL
MODEL 10
REMARK VINA RESULT:      -8.1     21.640     24.293
REMARK  6 active torsions:
REMARK  status: ('A' for Active; 'I' for Inactive)
REMARK    1  A    between atoms: C12_16  and  O2_2 
REMARK    2  A    between atoms: C9_13  and  O2_2 
REMARK    3  A    between atoms: C3_7  and  C5_9 
REMARK    4  A    between atoms: C13_17  and  C5_9 
REMARK    5  A    between atoms: C12_16  and  C15_19 
REMARK    6  A    between atoms: C14_18  and  C15_19 
ROOT
HETATM    1  O1  UNK     1      11.103   5.059   9.971  1.00  0.00    -0.274 OA
HETATM    2  O3  UNK     1       8.948   4.830  10.644  1.00  0.00    -0.259 OA
HETATM    3  C1  UNK     1      11.613   6.015   7.793  1.00  0.00     0.005 A 
HETATM    4  C2  UNK     1      10.166   6.187   7.549  1.00  0.00    -0.036 A 
HETATM    5  C3  UNK     1       9.282   5.768   8.480  1.00  0.00     0.028 A 
HETATM    6  C4  UNK     1      12.031   5.458   8.997  1.00  0.00     0.092 A 
HETATM    7  C6  UNK     1      12.611   6.373   6.872  1.00  0.00     0.017 A 
HETATM    8  C7  UNK     1      13.379   5.260   9.307  1.00  0.00     0.075 A 
HETATM    9  C8  UNK     1       9.738   5.183   9.775  1.00  0.00     0.295 A 
HETATM   10  C9  UNK     1      14.351   5.627   8.383  1.00  0.00     0.072 A 
HETATM   11  C10 UNK     1       9.766   6.850   6.254  1.00  0.00     0.050 C 
HETATM   12  C11 UNK     1      13.967   6.181   7.166  1.00  0.00     0.038 A 
ENDROOT
BRANCH  10  13
HETATM   13  O2  UNK     1      15.669   5.443   8.665  1.00  0.00    -0.344 OA
BRANCH  13  14
HETATM   14  C12 UNK     1      16.097   5.730   9.995  1.00  0.00     0.259 C 
BRANCH  14  15
HETATM   15  C15 UNK     1      16.676   7.130  10.065  1.00  0.00     0.183 C 
HETATM   16  O4  UNK     1      17.868   7.345   9.864  1.00  0.00    -0.290 OA
BRANCH  15  17
HETATM   17  C14 UNK     1      15.766   8.267  10.386  1.00  0.00     0.012 A 
HETATM   18  C17 UNK     1      15.315   9.063   9.358  1.00  0.00     0.016 A 
HETATM   19  C19 UNK     1      14.462  10.125   9.658  1.00  0.00     0.007 A 
HETATM   20  C16 UNK     1      14.083  10.363  10.979  1.00  0.00    -0.062 A 
HETATM   21  C20 UNK     1      14.558   9.539  12.000  1.00  0.00     0.007 A 
HETATM   22  C21 UNK     1      13.172  11.500  11.301  1.00  0.00     0.048 C 
HETATM   23  C18 UNK     1      15.410   8.477  11.699  1.00  0.00     0.016 A 
ENDBRANCH  15  17
ENDBRANCH  14  15
ENDBRANCH  13  14
ENDBRANCH  10  13
BRANCH   5  24
HETATM   24  C5  UNK     1       7.783   5.825   8.333  1.00  0.00     0.071 C 
BRANCH  24  25
HETATM   25  C13 UNK     1       7.246   7.167   8.703  1.00  0.00    -0.032 C 
HETATM   26  C22 UNK     1       6.637   7.429   9.866  1.00  0.00     0.007 C 
ENDBRANCH  24  25
ENDBRANCH   5  24
TORSDOF 6
ENDMDL
