MODEL 1
REMARK VINA RESULT:      -8.8      0.000      0.000
REMARK  2 active torsions:
REMARK  status: ('A' for Active; 'I' for Inactive)
REMARK    1  A    between atoms: C9_14  and  N1_4 
REMARK    2  A    between atoms: C1_6  and  C3_8 
ROOT
HETATM    1  O1  UNK     1      30.662  -6.296  35.288  1.00  0.00    -0.291 OA
HETATM    2  O2  UNK     1      28.081  -9.443  36.255  1.00  0.00    -0.274 OA
HETATM    3  O3  UNK     1      28.465 -10.388  34.216  1.00  0.00    -0.259 OA
HETATM    4  N2  UNK     1      32.802  -7.230  31.076  1.00  0.00    -0.191 NA
HETATM    5  C1  UNK     1      30.177  -8.280  33.263  1.00  0.00     0.109 C 
HETATM    6  C2  UNK     1      29.553  -8.319  34.650  1.00  0.00     0.066 A 
HETATM    7  C4  UNK     1      29.810  -7.354  35.546  1.00  0.00     0.104 A 
HETATM    8  C5  UNK     1      31.270  -7.215  33.166  1.00  0.00     0.086 C 
HETATM    9  C7  UNK     1      29.188  -7.364  36.867  1.00  0.00     0.033 A 
HETATM   10  C9  UNK     1      31.452  -6.293  34.140  1.00  0.00     0.159 C 
HETATM   11  C11 UNK     1      28.671  -9.464  34.996  1.00  0.00     0.298 A 
HETATM   12  C12 UNK     1      28.330  -8.414  37.183  1.00  0.00     0.092 A 
HETATM   13  C16 UNK     1      29.402  -6.374  37.833  1.00  0.00     0.017 A 
HETATM   14  C18 UNK     1      27.689  -8.503  38.418  1.00  0.00     0.038 A 
HETATM   15  C20 UNK     1      32.116  -7.223  32.011  1.00  0.00     0.100 C 
HETATM   16  C22 UNK     1      28.767  -6.448  39.077  1.00  0.00     0.001 A 
HETATM   17  C23 UNK     1      27.912  -7.511  39.368  1.00  0.00     0.003 A 
ENDROOT
BRANCH   5  18
HETATM   18  C3  UNK     1      29.126  -8.044  32.218  1.00  0.00    -0.033 A 
HETATM   19  C6  UNK     1      29.033  -8.840  31.068  1.00  0.00    -0.019 A 
HETATM   20  C10 UNK     1      28.019  -8.567  30.119  1.00  0.00    -0.025 A 
HETATM   21  C13 UNK     1      29.921  -9.904  30.835  1.00  0.00     0.013 A 
HETATM   22  C15 UNK     1      27.130  -7.504  30.351  1.00  0.00     0.012 A 
HETATM   23  C17 UNK     1      27.923  -9.364  28.966  1.00  0.00     0.012 A 
HETATM   24  C14 UNK     1      27.240  -6.723  31.502  1.00  0.00     0.001 A 
HETATM   25  C8  UNK     1      28.238  -6.993  32.435  1.00  0.00     0.009 A 
HETATM   26  C21 UNK     1      28.815 -10.415  28.752  1.00  0.00     0.001 A 
HETATM   27  C19 UNK     1      29.811 -10.685  29.684  1.00  0.00     0.001 A 
ENDBRANCH   5  18
BRANCH  10  28
HETATM   28  N1  UNK     1      32.389  -5.298  34.120  1.00  0.00    -0.379 N 
HETATM   29  H11 UNK     1      32.606  -4.850  33.240  1.00  0.00     0.158 HD
HETATM   30  H12 UNK     1      32.863  -5.013  34.967  1.00  0.00     0.158 HD
ENDBRANCH  10  28
TORSDOF 2
ENDMDL
MODEL 2
REMARK VINA RESULT:      -8.8      2.861      4.019
REMARK  2 active torsions:
REMARK  status: ('A' for Active; 'I' for Inactive)
REMARK    1  A    between atoms: C9_14  and  N1_4 
REMARK    2  A    between atoms: C1_6  and  C3_8 
ROOT
HETATM    1  O1  UNK     1      30.546  -5.184  37.019  1.00  0.00    -0.291 OA
HETATM    2  O2  UNK     1      30.715  -9.362  37.158  1.00  0.00    -0.274 OA
HETATM    3  O3  UNK     1      32.522  -9.338  35.768  1.00  0.00    -0.259 OA
HETATM    4  N2  UNK     1      34.374  -3.517  34.617  1.00  0.00    -0.191 NA
HETATM    5  C1  UNK     1      32.542  -6.483  35.405  1.00  0.00     0.109 C 
HETATM    6  C2  UNK     1      31.561  -7.229  36.297  1.00  0.00     0.066 A 
HETATM    7  C4  UNK     1      30.643  -6.563  37.015  1.00  0.00     0.104 A 
HETATM    8  C5  UNK     1      32.504  -4.976  35.661  1.00  0.00     0.086 C 
HETATM    9  C7  UNK     1      29.675  -7.273  37.847  1.00  0.00     0.033 A 
HETATM   10  C9  UNK     1      31.536  -4.409  36.418  1.00  0.00     0.159 C 
HETATM   11  C11 UNK     1      31.658  -8.710  36.370  1.00  0.00     0.298 A 
HETATM   12  C12 UNK     1      29.736  -8.663  37.890  1.00  0.00     0.092 A 
HETATM   13  C16 UNK     1      28.685  -6.633  38.601  1.00  0.00     0.017 A 
HETATM   14  C18 UNK     1      28.849  -9.422  38.653  1.00  0.00     0.038 A 
HETATM   15  C20 UNK     1      33.537  -4.169  35.083  1.00  0.00     0.100 C 
HETATM   16  C22 UNK     1      27.787  -7.379  39.371  1.00  0.00     0.001 A 
HETATM   17  C23 UNK     1      27.870  -8.771  39.396  1.00  0.00     0.003 A 
ENDROOT
BRANCH   5  18
HETATM   18  C3  UNK     1      32.264  -6.772  33.959  1.00  0.00    -0.033 A 
HETATM   19  C6  UNK     1      33.270  -7.212  33.085  1.00  0.00    -0.019 A 
HETATM   20  C10 UNK     1      32.944  -7.468  31.732  1.00  0.00    -0.025 A 
HETATM   21  C13 UNK     1      34.591  -7.405  33.521  1.00  0.00     0.013 A 
HETATM   22  C15 UNK     1      31.623  -7.275  31.295  1.00  0.00     0.012 A 
HETATM   23  C17 UNK     1      33.949  -7.909  30.854  1.00  0.00     0.012 A 
HETATM   24  C14 UNK     1      30.638  -6.837  32.179  1.00  0.00     0.001 A 
HETATM   25  C8  UNK     1      30.958  -6.585  33.510  1.00  0.00     0.009 A 
HETATM   26  C21 UNK     1      35.256  -8.095  31.306  1.00  0.00     0.001 A 
HETATM   27  C19 UNK     1      35.576  -7.844  32.636  1.00  0.00     0.001 A 
ENDBRANCH   5  18
BRANCH  10  28
HETATM   28  N1  UNK     1      31.420  -3.071  36.677  1.00  0.00    -0.379 N 
HETATM   29  H11 UNK     1      30.600  -2.580  36.348  1.00  0.00     0.158 HD
HETATM   30  H12 UNK     1      32.140  -2.575  37.187  1.00  0.00     0.158 HD
ENDBRANCH  10  28
TORSDOF 2
ENDMDL
MODEL 3
REMARK VINA RESULT:      -8.6      1.783      2.147
REMARK  2 active torsions:
REMARK  status: ('A' for Active; 'I' for Inactive)
REMARK    1  A    between atoms: C9_14  and  N1_4 
REMARK    2  A    between atoms: C1_6  and  C3_8 
ROOT
HETATM    1  O1  UNK     1      32.273  -5.152  35.535  1.00  0.00    -0.291 OA
HETATM    2  O2  UNK     1      28.660  -7.099  36.348  1.00  0.00    -0.274 OA
HETATM    3  O3  UNK     1      28.961  -8.427  34.520  1.00  0.00    -0.259 OA
HETATM    4  N2  UNK     1      34.497  -7.383  31.892  1.00  0.00    -0.191 NA
HETATM    5  C1  UNK     1      31.406  -7.165  33.673  1.00  0.00     0.109 C 
HETATM    6  C2  UNK     1      30.629  -6.781  34.924  1.00  0.00     0.066 A 
HETATM    7  C4  UNK     1      31.082  -5.822  35.745  1.00  0.00     0.104 A 
HETATM    8  C5  UNK     1      32.802  -6.541  33.662  1.00  0.00     0.086 C 
HETATM    9  C7  UNK     1      30.325  -5.422  36.928  1.00  0.00     0.033 A 
HETATM   10  C9  UNK     1      33.160  -5.587  34.552  1.00  0.00     0.159 C 
HETATM   11  C11 UNK     1      29.368  -7.509  35.224  1.00  0.00     0.298 A 
HETATM   12  C12 UNK     1      29.124  -6.073  37.194  1.00  0.00     0.092 A 
HETATM   13  C16 UNK     1      30.738  -4.415  37.809  1.00  0.00     0.017 A 
HETATM   14  C18 UNK     1      28.335  -5.753  38.298  1.00  0.00     0.038 A 
HETATM   15  C20 UNK     1      33.738  -7.006  32.683  1.00  0.00     0.100 C 
HETATM   16  C22 UNK     1      29.958  -4.082  38.921  1.00  0.00     0.001 A 
HETATM   17  C23 UNK     1      28.758  -4.749  39.164  1.00  0.00     0.003 A 
ENDROOT
BRANCH   5  18
HETATM   18  C3  UNK     1      30.650  -6.770  32.439  1.00  0.00    -0.033 A 
HETATM   19  C6  UNK     1      30.350  -7.692  31.426  1.00  0.00    -0.019 A 
HETATM   20  C10 UNK     1      29.633  -7.257  30.286  1.00  0.00    -0.025 A 
HETATM   21  C13 UNK     1      30.744  -9.037  31.515  1.00  0.00     0.013 A 
HETATM   22  C15 UNK     1      29.238  -5.912  30.196  1.00  0.00     0.012 A 
HETATM   23  C17 UNK     1      29.331  -8.179  29.269  1.00  0.00     0.012 A 
HETATM   24  C14 UNK     1      29.546  -5.010  31.215  1.00  0.00     0.001 A 
HETATM   25  C8  UNK     1      30.251  -5.439  32.335  1.00  0.00     0.009 A 
HETATM   26  C21 UNK     1      29.732  -9.511  29.376  1.00  0.00     0.001 A 
HETATM   27  C19 UNK     1      30.437  -9.939  30.497  1.00  0.00     0.001 A 
ENDBRANCH   5  18
BRANCH  10  28
HETATM   28  N1  UNK     1      34.377  -4.965  34.596  1.00  0.00    -0.379 N 
HETATM   29  H11 UNK     1      34.552  -4.287  35.325  1.00  0.00     0.158 HD
HETATM   30  H12 UNK     1      35.093  -5.175  33.911  1.00  0.00     0.158 HD
ENDBRANCH  10  28
TORSDOF 2
ENDMDL
MODEL 4
REMARK VINA RESULT:      -8.3      2.414      2.782
REMARK  2 active torsions:
REMARK  status: ('A' for Active; 'I' for Inactive)
REMARK    1  A    between atoms: C9_14  and  N1_4 
REMARK    2  A    between atoms: C1_6  and  C3_8 
ROOT
HETATM    1  O1  UNK     1      30.644  -5.858  37.112  1.00  0.00    -0.291 OA
HETATM    2  O2  UNK     1      29.046  -9.543  35.943  1.00  0.00    -0.274 OA
HETATM    3  O3  UNK     1      30.396  -9.549  34.106  1.00  0.00    -0.259 OA
HETATM    4  N2  UNK     1      34.291  -4.705  34.186  1.00  0.00    -0.191 NA
HETATM    5  C1  UNK     1      31.557  -6.966  34.620  1.00  0.00     0.109 C 
HETATM    6  C2  UNK     1      30.539  -7.645  35.524  1.00  0.00     0.066 A 
HETATM    7  C4  UNK     1      30.144  -7.068  36.668  1.00  0.00     0.104 A 
HETATM    8  C5  UNK     1      32.212  -5.767  35.309  1.00  0.00     0.086 C 
HETATM    9  C7  UNK     1      29.141  -7.696  37.524  1.00  0.00     0.033 A 
HETATM   10  C9  UNK     1      31.737  -5.273  36.476  1.00  0.00     0.159 C 
HETATM   11  C11 UNK     1      30.010  -8.974  35.118  1.00  0.00     0.298 A 
HETATM   12  C12 UNK     1      28.613  -8.923  37.130  1.00  0.00     0.092 A 
HETATM   13  C16 UNK     1      28.677  -7.131  38.717  1.00  0.00     0.017 A 
HETATM   14  C18 UNK     1      27.649  -9.592  37.883  1.00  0.00     0.038 A 
HETATM   15  C20 UNK     1      33.360  -5.180  34.688  1.00  0.00     0.100 C 
HETATM   16  C22 UNK     1      27.709  -7.790  39.484  1.00  0.00     0.001 A 
HETATM   17  C23 UNK     1      27.196  -9.017  39.066  1.00  0.00     0.003 A 
ENDROOT
BRANCH   5  18
HETATM   18  C3  UNK     1      30.918  -6.540  33.331  1.00  0.00    -0.033 A 
HETATM   19  C6  UNK     1      31.491  -6.836  32.086  1.00  0.00    -0.019 A 
HETATM   20  C10 UNK     1      30.839  -6.407  30.906  1.00  0.00    -0.025 A 
HETATM   21  C13 UNK     1      32.696  -7.550  31.982  1.00  0.00     0.013 A 
HETATM   22  C15 UNK     1      29.633  -5.694  31.009  1.00  0.00     0.012 A 
HETATM   23  C17 UNK     1      31.411  -6.703  29.657  1.00  0.00     0.012 A 
HETATM   24  C14 UNK     1      29.079  -5.409  32.257  1.00  0.00     0.001 A 
HETATM   25  C8  UNK     1      29.721  -5.831  33.417  1.00  0.00     0.009 A 
HETATM   26  C21 UNK     1      32.609  -7.412  29.574  1.00  0.00     0.001 A 
HETATM   27  C19 UNK     1      33.251  -7.835  30.734  1.00  0.00     0.001 A 
ENDBRANCH   5  18
BRANCH  10  28
HETATM   28  N1  UNK     1      32.250  -4.196  37.143  1.00  0.00    -0.379 N 
HETATM   29  H11 UNK     1      33.138  -4.293  37.617  1.00  0.00     0.158 HD
HETATM   30  H12 UNK     1      31.753  -3.315  37.168  1.00  0.00     0.158 HD
ENDBRANCH  10  28
TORSDOF 2
ENDMDL
MODEL 5
REMARK VINA RESULT:      -8.3      2.010      6.710
REMARK  2 active torsions:
REMARK  status: ('A' for Active; 'I' for Inactive)
REMARK    1  A    between atoms: C9_14  and  N1_4 
REMARK    2  A    between atoms: C1_6  and  C3_8 
ROOT
HETATM    1  O1  UNK     1      31.917  -9.520  33.100  1.00  0.00    -0.291 OA
HETATM    2  O2  UNK     1      28.580  -7.266  31.967  1.00  0.00    -0.274 OA
HETATM    3  O3  UNK     1      28.880  -5.908  33.772  1.00  0.00    -0.259 OA
HETATM    4  N2  UNK     1      34.088  -7.382  36.830  1.00  0.00    -0.191 NA
HETATM    5  C1  UNK     1      31.123  -7.366  34.833  1.00  0.00     0.109 C 
HETATM    6  C2  UNK     1      30.403  -7.719  33.541  1.00  0.00     0.066 A 
HETATM    7  C4  UNK     1      30.816  -8.747  32.783  1.00  0.00     0.104 A 
HETATM    8  C5  UNK     1      32.448  -8.120  34.965  1.00  0.00     0.086 C 
HETATM    9  C7  UNK     1      30.109  -9.115  31.560  1.00  0.00     0.033 A 
HETATM   10  C9  UNK     1      32.771  -9.136  34.132  1.00  0.00     0.159 C 
HETATM   11  C11 UNK     1      29.244  -6.886  33.128  1.00  0.00     0.298 A 
HETATM   12  C12 UNK     1      28.999  -8.361  31.187  1.00  0.00     0.092 A 
HETATM   13  C16 UNK     1      30.482 -10.188  30.742  1.00  0.00     0.017 A 
HETATM   14  C18 UNK     1      28.261  -8.644  30.039  1.00  0.00     0.038 A 
HETATM   15  C20 UNK     1      33.354  -7.713  35.996  1.00  0.00     0.100 C 
HETATM   16  C22 UNK     1      29.752 -10.485  29.586  1.00  0.00     0.001 A 
HETATM   17  C23 UNK     1      28.644  -9.714  29.235  1.00  0.00     0.003 A 
ENDROOT
BRANCH   5  18
HETATM   18  C3  UNK     1      30.247  -7.643  36.019  1.00  0.00    -0.033 A 
HETATM   19  C6  UNK     1      29.953  -6.654  36.970  1.00  0.00    -0.019 A 
HETATM   20  C10 UNK     1      29.119  -6.978  38.067  1.00  0.00    -0.025 A 
HETATM   21  C13 UNK     1      30.465  -5.351  36.859  1.00  0.00     0.013 A 
HETATM   22  C15 UNK     1      28.606  -8.280  38.178  1.00  0.00     0.012 A 
HETATM   23  C17 UNK     1      28.823  -5.989  39.020  1.00  0.00     0.012 A 
HETATM   24  C14 UNK     1      28.910  -9.249  37.222  1.00  0.00     0.001 A 
HETATM   25  C8  UNK     1      29.731  -8.931  36.143  1.00  0.00     0.009 A 
HETATM   26  C21 UNK     1      29.342  -4.700  38.893  1.00  0.00     0.001 A 
HETATM   27  C19 UNK     1      30.161  -4.382  37.815  1.00  0.00     0.001 A 
ENDBRANCH   5  18
BRANCH  10  28
HETATM   28  N1  UNK     1      33.922  -9.873  34.196  1.00  0.00    -0.379 N 
HETATM   29  H11 UNK     1      34.724  -9.571  33.660  1.00  0.00     0.158 HD
HETATM   30  H12 UNK     1      33.974 -10.707  34.766  1.00  0.00     0.158 HD
ENDBRANCH  10  28
TORSDOF 2
ENDMDL
MODEL 6
REMARK VINA RESULT:      -8.3      3.127      3.737
REMARK  2 active torsions:
REMARK  status: ('A' for Active; 'I' for Inactive)
REMARK    1  A    between atoms: C9_14  and  N1_4 
REMARK    2  A    between atoms: C1_6  and  C3_8 
ROOT
HETATM    1  O1  UNK     1      34.656  -6.744  33.164  1.00  0.00    -0.291 OA
HETATM    2  O2  UNK     1      31.986  -9.219  35.225  1.00  0.00    -0.274 OA
HETATM    3  O3  UNK     1      31.356 -10.182  33.257  1.00  0.00    -0.259 OA
HETATM    4  N2  UNK     1      34.795  -8.060  28.533  1.00  0.00    -0.191 NA
HETATM    5  C1  UNK     1      33.015  -8.513  31.600  1.00  0.00     0.109 C 
HETATM    6  C2  UNK     1      32.964  -8.436  33.118  1.00  0.00     0.066 A 
HETATM    7  C4  UNK     1      33.747  -7.578  33.789  1.00  0.00     0.104 A 
HETATM    8  C5  UNK     1      34.203  -7.732  31.035  1.00  0.00     0.086 C 
HETATM    9  C7  UNK     1      33.680  -7.472  35.243  1.00  0.00     0.033 A 
HETATM   10  C9  UNK     1      34.938  -6.901  31.809  1.00  0.00     0.159 C 
HETATM   11  C11 UNK     1      32.041  -9.350  33.841  1.00  0.00     0.298 A 
HETATM   12  C12 UNK     1      32.789  -8.298  35.924  1.00  0.00     0.092 A 
HETATM   13  C16 UNK     1      34.457  -6.582  35.993  1.00  0.00     0.017 A 
HETATM   14  C18 UNK     1      32.655  -8.262  37.311  1.00  0.00     0.038 A 
HETATM   15  C20 UNK     1      34.529  -7.913  29.652  1.00  0.00     0.100 C 
HETATM   16  C22 UNK     1      34.335  -6.533  37.386  1.00  0.00     0.001 A 
HETATM   17  C23 UNK     1      33.435  -7.371  38.043  1.00  0.00     0.003 A 
ENDROOT
BRANCH   5  18
HETATM   18  C3  UNK     1      31.732  -8.014  31.002  1.00  0.00    -0.033 A 
HETATM   19  C6  UNK     1      30.948  -8.812  30.156  1.00  0.00    -0.019 A 
HETATM   20  C10 UNK     1      29.748  -8.283  29.625  1.00  0.00    -0.025 A 
HETATM   21  C13 UNK     1      31.325 -10.124  29.825  1.00  0.00     0.013 A 
HETATM   22  C15 UNK     1      29.370  -6.972  29.956  1.00  0.00     0.012 A 
HETATM   23  C17 UNK     1      28.961  -9.081  28.778  1.00  0.00     0.012 A 
HETATM   24  C14 UNK     1      30.164  -6.194  30.799  1.00  0.00     0.001 A 
HETATM   25  C8  UNK     1      31.344  -6.714  31.322  1.00  0.00     0.009 A 
HETATM   26  C21 UNK     1      29.353 -10.382  28.459  1.00  0.00     0.001 A 
HETATM   27  C19 UNK     1      30.532 -10.902  28.982  1.00  0.00     0.001 A 
ENDBRANCH   5  18
BRANCH  10  28
HETATM   28  N1  UNK     1      35.998  -6.154  31.377  1.00  0.00    -0.379 N 
HETATM   29  H11 UNK     1      36.914  -6.336  31.766  1.00  0.00     0.158 HD
HETATM   30  H12 UNK     1      35.874  -5.427  30.683  1.00  0.00     0.158 HD
ENDBRANCH  10  28
TORSDOF 2
ENDMDL
MODEL 7
REMARK VINA RESULT:      -8.3      1.832      6.622
REMARK  2 active torsions:
REMARK  status: ('A' for Active; 'I' for Inactive)
REMARK    1  A    between atoms: C9_14  and  N1_4 
REMARK    2  A    between atoms: C1_6  and  C3_8 
ROOT
HETATM    1  O1  UNK     1      32.111  -8.046  31.581  1.00  0.00    -0.291 OA
HETATM    2  O2  UNK     1      27.952  -7.650  31.801  1.00  0.00    -0.274 OA
HETATM    3  O3  UNK     1      28.168  -6.419  33.708  1.00  0.00    -0.259 OA
HETATM    4  N2  UNK     1      34.151  -5.329  34.994  1.00  0.00    -0.191 NA
HETATM    5  C1  UNK     1      31.033  -6.653  33.854  1.00  0.00     0.109 C 
HETATM    6  C2  UNK     1      30.178  -7.242  32.741  1.00  0.00     0.066 A 
HETATM    7  C4  UNK     1      30.743  -7.893  31.714  1.00  0.00     0.104 A 
HETATM    8  C5  UNK     1      32.519  -6.671  33.494  1.00  0.00     0.086 C 
HETATM    9  C7  UNK     1      29.929  -8.492  30.660  1.00  0.00     0.033 A 
HETATM   10  C9  UNK     1      32.981  -7.352  32.420  1.00  0.00     0.159 C 
HETATM   11  C11 UNK     1      28.705  -7.059  32.810  1.00  0.00     0.298 A 
HETATM   12  C12 UNK     1      28.546  -8.357  30.738  1.00  0.00     0.092 A 
HETATM   13  C16 UNK     1      30.462  -9.200  29.576  1.00  0.00     0.017 A 
HETATM   14  C18 UNK     1      27.692  -8.900  29.780  1.00  0.00     0.038 A 
HETATM   15  C20 UNK     1      33.421  -5.930  34.323  1.00  0.00     0.100 C 
HETATM   16  C22 UNK     1      29.619  -9.751  28.606  1.00  0.00     0.001 A 
HETATM   17  C23 UNK     1      28.236  -9.602  28.708  1.00  0.00     0.003 A 
ENDROOT
BRANCH   5  18
HETATM   18  C3  UNK     1      30.801  -7.387  35.142  1.00  0.00    -0.033 A 
HETATM   19  C6  UNK     1      30.455  -6.717  36.325  1.00  0.00    -0.019 A 
HETATM   20  C10 UNK     1      30.249  -7.466  37.508  1.00  0.00    -0.025 A 
HETATM   21  C13 UNK     1      30.307  -5.320  36.363  1.00  0.00     0.013 A 
HETATM   22  C15 UNK     1      30.396  -8.862  37.470  1.00  0.00     0.012 A 
HETATM   23  C17 UNK     1      29.902  -6.797  38.694  1.00  0.00     0.012 A 
HETATM   24  C14 UNK     1      30.741  -9.510  36.284  1.00  0.00     0.001 A 
HETATM   25  C8  UNK     1      30.944  -8.773  35.121  1.00  0.00     0.009 A 
HETATM   26  C21 UNK     1      29.761  -5.409  38.712  1.00  0.00     0.001 A 
HETATM   27  C19 UNK     1      29.962  -4.673  37.550  1.00  0.00     0.001 A 
ENDBRANCH   5  18
BRANCH  10  28
HETATM   28  N1  UNK     1      34.292  -7.436  32.043  1.00  0.00    -0.379 N 
HETATM   29  H11 UNK     1      34.997  -7.011  32.630  1.00  0.00     0.158 HD
HETATM   30  H12 UNK     1      34.559  -7.910  31.189  1.00  0.00     0.158 HD
ENDBRANCH  10  28
TORSDOF 2
ENDMDL
MODEL 8
REMARK VINA RESULT:      -8.3      2.599      7.049
REMARK  2 active torsions:
REMARK  status: ('A' for Active; 'I' for Inactive)
REMARK    1  A    between atoms: C9_14  and  N1_4 
REMARK    2  A    between atoms: C1_6  and  C3_8 
ROOT
HETATM    1  O1  UNK     1      33.804  -7.470  32.141  1.00  0.00    -0.291 OA
HETATM    2  O2  UNK     1      29.737  -6.810  31.415  1.00  0.00    -0.274 OA
HETATM    3  O3  UNK     1      29.552  -5.734  33.417  1.00  0.00    -0.259 OA
HETATM    4  N2  UNK     1      35.101  -5.146  36.156  1.00  0.00    -0.191 NA
HETATM    5  C1  UNK     1      32.284  -6.171  34.209  1.00  0.00     0.109 C 
HETATM    6  C2  UNK     1      31.692  -6.621  32.881  1.00  0.00     0.066 A 
HETATM    7  C4  UNK     1      32.453  -7.235  31.963  1.00  0.00     0.104 A 
HETATM    8  C5  UNK     1      33.811  -6.264  34.206  1.00  0.00     0.086 C 
HETATM    9  C7  UNK     1      31.886  -7.701  30.701  1.00  0.00     0.033 A 
HETATM   10  C9  UNK     1      34.481  -6.898  33.217  1.00  0.00     0.159 C 
HETATM   11  C11 UNK     1      30.256  -6.343  32.619  1.00  0.00     0.298 A 
HETATM   12  C12 UNK     1      30.532  -7.478  30.465  1.00  0.00     0.092 A 
HETATM   13  C16 UNK     1      32.627  -8.365  29.716  1.00  0.00     0.017 A 
HETATM   14  C18 UNK     1      29.906  -7.893  29.290  1.00  0.00     0.038 A 
HETATM   15  C20 UNK     1      34.524  -5.647  35.284  1.00  0.00     0.100 C 
HETATM   16  C22 UNK     1      32.013  -8.787  28.532  1.00  0.00     0.001 A 
HETATM   17  C23 UNK     1      30.655  -8.552  28.320  1.00  0.00     0.003 A 
ENDROOT
BRANCH   5  18
HETATM   18  C3  UNK     1      31.716  -6.977  35.340  1.00  0.00    -0.033 A 
HETATM   19  C6  UNK     1      31.097  -6.372  36.444  1.00  0.00    -0.019 A 
HETATM   20  C10 UNK     1      30.580  -7.187  37.479  1.00  0.00    -0.025 A 
HETATM   21  C13 UNK     1      30.978  -4.976  36.546  1.00  0.00     0.013 A 
HETATM   22  C15 UNK     1      30.699  -8.583  37.377  1.00  0.00     0.012 A 
HETATM   23  C17 UNK     1      29.960  -6.583  38.586  1.00  0.00     0.012 A 
HETATM   24  C14 UNK     1      31.317  -9.166  36.271  1.00  0.00     0.001 A 
HETATM   25  C8  UNK     1      31.826  -8.363  35.253  1.00  0.00     0.009 A 
HETATM   26  C21 UNK     1      29.852  -5.194  38.670  1.00  0.00     0.001 A 
HETATM   27  C19 UNK     1      30.359  -4.393  37.652  1.00  0.00     0.001 A 
ENDBRANCH   5  18
BRANCH  10  28
HETATM   28  N1  UNK     1      35.839  -7.043  33.151  1.00  0.00    -0.379 N 
HETATM   29  H11 UNK     1      36.257  -7.892  33.508  1.00  0.00     0.158 HD
HETATM   30  H12 UNK     1      36.422  -6.316  32.756  1.00  0.00     0.158 HD
ENDBRANCH  10  28
TORSDOF 2
ENDMDL
MODEL 9
REMARK VINA RESULT:      -8.1      3.083      7.062
REMARK  2 active torsions:
REMARK  status: ('A' for Active; 'I' for Inactive)
REMARK    1  A    between atoms: C9_14  and  N1_4 
REMARK    2  A    between atoms: C1_6  and  C3_8 
ROOT
HETATM    1  O1  UNK     1      34.150  -6.718  34.714  1.00  0.00    -0.291 OA
HETATM    2  O2  UNK     1      30.694  -6.937  32.366  1.00  0.00    -0.274 OA
HETATM    3  O3  UNK     1      29.432  -6.314  34.160  1.00  0.00    -0.259 OA
HETATM    4  N2  UNK     1      33.026  -4.907  39.033  1.00  0.00    -0.191 NA
HETATM    5  C1  UNK     1      31.633  -6.215  36.012  1.00  0.00     0.109 C 
HETATM    6  C2  UNK     1      31.769  -6.548  34.534  1.00  0.00     0.066 A 
HETATM    7  C4  UNK     1      32.973  -6.787  33.992  1.00  0.00     0.104 A 
HETATM    8  C5  UNK     1      32.992  -5.936  36.655  1.00  0.00     0.086 C 
HETATM    9  C7  UNK     1      33.109  -7.142  32.582  1.00  0.00     0.033 A 
HETATM   10  C9  UNK     1      34.151  -6.201  36.008  1.00  0.00     0.159 C 
HETATM   11  C11 UNK     1      30.538  -6.583  33.702  1.00  0.00     0.298 A 
HETATM   12  C12 UNK     1      31.956  -7.213  31.805  1.00  0.00     0.092 A 
HETATM   13  C16 UNK     1      34.336  -7.420  31.968  1.00  0.00     0.017 A 
HETATM   14  C18 UNK     1      31.992  -7.550  30.453  1.00  0.00     0.038 A 
HETATM   15  C20 UNK     1      33.011  -5.368  37.969  1.00  0.00     0.100 C 
HETATM   16  C22 UNK     1      34.389  -7.759  30.612  1.00  0.00     0.001 A 
HETATM   17  C23 UNK     1      33.218  -7.824  29.856  1.00  0.00     0.003 A 
ENDROOT
BRANCH   5  18
HETATM   18  C3  UNK     1      30.931  -7.323  36.741  1.00  0.00    -0.033 A 
HETATM   19  C6  UNK     1      29.827  -7.080  37.572  1.00  0.00    -0.019 A 
HETATM   20  C10 UNK     1      29.208  -8.168  38.232  1.00  0.00    -0.025 A 
HETATM   21  C13 UNK     1      29.322  -5.784  37.764  1.00  0.00     0.013 A 
HETATM   22  C15 UNK     1      29.712  -9.465  38.040  1.00  0.00     0.012 A 
HETATM   23  C17 UNK     1      28.102  -7.928  39.065  1.00  0.00     0.012 A 
HETATM   24  C14 UNK     1      30.811  -9.685  37.209  1.00  0.00     0.001 A 
HETATM   25  C8  UNK     1      31.420  -8.615  36.560  1.00  0.00     0.009 A 
HETATM   26  C21 UNK     1      27.615  -6.633  39.244  1.00  0.00     0.001 A 
HETATM   27  C19 UNK     1      28.223  -5.564  38.595  1.00  0.00     0.001 A 
ENDBRANCH   5  18
BRANCH  10  28
HETATM   28  N1  UNK     1      35.403  -6.001  36.519  1.00  0.00    -0.379 N 
HETATM   29  H11 UNK     1      35.508  -5.866  37.515  1.00  0.00     0.158 HD
HETATM   30  H12 UNK     1      36.215  -5.984  35.915  1.00  0.00     0.158 HD
ENDBRANCH  10  28
TORSDOF 2
ENDMDL
MODEL 10
REMARK VINA RESULT:      -8.1      3.061      6.985
REMARK  2 active torsions:
REMARK  status: ('A' for Active; 'I' for Inactive)
REMARK    1  A    between atoms: C9_14  and  N1_4 
REMARK    2  A    between atoms: C1_6  and  C3_8 
ROOT
HETATM    1  O1  UNK     1      32.699  -8.966  30.181  1.00  0.00    -0.291 OA
HETATM    2  O2  UNK     1      28.977  -7.437  31.325  1.00  0.00    -0.274 OA
HETATM    3  O3  UNK     1      29.998  -6.086  32.852  1.00  0.00    -0.259 OA
HETATM    4  N2  UNK     1      36.185  -6.506  32.416  1.00  0.00    -0.191 NA
HETATM    5  C1  UNK     1      32.656  -7.066  32.340  1.00  0.00     0.109 C 
HETATM    6  C2  UNK     1      31.410  -7.533  31.601  1.00  0.00     0.066 A 
HETATM    7  C4  UNK     1      31.498  -8.434  30.610  1.00  0.00     0.104 A 
HETATM    8  C5  UNK     1      33.934  -7.529  31.640  1.00  0.00     0.086 C 
HETATM    9  C7  UNK     1      30.305  -8.914  29.919  1.00  0.00     0.033 A 
HETATM   10  C9  UNK     1      33.905  -8.436  30.636  1.00  0.00     0.159 C 
HETATM   11  C11 UNK     1      30.099  -6.952  31.989  1.00  0.00     0.298 A 
HETATM   12  C12 UNK     1      29.068  -8.402  30.304  1.00  0.00     0.092 A 
HETATM   13  C16 UNK     1      30.333  -9.866  28.894  1.00  0.00     0.017 A 
HETATM   14  C18 UNK     1      27.877  -8.807  29.703  1.00  0.00     0.038 A 
HETATM   15  C20 UNK     1      35.178  -6.964  32.069  1.00  0.00     0.100 C 
HETATM   16  C22 UNK     1      29.147 -10.283  28.280  1.00  0.00     0.001 A 
HETATM   17  C23 UNK     1      27.921  -9.755  28.685  1.00  0.00     0.003 A 
ENDROOT
BRANCH   5  18
HETATM   18  C3  UNK     1      32.637  -7.547  33.761  1.00  0.00    -0.033 A 
HETATM   19  C6  UNK     1      32.740  -6.662  34.845  1.00  0.00    -0.019 A 
HETATM   20  C10 UNK     1      32.717  -7.178  36.162  1.00  0.00    -0.025 A 
HETATM   21  C13 UNK     1      32.866  -5.276  34.653  1.00  0.00     0.013 A 
HETATM   22  C15 UNK     1      32.591  -8.563  36.355  1.00  0.00     0.012 A 
HETATM   23  C17 UNK     1      32.819  -6.293  37.249  1.00  0.00     0.012 A 
HETATM   24  C14 UNK     1      32.490  -9.427  35.264  1.00  0.00     0.001 A 
HETATM   25  C8  UNK     1      32.514  -8.919  33.968  1.00  0.00     0.009 A 
HETATM   26  C21 UNK     1      32.944  -4.919  37.038  1.00  0.00     0.001 A 
HETATM   27  C19 UNK     1      32.967  -4.412  35.743  1.00  0.00     0.001 A 
ENDBRANCH   5  18
BRANCH  10  28
HETATM   28  N1  UNK     1      35.001  -8.916  29.975  1.00  0.00    -0.379 N 
HETATM   29  H11 UNK     1      35.913  -8.808  30.399  1.00  0.00     0.158 HD
HETATM   30  H12 UNK     1      34.908  -9.369  29.075  1.00  0.00     0.158 HD
ENDBRANCH  10  28
TORSDOF 2
ENDMDL
