MODEL 1
REMARK VINA RESULT:     -11.4      0.000      0.000
REMARK  4 active torsions:
REMARK  status: ('A' for Active; 'I' for Inactive)
REMARK       I    between atoms: C7_15  and  N1_7 
REMARK    1  A    between atoms: C6_14  and  N2_8 
REMARK       I    between atoms: C9_17  and  N2_8 
REMARK    2  A    between atoms: C1_9  and  C6_14 
REMARK    3  A    between atoms: C7_15  and  C8_16 
REMARK    4  A    between atoms: C12_20  and  C9_17 
ROOT
HETATM    1  O1  UNK     1      18.035   3.158  34.268  1.00  0.00    -0.267 OA
HETATM    2  N1  UNK     1      17.649   0.949  34.887  1.00  0.00    -0.348 N 
HETATM    3  C1  UNK     1      17.914  -0.938  37.086  1.00  0.00     0.006 C 
HETATM    4  C2  UNK     1      18.403  -1.274  35.671  1.00  0.00     0.026 C 
HETATM    5  C3  UNK     1      17.961   0.581  37.310  1.00  0.00     0.026 C 
HETATM    6  C4  UNK     1      17.629  -0.494  34.607  1.00  0.00     0.126 C 
HETATM    7  C5  UNK     1      17.180   1.317  36.226  1.00  0.00     0.126 C 
HETATM    8  C7  UNK     1      18.029   1.955  34.002  1.00  0.00     0.259 C 
ENDROOT
BRANCH   3   9
HETATM    9  C6  UNK     1      18.746  -1.668  38.137  1.00  0.00     0.127 C 
BRANCH   9  10
HETATM   10  N2  UNK     1      18.917  -3.047  37.790  1.00  0.00    -0.356 N 
HETATM   11  C9  UNK     1      20.154  -3.618  37.524  1.00  0.00     0.257 C 
HETATM   12  O3  UNK     1      21.237  -3.044  37.548  1.00  0.00    -0.267 OA
HETATM   13  H12 UNK     1      18.075  -3.608  37.716  1.00  0.00     0.162 HD
BRANCH  11  14
HETATM   14  C12 UNK     1      20.071  -5.052  37.193  1.00  0.00     0.108 A 
HETATM   15  C15 UNK     1      19.942  -5.891  38.227  1.00  0.00     0.037 A 
HETATM   16  C17 UNK     1      19.851  -7.325  38.001  1.00  0.00    -0.001 A 
HETATM   17  C20 UNK     1      19.901  -7.805  36.696  1.00  0.00     0.089 A 
HETATM   18  C23 UNK     1      19.717  -8.238  39.050  1.00  0.00     0.014 A 
HETATM   19  C24 UNK     1      19.819  -9.167  36.412  1.00  0.00     0.038 A 
HETATM   20  O4  UNK     1      20.035  -6.917  35.611  1.00  0.00    -0.274 OA
HETATM   21  C26 UNK     1      19.686 -10.070  37.464  1.00  0.00     0.003 A 
HETATM   22  C25 UNK     1      19.634  -9.607  38.780  1.00  0.00     0.001 A 
HETATM   23  C16 UNK     1      20.124  -5.540  35.796  1.00  0.00     0.304 A 
HETATM   24  O6  UNK     1      20.242  -4.774  34.846  1.00  0.00    -0.259 OA
ENDBRANCH  11  14
ENDBRANCH   9  10
ENDBRANCH   3   9
BRANCH   8  25
HETATM   25  C8  UNK     1      18.454   1.554  32.645  1.00  0.00     0.108 A 
HETATM   26  C10 UNK     1      19.026   0.349  32.536  1.00  0.00     0.037 A 
HETATM   27  C13 UNK     1      19.477  -0.133  31.241  1.00  0.00    -0.001 A 
HETATM   28  C14 UNK     1      19.304   0.678  30.123  1.00  0.00     0.089 A 
HETATM   29  C18 UNK     1      20.079  -1.383  31.080  1.00  0.00     0.014 A 
HETATM   30  O2  UNK     1      18.702   1.945  30.245  1.00  0.00    -0.274 OA
HETATM   31  C19 UNK     1      19.716   0.275  28.854  1.00  0.00     0.038 A 
HETATM   32  C11 UNK     1      18.260   2.434  31.470  1.00  0.00     0.304 A 
HETATM   33  O5  UNK     1      17.736   3.539  31.567  1.00  0.00    -0.259 OA
HETATM   34  C22 UNK     1      20.315  -0.974  28.702  1.00  0.00     0.003 A 
HETATM   35  C21 UNK     1      20.496  -1.801  29.813  1.00  0.00     0.001 A 
ENDBRANCH   8  25
TORSDOF 4
ENDMDL
MODEL 2
REMARK VINA RESULT:     -11.4      6.783     10.715
REMARK  4 active torsions:
REMARK  status: ('A' for Active; 'I' for Inactive)
REMARK       I    between atoms: C7_15  and  N1_7 
REMARK    1  A    between atoms: C6_14  and  N2_8 
REMARK       I    between atoms: C9_17  and  N2_8 
REMARK    2  A    between atoms: C1_9  and  C6_14 
REMARK    3  A    between atoms: C7_15  and  C8_16 
REMARK    4  A    between atoms: C12_20  and  C9_17 
ROOT
HETATM    1  O1  UNK     1      16.439   8.515  35.730  1.00  0.00    -0.267 OA
HETATM    2  N1  UNK     1      16.304   7.997  33.465  1.00  0.00    -0.348 N 
HETATM    3  C1  UNK     1      17.420   6.288  31.393  1.00  0.00     0.006 C 
HETATM    4  C2  UNK     1      17.275   7.803  31.198  1.00  0.00     0.026 C 
HETATM    5  C3  UNK     1      17.583   5.965  32.885  1.00  0.00     0.026 C 
HETATM    6  C4  UNK     1      16.145   8.376  32.053  1.00  0.00     0.126 C 
HETATM    7  C5  UNK     1      16.437   6.557  33.700  1.00  0.00     0.126 C 
HETATM    8  C7  UNK     1      16.303   8.864  34.556  1.00  0.00     0.259 C 
ENDROOT
BRANCH   3   9
HETATM    9  C6  UNK     1      18.599   5.747  30.588  1.00  0.00     0.127 C 
BRANCH   9  10
HETATM   10  N2  UNK     1      18.835   4.366  30.886  1.00  0.00    -0.356 N 
HETATM   11  C9  UNK     1      18.601   3.341  29.979  1.00  0.00     0.257 C 
HETATM   12  O3  UNK     1      18.176   3.468  28.836  1.00  0.00    -0.267 OA
HETATM   13  H12 UNK     1      19.164   4.149  31.821  1.00  0.00     0.162 HD
BRANCH  11  14
HETATM   14  C12 UNK     1      18.922   2.007  30.519  1.00  0.00     0.108 A 
HETATM   15  C15 UNK     1      19.558   1.171  29.690  1.00  0.00     0.037 A 
HETATM   16  C17 UNK     1      19.917  -0.167  30.131  1.00  0.00    -0.001 A 
HETATM   17  C20 UNK     1      19.588  -0.560  31.425  1.00  0.00     0.089 A 
HETATM   18  C23 UNK     1      20.580  -1.073  29.301  1.00  0.00     0.014 A 
HETATM   19  C24 UNK     1      19.904  -1.828  31.910  1.00  0.00     0.038 A 
HETATM   20  O4  UNK     1      18.920   0.325  32.293  1.00  0.00    -0.274 OA
HETATM   21  C26 UNK     1      20.566  -2.725  31.074  1.00  0.00     0.003 A 
HETATM   22  C25 UNK     1      20.904  -2.349  29.773  1.00  0.00     0.001 A 
HETATM   23  C16 UNK     1      18.563   1.611  31.899  1.00  0.00     0.304 A 
HETATM   24  O6  UNK     1      17.980   2.375  32.661  1.00  0.00    -0.259 OA
ENDBRANCH  11  14
ENDBRANCH   9  10
ENDBRANCH   3   9
BRANCH   8  25
HETATM   25  C8  UNK     1      16.122  10.306  34.289  1.00  0.00     0.108 A 
HETATM   26  C10 UNK     1      17.239  11.036  34.202  1.00  0.00     0.037 A 
HETATM   27  C13 UNK     1      17.162  12.465  33.942  1.00  0.00    -0.001 A 
HETATM   28  C14 UNK     1      15.912  13.054  33.788  1.00  0.00     0.089 A 
HETATM   29  C18 UNK     1      18.302  13.266  33.843  1.00  0.00     0.014 A 
HETATM   30  O2  UNK     1      14.739  12.280  33.881  1.00  0.00    -0.274 OA
HETATM   31  C19 UNK     1      15.770  14.418  33.539  1.00  0.00     0.038 A 
HETATM   32  C11 UNK     1      14.780  10.912  34.129  1.00  0.00     0.304 A 
HETATM   33  O5  UNK     1      13.754  10.245  34.209  1.00  0.00    -0.259 OA
HETATM   34  C22 UNK     1      16.912  15.210  33.441  1.00  0.00     0.003 A 
HETATM   35  C21 UNK     1      18.176  14.635  33.593  1.00  0.00     0.001 A 
ENDBRANCH   8  25
TORSDOF 4
ENDMDL
MODEL 3
REMARK VINA RESULT:     -11.3     12.744     15.679
REMARK  4 active torsions:
REMARK  status: ('A' for Active; 'I' for Inactive)
REMARK       I    between atoms: C7_15  and  N1_7 
REMARK    1  A    between atoms: C6_14  and  N2_8 
REMARK       I    between atoms: C9_17  and  N2_8 
REMARK    2  A    between atoms: C1_9  and  C6_14 
REMARK    3  A    between atoms: C7_15  and  C8_16 
REMARK    4  A    between atoms: C12_20  and  C9_17 
ROOT
HETATM    1  O1  UNK     1      31.909  -4.735  38.273  1.00  0.00    -0.267 OA
HETATM    2  N1  UNK     1      33.009  -6.526  37.274  1.00  0.00    -0.348 N 
HETATM    3  C1  UNK     1      35.236  -7.218  35.535  1.00  0.00     0.006 C 
HETATM    4  C2  UNK     1      33.825  -7.773  35.299  1.00  0.00     0.026 C 
HETATM    5  C3  UNK     1      35.152  -5.858  36.243  1.00  0.00     0.026 C 
HETATM    6  C4  UNK     1      33.018  -7.830  36.596  1.00  0.00     0.126 C 
HETATM    7  C5  UNK     1      34.337  -5.961  37.528  1.00  0.00     0.126 C 
HETATM    8  C7  UNK     1      31.883  -5.829  37.707  1.00  0.00     0.259 C 
ENDROOT
BRANCH   3   9
HETATM    9  C6  UNK     1      36.000  -7.099  34.218  1.00  0.00     0.127 C 
BRANCH   9  10
HETATM   10  N2  UNK     1      35.169  -7.452  33.108  1.00  0.00    -0.356 N 
HETATM   11  C9  UNK     1      35.314  -6.898  31.842  1.00  0.00     0.257 C 
HETATM   12  O3  UNK     1      36.145  -6.060  31.509  1.00  0.00    -0.267 OA
HETATM   13  H12 UNK     1      34.428  -8.122  33.284  1.00  0.00     0.162 HD
BRANCH  11  14
HETATM   14  C12 UNK     1      34.341  -7.423  30.867  1.00  0.00     0.108 A 
HETATM   15  C15 UNK     1      33.050  -7.302  31.196  1.00  0.00     0.037 A 
HETATM   16  C17 UNK     1      32.015  -7.789  30.297  1.00  0.00    -0.001 A 
HETATM   17  C20 UNK     1      32.392  -8.381  29.096  1.00  0.00     0.089 A 
HETATM   18  C23 UNK     1      30.656  -7.685  30.599  1.00  0.00     0.014 A 
HETATM   19  C24 UNK     1      31.450  -8.868  28.191  1.00  0.00     0.038 A 
HETATM   20  O4  UNK     1      33.752  -8.504  28.754  1.00  0.00    -0.274 OA
HETATM   21  C26 UNK     1      30.096  -8.760  28.501  1.00  0.00     0.003 A 
HETATM   22  C25 UNK     1      29.700  -8.169  29.702  1.00  0.00     0.001 A 
HETATM   23  C16 UNK     1      34.765  -8.047  29.593  1.00  0.00     0.304 A 
HETATM   24  O6  UNK     1      35.947  -8.160  29.289  1.00  0.00    -0.259 OA
ENDBRANCH  11  14
ENDBRANCH   9  10
ENDBRANCH   3   9
BRANCH   8  25
HETATM   25  C8  UNK     1      30.561  -6.447  37.476  1.00  0.00     0.108 A 
HETATM   26  C10 UNK     1      29.995  -7.045  38.531  1.00  0.00     0.037 A 
HETATM   27  C13 UNK     1      28.694  -7.681  38.401  1.00  0.00    -0.001 A 
HETATM   28  C14 UNK     1      28.052  -7.656  37.167  1.00  0.00     0.089 A 
HETATM   29  C18 UNK     1      28.066  -8.317  39.475  1.00  0.00     0.014 A 
HETATM   30  O2  UNK     1      28.653  -7.025  36.061  1.00  0.00    -0.274 OA
HETATM   31  C19 UNK     1      26.805  -8.248  36.977  1.00  0.00     0.038 A 
HETATM   32  C11 UNK     1      29.897  -6.409  36.153  1.00  0.00     0.304 A 
HETATM   33  O5  UNK     1      30.413  -5.861  35.184  1.00  0.00    -0.259 OA
HETATM   34  C22 UNK     1      26.185  -8.880  38.053  1.00  0.00     0.003 A 
HETATM   35  C21 UNK     1      26.814  -8.914  39.300  1.00  0.00     0.001 A 
ENDBRANCH   8  25
TORSDOF 4
ENDMDL
MODEL 4
REMARK VINA RESULT:     -11.0     12.810     15.347
REMARK  4 active torsions:
REMARK  status: ('A' for Active; 'I' for Inactive)
REMARK       I    between atoms: C7_15  and  N1_7 
REMARK    1  A    between atoms: C6_14  and  N2_8 
REMARK       I    between atoms: C9_17  and  N2_8 
REMARK    2  A    between atoms: C1_9  and  C6_14 
REMARK    3  A    between atoms: C7_15  and  C8_16 
REMARK    4  A    between atoms: C12_20  and  C9_17 
ROOT
HETATM    1  O1  UNK     1      33.157 -11.384  33.118  1.00  0.00    -0.267 OA
HETATM    2  N1  UNK     1      34.054  -9.365  32.390  1.00  0.00    -0.348 N 
HETATM    3  C1  UNK     1      35.211  -6.860  33.312  1.00  0.00     0.006 C 
HETATM    4  C2  UNK     1      34.084  -6.893  32.271  1.00  0.00     0.026 C 
HETATM    5  C3  UNK     1      35.124  -8.095  34.220  1.00  0.00     0.026 C 
HETATM    6  C4  UNK     1      34.080  -8.205  31.486  1.00  0.00     0.126 C 
HETATM    7  C5  UNK     1      35.120  -9.378  33.396  1.00  0.00     0.126 C 
HETATM    8  C7  UNK     1      33.153 -10.425  32.345  1.00  0.00     0.259 C 
ENDROOT
BRANCH   3   9
HETATM    9  C6  UNK     1      35.154  -5.575  34.135  1.00  0.00     0.127 C 
BRANCH   9  10
HETATM   10  N2  UNK     1      33.933  -5.496  34.879  1.00  0.00    -0.356 N 
HETATM   11  C9  UNK     1      33.876  -5.610  36.261  1.00  0.00     0.257 C 
HETATM   12  O3  UNK     1      34.827  -5.789  37.014  1.00  0.00    -0.267 OA
HETATM   13  H12 UNK     1      33.078  -5.374  34.345  1.00  0.00     0.162 HD
BRANCH  11  14
HETATM   14  C12 UNK     1      32.506  -5.492  36.795  1.00  0.00     0.108 A 
HETATM   15  C15 UNK     1      31.948  -6.622  37.245  1.00  0.00     0.037 A 
HETATM   16  C17 UNK     1      30.600  -6.607  37.791  1.00  0.00    -0.001 A 
HETATM   17  C20 UNK     1      29.905  -5.402  37.835  1.00  0.00     0.089 A 
HETATM   18  C23 UNK     1      29.977  -7.761  38.271  1.00  0.00     0.014 A 
HETATM   19  C24 UNK     1      28.611  -5.320  38.345  1.00  0.00     0.038 A 
HETATM   20  O4  UNK     1      30.499  -4.216  37.361  1.00  0.00    -0.274 OA
HETATM   21  C26 UNK     1      27.998  -6.476  38.822  1.00  0.00     0.003 A 
HETATM   22  C25 UNK     1      28.679  -7.694  38.786  1.00  0.00     0.001 A 
HETATM   23  C16 UNK     1      31.787  -4.199  36.833  1.00  0.00     0.304 A 
HETATM   24  O6  UNK     1      32.295  -3.163  36.421  1.00  0.00    -0.259 OA
ENDBRANCH  11  14
ENDBRANCH   9  10
ENDBRANCH   3   9
BRANCH   8  25
HETATM   25  C8  UNK     1      32.117 -10.404  31.291  1.00  0.00     0.108 A 
HETATM   26  C10 UNK     1      30.981  -9.764  31.591  1.00  0.00     0.037 A 
HETATM   27  C13 UNK     1      29.903  -9.690  30.618  1.00  0.00    -0.001 A 
HETATM   28  C14 UNK     1      30.074 -10.293  29.377  1.00  0.00     0.089 A 
HETATM   29  C18 UNK     1      28.700  -9.034  30.888  1.00  0.00     0.014 A 
HETATM   30  O2  UNK     1      31.273 -10.964  29.066  1.00  0.00    -0.274 OA
HETATM   31  C19 UNK     1      29.080 -10.259  28.401  1.00  0.00     0.038 A 
HETATM   32  C11 UNK     1      32.322 -11.053  29.976  1.00  0.00     0.304 A 
HETATM   33  O5  UNK     1      33.362 -11.640  29.698  1.00  0.00    -0.259 OA
HETATM   34  C22 UNK     1      27.883  -9.602  28.678  1.00  0.00     0.003 A 
HETATM   35  C21 UNK     1      27.693  -8.990  29.919  1.00  0.00     0.001 A 
ENDBRANCH   8  25
TORSDOF 4
ENDMDL
MODEL 5
REMARK VINA RESULT:     -11.0      4.301      6.608
REMARK  4 active torsions:
REMARK  status: ('A' for Active; 'I' for Inactive)
REMARK       I    between atoms: C7_15  and  N1_7 
REMARK    1  A    between atoms: C6_14  and  N2_8 
REMARK       I    between atoms: C9_17  and  N2_8 
REMARK    2  A    between atoms: C1_9  and  C6_14 
REMARK    3  A    between atoms: C7_15  and  C8_16 
REMARK    4  A    between atoms: C12_20  and  C9_17 
ROOT
HETATM    1  O1  UNK     1      21.041  -3.381  37.960  1.00  0.00    -0.267 OA
HETATM    2  N1  UNK     1      19.732  -5.141  37.185  1.00  0.00    -0.348 N 
HETATM    3  C1  UNK     1      19.672  -8.030  36.846  1.00  0.00     0.006 C 
HETATM    4  C2  UNK     1      19.313  -7.075  35.700  1.00  0.00     0.026 C 
HETATM    5  C3  UNK     1      20.654  -7.347  37.809  1.00  0.00     0.026 C 
HETATM    6  C4  UNK     1      18.792  -5.736  36.224  1.00  0.00     0.126 C 
HETATM    7  C5  UNK     1      20.097  -6.016  38.303  1.00  0.00     0.126 C 
HETATM    8  C7  UNK     1      20.254  -3.851  37.137  1.00  0.00     0.259 C 
ENDROOT
BRANCH   3   9
HETATM    9  C6  UNK     1      20.258  -9.332  36.305  1.00  0.00     0.127 C 
BRANCH   9  10
HETATM   10  N2  UNK     1      21.653  -9.435  36.612  1.00  0.00    -0.356 N 
HETATM   11  C9  UNK     1      22.545 -10.186  35.859  1.00  0.00     0.257 C 
HETATM   12  O3  UNK     1      22.275 -10.844  34.860  1.00  0.00    -0.267 OA
HETATM   13  H12 UNK     1      21.977  -8.946  37.441  1.00  0.00     0.162 HD
BRANCH  11  14
HETATM   14  C12 UNK     1      23.925 -10.132  36.374  1.00  0.00     0.108 A 
HETATM   15  C15 UNK     1      24.229  -9.080  37.143  1.00  0.00     0.037 A 
HETATM   16  C17 UNK     1      25.566  -8.939  37.698  1.00  0.00    -0.001 A 
HETATM   17  C20 UNK     1      26.518  -9.913  37.415  1.00  0.00     0.089 A 
HETATM   18  C23 UNK     1      25.927  -7.858  38.505  1.00  0.00     0.014 A 
HETATM   19  C24 UNK     1      27.816  -9.837  37.916  1.00  0.00     0.038 A 
HETATM   20  O4  UNK     1      26.192 -11.019  36.607  1.00  0.00    -0.274 OA
HETATM   21  C26 UNK     1      28.168  -8.755  38.720  1.00  0.00     0.003 A 
HETATM   22  C25 UNK     1      27.226  -7.768  39.014  1.00  0.00     0.001 A 
HETATM   23  C16 UNK     1      24.922 -11.181  36.061  1.00  0.00     0.304 A 
HETATM   24  O6  UNK     1      24.647 -12.146  35.356  1.00  0.00    -0.259 OA
ENDBRANCH  11  14
ENDBRANCH   9  10
ENDBRANCH   3   9
BRANCH   8  25
HETATM   25  C8  UNK     1      19.832  -2.979  36.021  1.00  0.00     0.108 A 
HETATM   26  C10 UNK     1      20.493  -3.133  34.868  1.00  0.00     0.037 A 
HETATM   27  C13 UNK     1      20.149  -2.319  33.713  1.00  0.00    -0.001 A 
HETATM   28  C14 UNK     1      19.126  -1.383  33.829  1.00  0.00     0.089 A 
HETATM   29  C18 UNK     1      20.811  -2.445  32.489  1.00  0.00     0.014 A 
HETATM   30  O2  UNK     1      18.435  -1.226  35.045  1.00  0.00    -0.274 OA
HETATM   31  C19 UNK     1      18.749  -0.572  32.760  1.00  0.00     0.038 A 
HETATM   32  C11 UNK     1      18.741  -1.989  36.168  1.00  0.00     0.304 A 
HETATM   33  O5  UNK     1      18.134  -1.846  37.224  1.00  0.00    -0.259 OA
HETATM   34  C22 UNK     1      19.415  -0.704  31.543  1.00  0.00     0.003 A 
HETATM   35  C21 UNK     1      20.444  -1.639  31.408  1.00  0.00     0.001 A 
ENDBRANCH   8  25
TORSDOF 4
ENDMDL
MODEL 6
REMARK VINA RESULT:     -11.0     27.106     28.881
REMARK  4 active torsions:
REMARK  status: ('A' for Active; 'I' for Inactive)
REMARK       I    between atoms: C7_15  and  N1_7 
REMARK    1  A    between atoms: C6_14  and  N2_8 
REMARK       I    between atoms: C9_17  and  N2_8 
REMARK    2  A    between atoms: C1_9  and  C6_14 
REMARK    3  A    between atoms: C7_15  and  C8_16 
REMARK    4  A    between atoms: C12_20  and  C9_17 
ROOT
HETATM    1  O1  UNK     1      15.444   6.321   9.795  1.00  0.00    -0.267 OA
HETATM    2  N1  UNK     1      15.536   8.557   9.158  1.00  0.00    -0.348 N 
HETATM    3  C1  UNK     1      16.671  11.139   9.869  1.00  0.00     0.006 C 
HETATM    4  C2  UNK     1      15.176  10.970   9.566  1.00  0.00     0.026 C 
HETATM    5  C3  UNK     1      17.248   9.824  10.410  1.00  0.00     0.026 C 
HETATM    6  C4  UNK     1      14.920   9.785   8.635  1.00  0.00     0.126 C 
HETATM    7  C5  UNK     1      16.967   8.670   9.453  1.00  0.00     0.126 C 
HETATM    8  C7  UNK     1      14.899   7.334   9.354  1.00  0.00     0.259 C 
ENDROOT
BRANCH   3   9
HETATM    9  C6  UNK     1      16.900  12.281  10.857  1.00  0.00     0.127 C 
BRANCH   9  10
HETATM   10  N2  UNK     1      18.254  12.293  11.323  1.00  0.00    -0.356 N 
HETATM   11  C9  UNK     1      19.282  12.947  10.658  1.00  0.00     0.257 C 
HETATM   12  O3  UNK     1      19.182  13.584   9.616  1.00  0.00    -0.267 OA
HETATM   13  H12 UNK     1      18.451  11.769  12.170  1.00  0.00     0.162 HD
BRANCH  11  14
HETATM   14  C12 UNK     1      20.585  12.816  11.336  1.00  0.00     0.108 A 
HETATM   15  C15 UNK     1      21.639  12.570  10.550  1.00  0.00     0.037 A 
HETATM   16  C17 UNK     1      22.967  12.425  11.127  1.00  0.00    -0.001 A 
HETATM   17  C20 UNK     1      23.118  12.545  12.504  1.00  0.00     0.089 A 
HETATM   18  C23 UNK     1      24.095  12.168  10.345  1.00  0.00     0.014 A 
HETATM   19  C24 UNK     1      24.362  12.417  13.120  1.00  0.00     0.038 A 
HETATM   20  O4  UNK     1      22.005  12.805  13.327  1.00  0.00    -0.274 OA
HETATM   21  C26 UNK     1      25.482  12.160  12.332  1.00  0.00     0.003 A 
HETATM   22  C25 UNK     1      25.349  12.037  10.948  1.00  0.00     0.001 A 
HETATM   23  C16 UNK     1      20.723  12.948  12.804  1.00  0.00     0.304 A 
HETATM   24  O6  UNK     1      19.759  13.172  13.528  1.00  0.00    -0.259 OA
ENDBRANCH  11  14
ENDBRANCH   9  10
ENDBRANCH   3   9
BRANCH   8  25
HETATM   25  C8  UNK     1      13.466   7.240   9.006  1.00  0.00     0.108 A 
HETATM   26  C10 UNK     1      13.185   6.786   7.779  1.00  0.00     0.037 A 
HETATM   27  C13 UNK     1      11.803   6.659   7.344  1.00  0.00    -0.001 A 
HETATM   28  C14 UNK     1      10.786   7.017   8.222  1.00  0.00     0.089 A 
HETATM   29  C18 UNK     1      11.463   6.190   6.073  1.00  0.00     0.014 A 
HETATM   30  O2  UNK     1      11.088   7.494   9.512  1.00  0.00    -0.274 OA
HETATM   31  C19 UNK     1       9.442   6.920   7.866  1.00  0.00     0.038 A 
HETATM   32  C11 UNK     1      12.400   7.628   9.957  1.00  0.00     0.304 A 
HETATM   33  O5  UNK     1      12.654   8.044  11.082  1.00  0.00    -0.259 OA
HETATM   34  C22 UNK     1       9.111   6.450   6.596  1.00  0.00     0.003 A 
HETATM   35  C21 UNK     1      10.119   6.086   5.702  1.00  0.00     0.001 A 
ENDBRANCH   8  25
TORSDOF 4
ENDMDL
MODEL 7
REMARK VINA RESULT:     -10.9     12.518     15.377
REMARK  4 active torsions:
REMARK  status: ('A' for Active; 'I' for Inactive)
REMARK       I    between atoms: C7_15  and  N1_7 
REMARK    1  A    between atoms: C6_14  and  N2_8 
REMARK       I    between atoms: C9_17  and  N2_8 
REMARK    2  A    between atoms: C1_9  and  C6_14 
REMARK    3  A    between atoms: C7_15  and  C8_16 
REMARK    4  A    between atoms: C12_20  and  C9_17 
ROOT
HETATM    1  O1  UNK     1      30.716  -3.275  36.722  1.00  0.00    -0.267 OA
HETATM    2  N1  UNK     1      32.511  -4.689  37.157  1.00  0.00    -0.348 N 
HETATM    3  C1  UNK     1      34.968  -5.758  36.021  1.00  0.00     0.006 C 
HETATM    4  C2  UNK     1      33.914  -6.668  36.667  1.00  0.00     0.026 C 
HETATM    5  C3  UNK     1      34.297  -4.496  35.460  1.00  0.00     0.026 C 
HETATM    6  C4  UNK     1      33.090  -5.920  37.715  1.00  0.00     0.126 C 
HETATM    7  C5  UNK     1      33.484  -3.785  36.537  1.00  0.00     0.126 C 
HETATM    8  C7  UNK     1      31.171  -4.316  37.200  1.00  0.00     0.259 C 
ENDROOT
BRANCH   3   9
HETATM    9  C6  UNK     1      35.730  -6.500  34.927  1.00  0.00     0.127 C 
BRANCH   9  10
HETATM   10  N2  UNK     1      34.925  -6.654  33.753  1.00  0.00    -0.356 N 
HETATM   11  C9  UNK     1      35.402  -7.202  32.569  1.00  0.00     0.257 C 
HETATM   12  O3  UNK     1      36.538  -7.618  32.369  1.00  0.00    -0.267 OA
HETATM   13  H12 UNK     1      33.970  -6.315  33.805  1.00  0.00     0.162 HD
BRANCH  11  14
HETATM   14  C12 UNK     1      34.383  -7.255  31.505  1.00  0.00     0.108 A 
HETATM   15  C15 UNK     1      33.217  -7.826  31.831  1.00  0.00     0.037 A 
HETATM   16  C17 UNK     1      32.149  -7.925  30.848  1.00  0.00    -0.001 A 
HETATM   17  C20 UNK     1      32.362  -7.419  29.570  1.00  0.00     0.089 A 
HETATM   18  C23 UNK     1      30.917  -8.512  31.144  1.00  0.00     0.014 A 
HETATM   19  C24 UNK     1      31.380  -7.482  28.583  1.00  0.00     0.038 A 
HETATM   20  O4  UNK     1      33.590  -6.818  29.233  1.00  0.00    -0.274 OA
HETATM   21  C26 UNK     1      30.154  -8.070  28.886  1.00  0.00     0.003 A 
HETATM   22  C25 UNK     1      29.922  -8.583  30.164  1.00  0.00     0.001 A 
HETATM   23  C16 UNK     1      34.631  -6.709  30.152  1.00  0.00     0.304 A 
HETATM   24  O6  UNK     1      35.698  -6.186  29.850  1.00  0.00    -0.259 OA
ENDBRANCH  11  14
ENDBRANCH   9  10
ENDBRANCH   3   9
BRANCH   8  25
HETATM   25  C8  UNK     1      30.223  -5.228  37.871  1.00  0.00     0.108 A 
HETATM   26  C10 UNK     1      30.020  -6.411  37.279  1.00  0.00     0.037 A 
HETATM   27  C13 UNK     1      29.104  -7.376  37.865  1.00  0.00    -0.001 A 
HETATM   28  C14 UNK     1      28.446  -7.050  39.046  1.00  0.00     0.089 A 
HETATM   29  C18 UNK     1      28.862  -8.623  37.281  1.00  0.00     0.014 A 
HETATM   30  O2  UNK     1      28.664  -5.804  39.665  1.00  0.00    -0.274 OA
HETATM   31  C19 UNK     1      27.555  -7.930  39.657  1.00  0.00     0.038 A 
HETATM   32  C11 UNK     1      29.533  -4.859  39.128  1.00  0.00     0.304 A 
HETATM   33  O5  UNK     1      29.717  -3.776  39.674  1.00  0.00    -0.259 OA
HETATM   34  C22 UNK     1      27.320  -9.171  39.069  1.00  0.00     0.003 A 
HETATM   35  C21 UNK     1      27.972  -9.516  37.883  1.00  0.00     0.001 A 
ENDBRANCH   8  25
TORSDOF 4
ENDMDL
MODEL 8
REMARK VINA RESULT:     -10.9     12.423     15.234
REMARK  4 active torsions:
REMARK  status: ('A' for Active; 'I' for Inactive)
REMARK       I    between atoms: C7_15  and  N1_7 
REMARK    1  A    between atoms: C6_14  and  N2_8 
REMARK       I    between atoms: C9_17  and  N2_8 
REMARK    2  A    between atoms: C1_9  and  C6_14 
REMARK    3  A    between atoms: C7_15  and  C8_16 
REMARK    4  A    between atoms: C12_20  and  C9_17 
ROOT
HETATM    1  O1  UNK     1      32.781  -3.612  35.787  1.00  0.00    -0.267 OA
HETATM    2  N1  UNK     1      33.822  -5.689  35.662  1.00  0.00    -0.348 N 
HETATM    3  C1  UNK     1      35.311  -7.449  33.888  1.00  0.00     0.006 C 
HETATM    4  C2  UNK     1      34.102  -7.948  34.691  1.00  0.00     0.026 C 
HETATM    5  C3  UNK     1      35.171  -5.946  33.608  1.00  0.00     0.026 C 
HETATM    6  C4  UNK     1      33.893  -7.127  35.963  1.00  0.00     0.126 C 
HETATM    7  C5  UNK     1      34.962  -5.167  34.903  1.00  0.00     0.126 C 
HETATM    8  C7  UNK     1      32.813  -4.814  36.056  1.00  0.00     0.259 C 
ENDROOT
BRANCH   3   9
HETATM    9  C6  UNK     1      35.459  -8.232  32.585  1.00  0.00     0.127 C 
BRANCH   9  10
HETATM   10  N2  UNK     1      34.181  -8.509  32.004  1.00  0.00    -0.356 N 
HETATM   11  C9  UNK     1      33.715  -7.881  30.856  1.00  0.00     0.257 C 
HETATM   12  O3  UNK     1      34.310  -7.031  30.202  1.00  0.00    -0.267 OA
HETATM   13  H12 UNK     1      33.594  -9.182  32.485  1.00  0.00     0.162 HD
BRANCH  11  14
HETATM   14  C12 UNK     1      32.372  -8.336  30.453  1.00  0.00     0.108 A 
HETATM   15  C15 UNK     1      31.351  -7.540  30.791  1.00  0.00     0.037 A 
HETATM   16  C17 UNK     1      29.988  -7.904  30.436  1.00  0.00    -0.001 A 
HETATM   17  C20 UNK     1      29.768  -9.090  29.743  1.00  0.00     0.089 A 
HETATM   18  C23 UNK     1      28.893  -7.105  30.770  1.00  0.00     0.014 A 
HETATM   19  C24 UNK     1      28.487  -9.496  29.373  1.00  0.00     0.038 A 
HETATM   20  O4  UNK     1      30.846  -9.923  29.388  1.00  0.00    -0.274 OA
HETATM   21  C26 UNK     1      27.400  -8.692  29.710  1.00  0.00     0.003 A 
HETATM   22  C25 UNK     1      27.602  -7.499  30.406  1.00  0.00     0.001 A 
HETATM   23  C16 UNK     1      32.161  -9.601  29.713  1.00  0.00     0.304 A 
HETATM   24  O6  UNK     1      33.094 -10.333  29.402  1.00  0.00    -0.259 OA
ENDBRANCH  11  14
ENDBRANCH   9  10
ENDBRANCH   3   9
BRANCH   8  25
HETATM   25  C8  UNK     1      31.700  -5.363  36.858  1.00  0.00     0.108 A 
HETATM   26  C10 UNK     1      30.667  -5.865  36.171  1.00  0.00     0.037 A 
HETATM   27  C13 UNK     1      29.524  -6.427  36.873  1.00  0.00    -0.001 A 
HETATM   28  C14 UNK     1      29.525  -6.433  38.264  1.00  0.00     0.089 A 
HETATM   29  C18 UNK     1      28.425  -6.962  36.197  1.00  0.00     0.014 A 
HETATM   30  O2  UNK     1      30.615  -5.903  38.981  1.00  0.00    -0.274 OA
HETATM   31  C19 UNK     1      28.461  -6.955  38.996  1.00  0.00     0.038 A 
HETATM   32  C11 UNK     1      31.722  -5.357  38.338  1.00  0.00     0.304 A 
HETATM   33  O5  UNK     1      32.667  -4.898  38.971  1.00  0.00    -0.259 OA
HETATM   34  C22 UNK     1      27.368  -7.487  38.314  1.00  0.00     0.003 A 
HETATM   35  C21 UNK     1      27.350  -7.490  36.918  1.00  0.00     0.001 A 
ENDBRANCH   8  25
TORSDOF 4
ENDMDL
MODEL 9
REMARK VINA RESULT:     -10.9     12.827     15.746
REMARK  4 active torsions:
REMARK  status: ('A' for Active; 'I' for Inactive)
REMARK       I    between atoms: C7_15  and  N1_7 
REMARK    1  A    between atoms: C6_14  and  N2_8 
REMARK       I    between atoms: C9_17  and  N2_8 
REMARK    2  A    between atoms: C1_9  and  C6_14 
REMARK    3  A    between atoms: C7_15  and  C8_16 
REMARK    4  A    between atoms: C12_20  and  C9_17 
ROOT
HETATM    1  O1  UNK     1      34.634  -4.313  35.036  1.00  0.00    -0.267 OA
HETATM    2  N1  UNK     1      34.902  -6.536  34.401  1.00  0.00    -0.348 N 
HETATM    3  C1  UNK     1      35.422  -8.262  32.118  1.00  0.00     0.006 C 
HETATM    4  C2  UNK     1      34.266  -8.535  33.089  1.00  0.00     0.026 C 
HETATM    5  C3  UNK     1      35.737  -6.760  32.087  1.00  0.00     0.026 C 
HETATM    6  C4  UNK     1      34.548  -7.961  34.478  1.00  0.00     0.126 C 
HETATM    7  C5  UNK     1      36.010  -6.230  33.491  1.00  0.00     0.126 C 
HETATM    8  C7  UNK     1      34.314  -5.500  35.123  1.00  0.00     0.259 C 
ENDROOT
BRANCH   3   9
HETATM    9  C6  UNK     1      35.091  -8.778  30.720  1.00  0.00     0.127 C 
BRANCH   9  10
HETATM   10  N2  UNK     1      33.683  -8.710  30.467  1.00  0.00    -0.356 N 
HETATM   11  C9  UNK     1      33.089  -7.690  29.735  1.00  0.00     0.257 C 
HETATM   12  O3  UNK     1      33.665  -6.739  29.219  1.00  0.00    -0.267 OA
HETATM   13  H12 UNK     1      33.109  -9.440  30.875  1.00  0.00     0.162 HD
BRANCH  11  14
HETATM   14  C12 UNK     1      31.628  -7.843  29.611  1.00  0.00     0.108 A 
HETATM   15  C15 UNK     1      30.887  -7.201  30.522  1.00  0.00     0.037 A 
HETATM   16  C17 UNK     1      29.436  -7.290  30.482  1.00  0.00    -0.001 A 
HETATM   17  C20 UNK     1      28.836  -8.053  29.485  1.00  0.00     0.089 A 
HETATM   18  C23 UNK     1      28.623  -6.638  31.411  1.00  0.00     0.014 A 
HETATM   19  C24 UNK     1      27.451  -8.179  29.391  1.00  0.00     0.038 A 
HETATM   20  O4  UNK     1      29.621  -8.725  28.528  1.00  0.00    -0.274 OA
HETATM   21  C26 UNK     1      26.649  -7.525  30.322  1.00  0.00     0.003 A 
HETATM   22  C25 UNK     1      27.233  -6.756  31.330  1.00  0.00     0.001 A 
HETATM   23  C16 UNK     1      31.011  -8.658  28.540  1.00  0.00     0.304 A 
HETATM   24  O6  UNK     1      31.687  -9.249  27.705  1.00  0.00    -0.259 OA
ENDBRANCH  11  14
ENDBRANCH   9  10
ENDBRANCH   3   9
BRANCH   8  25
HETATM   25  C8  UNK     1      33.230  -5.847  36.065  1.00  0.00     0.108 A 
HETATM   26  C10 UNK     1      31.991  -5.861  35.562  1.00  0.00     0.037 A 
HETATM   27  C13 UNK     1      30.858  -6.191  36.413  1.00  0.00    -0.001 A 
HETATM   28  C14 UNK     1      31.086  -6.490  37.752  1.00  0.00     0.089 A 
HETATM   29  C18 UNK     1      29.547  -6.218  35.930  1.00  0.00     0.014 A 
HETATM   30  O2  UNK     1      32.393  -6.473  38.276  1.00  0.00    -0.274 OA
HETATM   31  C19 UNK     1      30.045  -6.812  38.619  1.00  0.00     0.038 A 
HETATM   32  C11 UNK     1      33.497  -6.161  37.488  1.00  0.00     0.304 A 
HETATM   33  O5  UNK     1      34.632  -6.149  37.952  1.00  0.00    -0.259 OA
HETATM   34  C22 UNK     1      28.740  -6.837  38.130  1.00  0.00     0.003 A 
HETATM   35  C21 UNK     1      28.492  -6.541  36.788  1.00  0.00     0.001 A 
ENDBRANCH   8  25
TORSDOF 4
ENDMDL
MODEL 10
REMARK VINA RESULT:     -10.9      6.820     10.001
REMARK  4 active torsions:
REMARK  status: ('A' for Active; 'I' for Inactive)
REMARK       I    between atoms: C7_15  and  N1_7 
REMARK    1  A    between atoms: C6_14  and  N2_8 
REMARK       I    between atoms: C9_17  and  N2_8 
REMARK    2  A    between atoms: C1_9  and  C6_14 
REMARK    3  A    between atoms: C7_15  and  C8_16 
REMARK    4  A    between atoms: C12_20  and  C9_17 
ROOT
HETATM    1  O1  UNK     1      18.427  10.933  33.462  1.00  0.00    -0.267 OA
HETATM    2  N1  UNK     1      17.761   8.804  34.120  1.00  0.00    -0.348 N 
HETATM    3  C1  UNK     1      18.113   5.971  33.558  1.00  0.00     0.006 C 
HETATM    4  C2  UNK     1      16.720   6.600  33.692  1.00  0.00     0.026 C 
HETATM    5  C3  UNK     1      19.120   7.025  33.074  1.00  0.00     0.026 C 
HETATM    6  C4  UNK     1      16.746   7.844  34.581  1.00  0.00     0.126 C 
HETATM    7  C5  UNK     1      19.110   8.247  33.987  1.00  0.00     0.126 C 
HETATM    8  C7  UNK     1      17.554  10.153  33.847  1.00  0.00     0.259 C 
ENDROOT
BRANCH   3   9
HETATM    9  C6  UNK     1      18.081   4.775  32.609  1.00  0.00     0.127 C 
BRANCH   9  10
HETATM   10  N2  UNK     1      18.142   3.542  33.334  1.00  0.00    -0.356 N 
HETATM   11  C9  UNK     1      18.214   2.300  32.718  1.00  0.00     0.257 C 
HETATM   12  O3  UNK     1      18.234   2.089  31.511  1.00  0.00    -0.267 OA
HETATM   13  H12 UNK     1      18.105   3.604  34.347  1.00  0.00     0.162 HD
BRANCH  11  14
HETATM   14  C12 UNK     1      18.269   1.182  33.678  1.00  0.00     0.108 A 
HETATM   15  C15 UNK     1      18.048   1.491  34.961  1.00  0.00     0.037 A 
HETATM   16  C17 UNK     1      18.082   0.455  35.981  1.00  0.00    -0.001 A 
HETATM   17  C20 UNK     1      18.348  -0.856  35.600  1.00  0.00     0.089 A 
HETATM   18  C23 UNK     1      17.858   0.732  37.331  1.00  0.00     0.014 A 
HETATM   19  C24 UNK     1      18.394  -1.895  36.529  1.00  0.00     0.038 A 
HETATM   20  O4  UNK     1      18.578  -1.176  34.249  1.00  0.00    -0.274 OA
HETATM   21  C26 UNK     1      18.170  -1.609  37.874  1.00  0.00     0.003 A 
HETATM   22  C25 UNK     1      17.902  -0.299  38.274  1.00  0.00     0.001 A 
HETATM   23  C16 UNK     1      18.553  -0.207  33.250  1.00  0.00     0.304 A 
HETATM   24  O6  UNK     1      18.756  -0.494  32.075  1.00  0.00    -0.259 OA
ENDBRANCH  11  14
ENDBRANCH   9  10
ENDBRANCH   3   9
BRANCH   8  25
HETATM   25  C8  UNK     1      16.192  10.693  34.034  1.00  0.00     0.108 A 
HETATM   26  C10 UNK     1      16.007  11.472  35.107  1.00  0.00     0.037 A 
HETATM   27  C13 UNK     1      14.700  12.049  35.376  1.00  0.00    -0.001 A 
HETATM   28  C14 UNK     1      13.652  11.779  34.503  1.00  0.00     0.089 A 
HETATM   29  C18 UNK     1      14.461  12.867  36.484  1.00  0.00     0.014 A 
HETATM   30  O2  UNK     1      13.853  10.960  33.376  1.00  0.00    -0.274 OA
HETATM   31  C19 UNK     1      12.376  12.301  34.705  1.00  0.00     0.038 A 
HETATM   32  C11 UNK     1      15.091  10.392  33.092  1.00  0.00     0.304 A 
HETATM   33  O5  UNK     1      15.257   9.679  32.108  1.00  0.00    -0.259 OA
HETATM   34  C22 UNK     1      12.146  13.116  35.812  1.00  0.00     0.003 A 
HETATM   35  C21 UNK     1      13.187  13.399  36.699  1.00  0.00     0.001 A 
ENDBRANCH   8  25
TORSDOF 4
ENDMDL
