MODEL 1
REMARK VINA RESULT:      -8.8      0.000      0.000
REMARK  3 active torsions:
REMARK  status: ('A' for Active; 'I' for Inactive)
REMARK    1  A    between atoms: C4_9  and  O3_3 
REMARK    2  A    between atoms: C1_6  and  C4_9 
REMARK    3  A    between atoms: C6_11  and  C7_12 
ROOT
HETATM    1  O4  UNK     1      19.124   0.592  32.453  1.00  0.00    -0.321 OA
HETATM    2  O5  UNK     1      18.776   2.486  28.855  1.00  0.00    -0.287 OA
HETATM    3  C7  UNK     1      18.495   2.578  31.211  1.00  0.00     0.070 A 
HETATM    4  C8  UNK     1      18.880   1.921  29.936  1.00  0.00     0.198 A 
HETATM    5  C9  UNK     1      18.645   1.874  32.341  1.00  0.00     0.158 A 
HETATM    6  C10 UNK     1      19.395   0.544  30.040  1.00  0.00     0.049 A 
HETATM    7  C11 UNK     1      19.492  -0.052  31.299  1.00  0.00     0.089 A 
HETATM    8  C12 UNK     1      19.785  -0.161  28.898  1.00  0.00     0.018 A 
HETATM    9  C13 UNK     1      19.978  -1.354  31.421  1.00  0.00     0.038 A 
HETATM   10  C14 UNK     1      20.271  -1.462  29.023  1.00  0.00     0.001 A 
HETATM   11  C15 UNK     1      20.367  -2.058  30.281  1.00  0.00     0.003 A 
ENDROOT
BRANCH   3  12
HETATM   12  C6  UNK     1      17.964   3.970  31.162  1.00  0.00     0.300 C 
HETATM   13  O1  UNK     1      17.564   4.337  32.484  1.00  0.00    -0.356 OA
HETATM   14  C2  UNK     1      17.044   5.667  32.509  1.00  0.00     0.184 C 
HETATM   15  C1  UNK     1      18.078   6.668  31.961  1.00  0.00     0.020 C 
HETATM   16  C3  UNK     1      18.547   6.174  30.578  1.00  0.00     0.184 C 
HETATM   17  C5  UNK     1      19.284   6.740  32.918  1.00  0.00     0.022 C 
HETATM   18  O2  UNK     1      18.992   4.818  30.649  1.00  0.00    -0.356 OA
BRANCH  15  19
HETATM   19  C4  UNK     1      17.448   8.061  31.836  1.00  0.00     0.177 C 
BRANCH  19  20
HETATM   20  O3  UNK     1      16.707   8.105  30.633  1.00  0.00    -0.400 OA
HETATM   21  H11 UNK     1      15.914   8.639  30.803  1.00  0.00     0.209 HD
ENDBRANCH  19  20
ENDBRANCH  15  19
ENDBRANCH   3  12
TORSDOF 3
ENDMDL
MODEL 2
REMARK VINA RESULT:      -8.1      3.166      6.702
REMARK  3 active torsions:
REMARK  status: ('A' for Active; 'I' for Inactive)
REMARK    1  A    between atoms: C4_9  and  O3_3 
REMARK    2  A    between atoms: C1_6  and  C4_9 
REMARK    3  A    between atoms: C6_11  and  C7_12 
ROOT
HETATM    1  O4  UNK     1      18.234   4.829  33.601  1.00  0.00    -0.321 OA
HETATM    2  O5  UNK     1      18.589   1.509  31.255  1.00  0.00    -0.287 OA
HETATM    3  C7  UNK     1      18.248   2.410  33.424  1.00  0.00     0.070 A 
HETATM    4  C8  UNK     1      18.482   2.503  31.962  1.00  0.00     0.198 A 
HETATM    5  C9  UNK     1      18.145   3.556  34.110  1.00  0.00     0.158 A 
HETATM    6  C10 UNK     1      18.580   3.862  31.400  1.00  0.00     0.049 A 
HETATM    7  C11 UNK     1      18.450   4.960  32.252  1.00  0.00     0.089 A 
HETATM    8  C12 UNK     1      18.800   4.057  30.034  1.00  0.00     0.018 A 
HETATM    9  C13 UNK     1      18.539   6.256  31.744  1.00  0.00     0.038 A 
HETATM   10  C14 UNK     1      18.888   5.353  29.527  1.00  0.00     0.001 A 
HETATM   11  C15 UNK     1      18.758   6.451  30.380  1.00  0.00     0.003 A 
ENDROOT
BRANCH   3  12
HETATM   12  C6  UNK     1      18.143   1.058  34.044  1.00  0.00     0.300 C 
HETATM   13  O1  UNK     1      19.017   1.022  35.174  1.00  0.00    -0.356 OA
HETATM   14  C2  UNK     1      18.965  -0.252  35.819  1.00  0.00     0.184 C 
HETATM   15  C1  UNK     1      17.523  -0.592  36.240  1.00  0.00     0.020 C 
HETATM   16  C3  UNK     1      16.609  -0.443  35.008  1.00  0.00     0.184 C 
HETATM   17  C5  UNK     1      17.065   0.382  37.343  1.00  0.00     0.022 C 
HETATM   18  O2  UNK     1      16.778   0.840  34.405  1.00  0.00    -0.356 OA
BRANCH  15  19
HETATM   19  C4  UNK     1      17.456  -2.028  36.775  1.00  0.00     0.177 C 
BRANCH  19  20
HETATM   20  O3  UNK     1      18.231  -2.099  37.954  1.00  0.00    -0.400 OA
HETATM   21  H11 UNK     1      18.726  -2.934  37.923  1.00  0.00     0.209 HD
ENDBRANCH  19  20
ENDBRANCH  15  19
ENDBRANCH   3  12
TORSDOF 3
ENDMDL
MODEL 3
REMARK VINA RESULT:      -8.0      1.237      2.261
REMARK  3 active torsions:
REMARK  status: ('A' for Active; 'I' for Inactive)
REMARK    1  A    between atoms: C4_9  and  O3_3 
REMARK    2  A    between atoms: C1_6  and  C4_9 
REMARK    3  A    between atoms: C6_11  and  C7_12 
ROOT
HETATM    1  O4  UNK     1      19.368   1.523  29.016  1.00  0.00    -0.321 OA
HETATM    2  O5  UNK     1      18.587   1.216  33.010  1.00  0.00    -0.287 OA
HETATM    3  C7  UNK     1      18.570   2.564  31.056  1.00  0.00     0.070 A 
HETATM    4  C8  UNK     1      18.821   1.311  31.812  1.00  0.00     0.198 A 
HETATM    5  C9  UNK     1      18.858   2.567  29.748  1.00  0.00     0.158 A 
HETATM    6  C10 UNK     1      19.369   0.181  31.040  1.00  0.00     0.049 A 
HETATM    7  C11 UNK     1      19.615   0.345  29.676  1.00  0.00     0.089 A 
HETATM    8  C12 UNK     1      19.639  -1.042  31.660  1.00  0.00     0.018 A 
HETATM    9  C13 UNK     1      20.133  -0.710  28.926  1.00  0.00     0.038 A 
HETATM   10  C14 UNK     1      20.156  -2.096  30.908  1.00  0.00     0.001 A 
HETATM   11  C15 UNK     1      20.403  -1.932  29.544  1.00  0.00     0.003 A 
ENDROOT
BRANCH   3  12
HETATM   12  C6  UNK     1      18.019   3.739  31.789  1.00  0.00     0.300 C 
HETATM   13  O1  UNK     1      18.620   3.773  33.085  1.00  0.00    -0.356 OA
HETATM   14  C2  UNK     1      18.134   4.882  33.844  1.00  0.00     0.184 C 
HETATM   15  C1  UNK     1      18.385   6.206  33.099  1.00  0.00     0.020 C 
HETATM   16  C3  UNK     1      17.804   6.080  31.677  1.00  0.00     0.184 C 
HETATM   17  C5  UNK     1      19.901   6.470  33.014  1.00  0.00     0.022 C 
HETATM   18  O2  UNK     1      18.307   4.912  31.026  1.00  0.00    -0.356 OA
BRANCH  15  19
HETATM   19  C4  UNK     1      17.710   7.365  33.842  1.00  0.00     0.177 C 
BRANCH  19  20
HETATM   20  O3  UNK     1      17.118   6.851  35.018  1.00  0.00    -0.400 OA
HETATM   21  H11 UNK     1      16.155   6.931  34.914  1.00  0.00     0.209 HD
ENDBRANCH  19  20
ENDBRANCH  15  19
ENDBRANCH   3  12
TORSDOF 3
ENDMDL
MODEL 4
REMARK VINA RESULT:      -7.8      3.165      5.308
REMARK  3 active torsions:
REMARK  status: ('A' for Active; 'I' for Inactive)
REMARK    1  A    between atoms: C4_9  and  O3_3 
REMARK    2  A    between atoms: C1_6  and  C4_9 
REMARK    3  A    between atoms: C6_11  and  C7_12 
ROOT
HETATM    1  O4  UNK     1      18.894   1.784  30.476  1.00  0.00    -0.321 OA
HETATM    2  O5  UNK     1      19.108  -0.975  33.476  1.00  0.00    -0.287 OA
HETATM    3  C7  UNK     1      18.471   1.208  32.794  1.00  0.00     0.070 A 
HETATM    4  C8  UNK     1      19.042  -0.145  32.578  1.00  0.00     0.198 A 
HETATM    5  C9  UNK     1      18.444   2.044  31.748  1.00  0.00     0.158 A 
HETATM    6  C10 UNK     1      19.530  -0.440  31.218  1.00  0.00     0.049 A 
HETATM    7  C11 UNK     1      19.429   0.544  30.233  1.00  0.00     0.089 A 
HETATM    8  C12 UNK     1      20.085  -1.685  30.913  1.00  0.00     0.018 A 
HETATM    9  C13 UNK     1      19.883   0.288  28.939  1.00  0.00     0.038 A 
HETATM   10  C14 UNK     1      20.538  -1.939  29.618  1.00  0.00     0.001 A 
HETATM   11  C15 UNK     1      20.438  -0.955  28.634  1.00  0.00     0.003 A 
ENDROOT
BRANCH   3  12
HETATM   12  C6  UNK     1      17.966   1.559  34.152  1.00  0.00     0.300 C 
HETATM   13  O1  UNK     1      16.924   0.639  34.487  1.00  0.00    -0.356 OA
HETATM   14  C2  UNK     1      16.395   0.920  35.784  1.00  0.00     0.184 C 
HETATM   15  C1  UNK     1      17.508   0.885  36.848  1.00  0.00     0.020 C 
HETATM   16  C3  UNK     1      18.646   1.818  36.390  1.00  0.00     0.184 C 
HETATM   17  C5  UNK     1      18.044  -0.553  36.987  1.00  0.00     0.022 C 
HETATM   18  O2  UNK     1      19.064   1.492  35.064  1.00  0.00    -0.356 OA
BRANCH  15  19
HETATM   19  C4  UNK     1      16.957   1.353  38.201  1.00  0.00     0.177 C 
BRANCH  19  20
HETATM   20  O3  UNK     1      18.011   1.320  39.143  1.00  0.00    -0.400 OA
HETATM   21  H11 UNK     1      17.765   0.675  39.827  1.00  0.00     0.209 HD
ENDBRANCH  19  20
ENDBRANCH  15  19
ENDBRANCH   3  12
TORSDOF 3
ENDMDL
MODEL 5
REMARK VINA RESULT:      -7.7      2.949      6.851
REMARK  3 active torsions:
REMARK  status: ('A' for Active; 'I' for Inactive)
REMARK    1  A    between atoms: C4_9  and  O3_3 
REMARK    2  A    between atoms: C1_6  and  C4_9 
REMARK    3  A    between atoms: C6_11  and  C7_12 
ROOT
HETATM    1  O4  UNK     1      18.674   2.496  30.747  1.00  0.00    -0.321 OA
HETATM    2  O5  UNK     1      18.037   4.239  34.382  1.00  0.00    -0.287 OA
HETATM    3  C7  UNK     1      18.167   2.242  33.105  1.00  0.00     0.070 A 
HETATM    4  C8  UNK     1      18.228   3.713  33.292  1.00  0.00     0.198 A 
HETATM    5  C9  UNK     1      18.390   1.764  31.874  1.00  0.00     0.158 A 
HETATM    6  C10 UNK     1      18.531   4.513  32.092  1.00  0.00     0.049 A 
HETATM    7  C11 UNK     1      18.741   3.861  30.876  1.00  0.00     0.089 A 
HETATM    8  C12 UNK     1      18.611   5.906  32.165  1.00  0.00     0.018 A 
HETATM    9  C13 UNK     1      19.030   4.597  29.728  1.00  0.00     0.038 A 
HETATM   10  C14 UNK     1      18.901   6.640  31.015  1.00  0.00     0.001 A 
HETATM   11  C15 UNK     1      19.109   5.988  29.799  1.00  0.00     0.003 A 
ENDROOT
BRANCH   3  12
HETATM   12  C6  UNK     1      17.860   1.386  34.286  1.00  0.00     0.300 C 
HETATM   13  O1  UNK     1      17.377   0.128  33.807  1.00  0.00    -0.356 OA
HETATM   14  C2  UNK     1      17.063  -0.745  34.894  1.00  0.00     0.184 C 
HETATM   15  C1  UNK     1      18.290  -0.949  35.802  1.00  0.00     0.020 C 
HETATM   16  C3  UNK     1      18.828   0.437  36.210  1.00  0.00     0.184 C 
HETATM   17  C5  UNK     1      19.380  -1.719  35.031  1.00  0.00     0.022 C 
HETATM   18  O2  UNK     1      19.054   1.251  35.058  1.00  0.00    -0.356 OA
BRANCH  15  19
HETATM   19  C4  UNK     1      17.894  -1.747  37.050  1.00  0.00     0.177 C 
BRANCH  19  20
HETATM   20  O3  UNK     1      17.837  -3.116  36.700  1.00  0.00    -0.400 OA
HETATM   21  H11 UNK     1      16.900  -3.342  36.576  1.00  0.00     0.209 HD
ENDBRANCH  19  20
ENDBRANCH  15  19
ENDBRANCH   3  12
TORSDOF 3
ENDMDL
MODEL 6
REMARK VINA RESULT:      -7.5     13.694     16.972
REMARK  3 active torsions:
REMARK  status: ('A' for Active; 'I' for Inactive)
REMARK    1  A    between atoms: C4_9  and  O3_3 
REMARK    2  A    between atoms: C1_6  and  C4_9 
REMARK    3  A    between atoms: C6_11  and  C7_12 
ROOT
HETATM    1  O4  UNK     1      18.829  -0.897  18.492  1.00  0.00    -0.321 OA
HETATM    2  O5  UNK     1      19.352   1.347  15.124  1.00  0.00    -0.287 OA
HETATM    3  C7  UNK     1      19.007  -0.801  16.076  1.00  0.00     0.070 A 
HETATM    4  C8  UNK     1      19.195   0.671  16.133  1.00  0.00     0.198 A 
HETATM    5  C9  UNK     1      18.843  -1.450  17.235  1.00  0.00     0.158 A 
HETATM    6  C10 UNK     1      19.183   1.280  17.475  1.00  0.00     0.049 A 
HETATM    7  C11 UNK     1      18.999   0.461  18.591  1.00  0.00     0.089 A 
HETATM    8  C12 UNK     1      19.351   2.657  17.636  1.00  0.00     0.018 A 
HETATM    9  C13 UNK     1      18.984   1.015  19.871  1.00  0.00     0.038 A 
HETATM   10  C14 UNK     1      19.335   3.209  18.917  1.00  0.00     0.001 A 
HETATM   11  C15 UNK     1      19.153   2.391  20.032  1.00  0.00     0.003 A 
ENDROOT
BRANCH   3  12
HETATM   12  C6  UNK     1      19.013  -1.468  14.743  1.00  0.00     0.300 C 
HETATM   13  O1  UNK     1      20.371  -1.564  14.304  1.00  0.00    -0.356 OA
HETATM   14  C2  UNK     1      20.449  -2.199  13.026  1.00  0.00     0.184 C 
HETATM   15  C1  UNK     1      19.795  -3.592  13.067  1.00  0.00     0.020 C 
HETATM   16  C3  UNK     1      18.371  -3.443  13.637  1.00  0.00     0.184 C 
HETATM   17  C5  UNK     1      20.619  -4.523  13.976  1.00  0.00     0.022 C 
HETATM   18  O2  UNK     1      18.395  -2.748  14.884  1.00  0.00    -0.356 OA
BRANCH  15  19
HETATM   19  C4  UNK     1      19.736  -4.187  11.654  1.00  0.00     0.177 C 
BRANCH  19  20
HETATM   20  O3  UNK     1      18.598  -3.664  11.000  1.00  0.00    -0.400 OA
HETATM   21  H11 UNK     1      17.829  -3.855  11.564  1.00  0.00     0.209 HD
ENDBRANCH  19  20
ENDBRANCH  15  19
ENDBRANCH   3  12
TORSDOF 3
ENDMDL
MODEL 7
REMARK VINA RESULT:      -7.5     13.496     17.070
REMARK  3 active torsions:
REMARK  status: ('A' for Active; 'I' for Inactive)
REMARK    1  A    between atoms: C4_9  and  O3_3 
REMARK    2  A    between atoms: C1_6  and  C4_9 
REMARK    3  A    between atoms: C6_11  and  C7_12 
ROOT
HETATM    1  O4  UNK     1      19.332   1.079  15.208  1.00  0.00    -0.321 OA
HETATM    2  O5  UNK     1      18.787  -1.406  18.399  1.00  0.00    -0.287 OA
HETATM    3  C7  UNK     1      19.023  -1.175  16.048  1.00  0.00     0.070 A 
HETATM    4  C8  UNK     1      18.950  -0.663  17.439  1.00  0.00     0.198 A 
HETATM    5  C9  UNK     1      19.204  -0.281  15.067  1.00  0.00     0.158 A 
HETATM    6  C10 UNK     1      19.086   0.795  17.608  1.00  0.00     0.049 A 
HETATM    7  C11 UNK     1      19.271   1.595  16.479  1.00  0.00     0.089 A 
HETATM    8  C12 UNK     1      19.031   1.376  18.877  1.00  0.00     0.018 A 
HETATM    9  C13 UNK     1      19.402   2.977  16.613  1.00  0.00     0.038 A 
HETATM   10  C14 UNK     1      19.163   2.758  19.010  1.00  0.00     0.001 A 
HETATM   11  C15 UNK     1      19.347   3.557  17.881  1.00  0.00     0.003 A 
ENDROOT
BRANCH   3  12
HETATM   12  C6  UNK     1      18.889  -2.642  15.822  1.00  0.00     0.300 C 
HETATM   13  O1  UNK     1      18.213  -2.837  14.577  1.00  0.00    -0.356 OA
HETATM   14  C2  UNK     1      18.052  -4.229  14.297  1.00  0.00     0.184 C 
HETATM   15  C1  UNK     1      19.415  -4.946  14.290  1.00  0.00     0.020 C 
HETATM   16  C3  UNK     1      20.141  -4.624  15.610  1.00  0.00     0.184 C 
HETATM   17  C5  UNK     1      20.256  -4.441  13.102  1.00  0.00     0.022 C 
HETATM   18  O2  UNK     1      20.198  -3.213  15.825  1.00  0.00    -0.356 OA
BRANCH  15  19
HETATM   19  C4  UNK     1      19.212  -6.460  14.157  1.00  0.00     0.177 C 
BRANCH  19  20
HETATM   20  O3  UNK     1      18.442  -6.902  15.257  1.00  0.00    -0.400 OA
HETATM   21  H11 UNK     1      18.786  -6.453  16.047  1.00  0.00     0.209 HD
ENDBRANCH  19  20
ENDBRANCH  15  19
ENDBRANCH   3  12
TORSDOF 3
ENDMDL
MODEL 8
REMARK VINA RESULT:      -7.4      4.754      6.845
REMARK  3 active torsions:
REMARK  status: ('A' for Active; 'I' for Inactive)
REMARK    1  A    between atoms: C4_9  and  O3_3 
REMARK    2  A    between atoms: C1_6  and  C4_9 
REMARK    3  A    between atoms: C6_11  and  C7_12 
ROOT
HETATM    1  O4  UNK     1      19.052   7.582  33.937  1.00  0.00    -0.321 OA
HETATM    2  O5  UNK     1      16.031   7.830  31.205  1.00  0.00    -0.287 OA
HETATM    3  C7  UNK     1      16.828   8.369  33.375  1.00  0.00     0.070 A 
HETATM    4  C8  UNK     1      16.936   7.757  32.027  1.00  0.00     0.198 A 
HETATM    5  C9  UNK     1      17.873   8.234  34.202  1.00  0.00     0.158 A 
HETATM    6  C10 UNK     1      18.195   7.053  31.727  1.00  0.00     0.049 A 
HETATM    7  C11 UNK     1      19.193   7.002  32.701  1.00  0.00     0.089 A 
HETATM    8  C12 UNK     1      18.395   6.444  30.485  1.00  0.00     0.018 A 
HETATM    9  C13 UNK     1      20.393   6.341  32.440  1.00  0.00     0.038 A 
HETATM   10  C14 UNK     1      19.596   5.785  30.226  1.00  0.00     0.001 A 
HETATM   11  C15 UNK     1      20.593   5.733  31.200  1.00  0.00     0.003 A 
ENDROOT
BRANCH   3  12
HETATM   12  C6  UNK     1      15.573   9.091  33.731  1.00  0.00     0.300 C 
HETATM   13  O1  UNK     1      15.716   9.596  35.060  1.00  0.00    -0.356 OA
HETATM   14  C2  UNK     1      14.543  10.304  35.466  1.00  0.00     0.184 C 
HETATM   15  C1  UNK     1      14.228  11.448  34.484  1.00  0.00     0.020 C 
HETATM   16  C3  UNK     1      14.181  10.865  33.058  1.00  0.00     0.184 C 
HETATM   17  C5  UNK     1      15.334  12.518  34.568  1.00  0.00     0.022 C 
HETATM   18  O2  UNK     1      15.373  10.130  32.772  1.00  0.00    -0.356 OA
BRANCH  15  19
HETATM   19  C4  UNK     1      12.879  12.087  34.836  1.00  0.00     0.177 C 
BRANCH  19  20
HETATM   20  O3  UNK     1      11.980  11.834  33.776  1.00  0.00    -0.400 OA
HETATM   21  H11 UNK     1      12.489  11.879  32.949  1.00  0.00     0.209 HD
ENDBRANCH  19  20
ENDBRANCH  15  19
ENDBRANCH   3  12
TORSDOF 3
ENDMDL
MODEL 9
REMARK VINA RESULT:      -7.2      6.319     10.605
REMARK  3 active torsions:
REMARK  status: ('A' for Active; 'I' for Inactive)
REMARK    1  A    between atoms: C4_9  and  O3_3 
REMARK    2  A    between atoms: C1_6  and  C4_9 
REMARK    3  A    between atoms: C6_11  and  C7_12 
ROOT
HETATM    1  O4  UNK     1      18.137  -1.163  38.199  1.00  0.00    -0.321 OA
HETATM    2  O5  UNK     1      20.117  -1.798  34.687  1.00  0.00    -0.287 OA
HETATM    3  C7  UNK     1      19.526  -2.612  36.837  1.00  0.00     0.070 A 
HETATM    4  C8  UNK     1      19.524  -1.611  35.742  1.00  0.00     0.198 A 
HETATM    5  C9  UNK     1      18.847  -2.313  37.953  1.00  0.00     0.158 A 
HETATM    6  C10 UNK     1      18.767  -0.370  35.991  1.00  0.00     0.049 A 
HETATM    7  C11 UNK     1      18.109  -0.210  37.212  1.00  0.00     0.089 A 
HETATM    8  C12 UNK     1      18.704   0.634  35.022  1.00  0.00     0.018 A 
HETATM    9  C13 UNK     1      17.387   0.955  37.469  1.00  0.00     0.038 A 
HETATM   10  C14 UNK     1      17.980   1.798  35.282  1.00  0.00     0.001 A 
HETATM   11  C15 UNK     1      17.324   1.959  36.503  1.00  0.00     0.003 A 
ENDROOT
BRANCH   3  12
HETATM   12  C6  UNK     1      20.279  -3.883  36.639  1.00  0.00     0.300 C 
HETATM   13  O1  UNK     1      20.859  -4.254  37.891  1.00  0.00    -0.356 OA
HETATM   14  C2  UNK     1      21.598  -5.471  37.771  1.00  0.00     0.184 C 
HETATM   15  C1  UNK     1      20.702  -6.603  37.236  1.00  0.00     0.020 C 
HETATM   16  C3  UNK     1      20.027  -6.116  35.939  1.00  0.00     0.184 C 
HETATM   17  C5  UNK     1      19.623  -6.945  38.282  1.00  0.00     0.022 C 
HETATM   18  O2  UNK     1      19.366  -4.868  36.150  1.00  0.00    -0.356 OA
BRANCH  15  19
HETATM   19  C4  UNK     1      21.545  -7.852  36.953  1.00  0.00     0.177 C 
BRANCH  19  20
HETATM   20  O3  UNK     1      21.570  -8.063  35.555  1.00  0.00    -0.400 OA
HETATM   21  H11 UNK     1      20.649  -8.044  35.246  1.00  0.00     0.209 HD
ENDBRANCH  19  20
ENDBRANCH  15  19
ENDBRANCH   3  12
TORSDOF 3
ENDMDL
MODEL 10
REMARK VINA RESULT:      -7.2     22.749     24.116
REMARK  3 active torsions:
REMARK  status: ('A' for Active; 'I' for Inactive)
REMARK    1  A    between atoms: C4_9  and  O3_3 
REMARK    2  A    between atoms: C1_6  and  C4_9 
REMARK    3  A    between atoms: C6_11  and  C7_12 
ROOT
HETATM    1  O4  UNK     1      10.739   8.036   9.487  1.00  0.00    -0.321 OA
HETATM    2  O5  UNK     1      13.443   7.079   6.584  1.00  0.00    -0.287 OA
HETATM    3  C7  UNK     1      13.024   8.119   8.677  1.00  0.00     0.070 A 
HETATM    4  C8  UNK     1      12.634   7.368   7.457  1.00  0.00     0.198 A 
HETATM    5  C9  UNK     1      12.065   8.386   9.573  1.00  0.00     0.158 A 
HETATM    6  C10 UNK     1      11.215   6.985   7.350  1.00  0.00     0.049 A 
HETATM    7  C11 UNK     1      10.337   7.340   8.375  1.00  0.00     0.089 A 
HETATM    8  C12 UNK     1      10.749   6.275   6.240  1.00  0.00     0.018 A 
HETATM    9  C13 UNK     1       8.990   6.988   8.296  1.00  0.00     0.038 A 
HETATM   10  C14 UNK     1       9.401   5.924   6.164  1.00  0.00     0.001 A 
HETATM   11  C15 UNK     1       8.523   6.279   7.188  1.00  0.00     0.003 A 
ENDROOT
BRANCH   3  12
HETATM   12  C6  UNK     1      14.447   8.534   8.833  1.00  0.00     0.300 C 
HETATM   13  O1  UNK     1      14.560   9.894   8.408  1.00  0.00    -0.356 OA
HETATM   14  C2  UNK     1      15.906  10.357   8.534  1.00  0.00     0.184 C 
HETATM   15  C1  UNK     1      16.404  10.201   9.983  1.00  0.00     0.020 C 
HETATM   16  C3  UNK     1      16.169   8.743  10.423  1.00  0.00     0.184 C 
HETATM   17  C5  UNK     1      15.614  11.151  10.904  1.00  0.00     0.022 C 
HETATM   18  O2  UNK     1      14.811   8.360  10.204  1.00  0.00    -0.356 OA
BRANCH  15  19
HETATM   19  C4  UNK     1      17.897  10.542  10.066  1.00  0.00     0.177 C 
BRANCH  19  20
HETATM   20  O3  UNK     1      18.422  10.555   8.754  1.00  0.00    -0.400 OA
HETATM   21  H11 UNK     1      18.618  11.481   8.532  1.00  0.00     0.209 HD
ENDBRANCH  19  20
ENDBRANCH  15  19
ENDBRANCH   3  12
TORSDOF 3
ENDMDL
