MODEL 1
REMARK VINA RESULT:      -9.3      0.000      0.000
REMARK  8 active torsions:
REMARK  status: ('A' for Active; 'I' for Inactive)
REMARK    1  A    between atoms: C13_24  and  O2_7 
REMARK    2  A    between atoms: C16_27  and  N1_10 
REMARK    3  A    between atoms: C5_16  and  N1_10 
REMARK    4  A    between atoms: C10_21  and  N2_11 
REMARK    5  A    between atoms: C16_27  and  N2_11 
REMARK    6  A    between atoms: C1_12  and  C3_14 
REMARK    7  A    between atoms: C13_24  and  C2_13 
REMARK    8  A    between atoms: C11_22  and  C18_29 
ROOT
HETATM    1  N2  UNK     1      17.553   3.915  31.454  1.00  0.00    -0.333 N 
HETATM    2  H13 UNK     1      16.561   3.936  31.230  1.00  0.00     0.168 HD
ENDROOT
BRANCH   1   3
HETATM    3  C10 UNK     1      18.166   2.674  31.285  1.00  0.00     0.036 A 
HETATM    4  C12 UNK     1      18.321   1.817  32.370  1.00  0.00     0.067 A 
HETATM    5  C7  UNK     1      18.937   0.580  32.178  1.00  0.00     0.092 A 
HETATM    6  C6  UNK     1      19.407   0.166  30.931  1.00  0.00     0.013 A 
HETATM    7  O1  UNK     1      19.065  -0.244  33.314  1.00  0.00    -0.275 OA
HETATM    8  C11 UNK     1      20.042  -1.154  30.820  1.00  0.00     0.066 A 
HETATM    9  C14 UNK     1      19.241   1.043  29.850  1.00  0.00     0.017 A 
HETATM   10  C17 UNK     1      20.150  -1.916  31.918  1.00  0.00     0.099 A 
HETATM   11  C19 UNK     1      19.659  -1.494  33.241  1.00  0.00     0.289 A 
HETATM   12  O4  UNK     1      19.776  -2.219  34.223  1.00  0.00    -0.260 OA
HETATM   13  C15 UNK     1      18.625   2.288  30.028  1.00  0.00     0.030 A 
BRANCH   8  14
HETATM   14  C18 UNK     1      20.558  -1.627  29.493  1.00  0.00     0.418 C 
HETATM   15  F1  UNK     1      21.475  -0.772  29.001  1.00  0.00    -0.166 F 
HETATM   16  F2  UNK     1      21.137  -2.839  29.606  1.00  0.00    -0.166 F 
HETATM   17  F3  UNK     1      19.558  -1.727  28.594  1.00  0.00    -0.166 F 
ENDBRANCH   8  14
ENDBRANCH   1   3
BRANCH   1  18
HETATM   18  C16 UNK     1      18.098   5.153  31.746  1.00  0.00     0.177 C 
HETATM   19  S2  UNK     1      19.010   5.950  30.574  1.00  0.00    -0.040 SA
BRANCH  18  20
HETATM   20  N1  UNK     1      17.898   5.763  32.953  1.00  0.00    -0.327 N 
HETATM   21  H9  UNK     1      18.062   5.126  33.730  1.00  0.00     0.169 HD
BRANCH  20  22
HETATM   22  C5  UNK     1      18.251   7.070  33.312  1.00  0.00     0.093 A 
HETATM   23  C2  UNK     1      17.568   8.234  33.174  1.00  0.00     0.080 A 
HETATM   24  C1  UNK     1      18.319   9.333  33.684  1.00  0.00    -0.027 A 
HETATM   25  C4  UNK     1      19.540   8.936  34.184  1.00  0.00    -0.012 A 
HETATM   26  S1  UNK     1      19.777   7.246  34.037  1.00  0.00    -0.076 SA
HETATM   27  C9  UNK     1      20.605   9.761  34.798  1.00  0.00     0.057 C 
BRANCH  23  28
HETATM   28  C13 UNK     1      16.254   8.320  32.586  1.00  0.00     0.296 C 
HETATM   29  O3  UNK     1      16.029   8.800  31.466  1.00  0.00    -0.259 OA
BRANCH  28  30
HETATM   30  O2  UNK     1      15.251   7.817  33.386  1.00  0.00    -0.322 OA
HETATM   31  C20 UNK     1      14.087   7.310  32.720  1.00  0.00     0.213 C 
ENDBRANCH  28  30
ENDBRANCH  23  28
BRANCH  24  32
HETATM   32  C3  UNK     1      17.843  10.738  33.680  1.00  0.00     0.036 C 
HETATM   33  C8  UNK     1      16.640  10.962  34.593  1.00  0.00     0.010 C 
ENDBRANCH  24  32
ENDBRANCH  20  22
ENDBRANCH  18  20
ENDBRANCH   1  18
TORSDOF 8
ENDMDL
MODEL 2
REMARK VINA RESULT:      -9.1      5.826     11.187
REMARK  8 active torsions:
REMARK  status: ('A' for Active; 'I' for Inactive)
REMARK    1  A    between atoms: C13_24  and  O2_7 
REMARK    2  A    between atoms: C16_27  and  N1_10 
REMARK    3  A    between atoms: C5_16  and  N1_10 
REMARK    4  A    between atoms: C10_21  and  N2_11 
REMARK    5  A    between atoms: C16_27  and  N2_11 
REMARK    6  A    between atoms: C1_12  and  C3_14 
REMARK    7  A    between atoms: C13_24  and  C2_13 
REMARK    8  A    between atoms: C11_22  and  C18_29 
ROOT
HETATM    1  N2  UNK     1      20.278  -2.650  35.276  1.00  0.00    -0.333 N 
HETATM    2  H13 UNK     1      21.242  -2.866  35.521  1.00  0.00     0.168 HD
ENDROOT
BRANCH   1   3
HETATM    3  C10 UNK     1      20.109  -2.058  34.025  1.00  0.00     0.036 A 
HETATM    4  C12 UNK     1      19.433  -0.848  33.911  1.00  0.00     0.067 A 
HETATM    5  C7  UNK     1      19.276  -0.272  32.650  1.00  0.00     0.092 A 
HETATM    6  C6  UNK     1      19.775  -0.867  31.490  1.00  0.00     0.013 A 
HETATM    7  O1  UNK     1      18.583   0.954  32.598  1.00  0.00    -0.275 OA
HETATM    8  C11 UNK     1      19.564  -0.190  30.204  1.00  0.00     0.066 A 
HETATM    9  C14 UNK     1      20.453  -2.086  31.627  1.00  0.00     0.017 A 
HETATM   10  C17 UNK     1      18.901   0.974  30.185  1.00  0.00     0.099 A 
HETATM   11  C19 UNK     1      18.369   1.616  31.399  1.00  0.00     0.289 A 
HETATM   12  O4  UNK     1      17.767   2.683  31.342  1.00  0.00    -0.260 OA
HETATM   13  C15 UNK     1      20.619  -2.676  32.885  1.00  0.00     0.030 A 
BRANCH   8  14
HETATM   14  C18 UNK     1      20.088  -0.806  28.939  1.00  0.00     0.418 C 
HETATM   15  F1  UNK     1      19.463  -0.294  27.861  1.00  0.00    -0.166 F 
HETATM   16  F2  UNK     1      21.408  -0.576  28.803  1.00  0.00    -0.166 F 
HETATM   17  F3  UNK     1      19.896  -2.140  28.936  1.00  0.00    -0.166 F 
ENDBRANCH   8  14
ENDBRANCH   1   3
BRANCH   1  18
HETATM   18  C16 UNK     1      19.341  -3.118  36.181  1.00  0.00     0.177 C 
HETATM   19  S2  UNK     1      18.463  -2.016  37.106  1.00  0.00    -0.040 SA
BRANCH  18  20
HETATM   20  N1  UNK     1      19.088  -4.453  36.332  1.00  0.00    -0.327 N 
HETATM   21  H9  UNK     1      18.464  -4.803  35.609  1.00  0.00     0.169 HD
BRANCH  20  22
HETATM   22  C5  UNK     1      19.992  -5.450  36.719  1.00  0.00     0.093 A 
HETATM   23  C2  UNK     1      20.425  -6.550  36.053  1.00  0.00     0.080 A 
HETATM   24  C1  UNK     1      21.355  -7.292  36.839  1.00  0.00    -0.027 A 
HETATM   25  C4  UNK     1      21.575  -6.707  38.067  1.00  0.00    -0.012 A 
HETATM   26  S1  UNK     1      20.664  -5.271  38.268  1.00  0.00    -0.076 SA
HETATM   27  C9  UNK     1      22.461  -7.157  39.165  1.00  0.00     0.057 C 
BRANCH  23  28
HETATM   28  C13 UNK     1      19.988  -6.898  34.724  1.00  0.00     0.296 C 
HETATM   29  O3  UNK     1      20.738  -6.938  33.738  1.00  0.00    -0.259 OA
BRANCH  28  30
HETATM   30  O2  UNK     1      18.644  -7.188  34.636  1.00  0.00    -0.322 OA
HETATM   31  C20 UNK     1      18.061  -7.891  35.741  1.00  0.00     0.213 C 
ENDBRANCH  28  30
ENDBRANCH  23  28
BRANCH  24  32
HETATM   32  C3  UNK     1      22.010  -8.545  36.389  1.00  0.00     0.036 C 
HETATM   33  C8  UNK     1      21.210  -9.796  36.746  1.00  0.00     0.010 C 
ENDBRANCH  24  32
ENDBRANCH  20  22
ENDBRANCH  18  20
ENDBRANCH   1  18
TORSDOF 8
ENDMDL
MODEL 3
REMARK VINA RESULT:      -8.9      7.407     10.135
REMARK  8 active torsions:
REMARK  status: ('A' for Active; 'I' for Inactive)
REMARK    1  A    between atoms: C13_24  and  O2_7 
REMARK    2  A    between atoms: C16_27  and  N1_10 
REMARK    3  A    between atoms: C5_16  and  N1_10 
REMARK    4  A    between atoms: C10_21  and  N2_11 
REMARK    5  A    between atoms: C16_27  and  N2_11 
REMARK    6  A    between atoms: C1_12  and  C3_14 
REMARK    7  A    between atoms: C13_24  and  C2_13 
REMARK    8  A    between atoms: C11_22  and  C18_29 
ROOT
HETATM    1  N2  UNK     1      18.505  -5.091  36.691  1.00  0.00    -0.333 N 
HETATM    2  H13 UNK     1      17.489  -5.126  36.745  1.00  0.00     0.168 HD
ENDROOT
BRANCH   1   3
HETATM    3  C10 UNK     1      19.132  -6.335  36.627  1.00  0.00     0.036 A 
HETATM    4  C12 UNK     1      18.729  -7.365  37.470  1.00  0.00     0.067 A 
HETATM    5  C7  UNK     1      19.369  -8.602  37.388  1.00  0.00     0.092 A 
HETATM    6  C6  UNK     1      20.406  -8.848  36.486  1.00  0.00     0.013 A 
HETATM    7  O1  UNK     1      18.917  -9.606  38.268  1.00  0.00    -0.275 OA
HETATM    8  C11 UNK     1      21.023 -10.181  36.468  1.00  0.00     0.066 A 
HETATM    9  C14 UNK     1      20.796  -7.797  35.644  1.00  0.00     0.017 A 
HETATM   10  C17 UNK     1      20.573 -11.116  37.316  1.00  0.00     0.099 A 
HETATM   11  C19 UNK     1      19.480 -10.873  38.274  1.00  0.00     0.289 A 
HETATM   12  O4  UNK     1      19.095 -11.754  39.035  1.00  0.00    -0.260 OA
HETATM   13  C15 UNK     1      20.163  -6.551  35.715  1.00  0.00     0.030 A 
BRANCH   8  14
HETATM   14  C18 UNK     1      22.140 -10.475  35.510  1.00  0.00     0.418 C 
HETATM   15  F1  UNK     1      23.228  -9.737  35.800  1.00  0.00    -0.166 F 
HETATM   16  F2  UNK     1      22.491 -11.775  35.565  1.00  0.00    -0.166 F 
HETATM   17  F3  UNK     1      21.774 -10.198  34.242  1.00  0.00    -0.166 F 
ENDBRANCH   8  14
ENDBRANCH   1   3
BRANCH   1  18
HETATM   18  C16 UNK     1      19.026  -3.816  36.557  1.00  0.00     0.177 C 
HETATM   19  S2  UNK     1      20.484  -3.436  37.310  1.00  0.00    -0.040 SA
BRANCH  18  20
HETATM   20  N1  UNK     1      18.401  -2.858  35.808  1.00  0.00    -0.327 N 
HETATM   21  H9  UNK     1      17.560  -3.216  35.362  1.00  0.00     0.169 HD
BRANCH  20  22
HETATM   22  C5  UNK     1      18.247  -1.502  36.122  1.00  0.00     0.093 A 
HETATM   23  C2  UNK     1      18.343  -0.401  35.334  1.00  0.00     0.080 A 
HETATM   24  C1  UNK     1      18.108   0.788  36.085  1.00  0.00    -0.027 A 
HETATM   25  C4  UNK     1      17.846   0.518  37.410  1.00  0.00    -0.012 A 
HETATM   26  S1  UNK     1      17.884  -1.160  37.745  1.00  0.00    -0.076 SA
HETATM   27  C9  UNK     1      17.551   1.465  38.510  1.00  0.00     0.057 C 
BRANCH  23  28
HETATM   28  C13 UNK     1      18.643  -0.455  33.925  1.00  0.00     0.296 C 
HETATM   29  O3  UNK     1      18.079   0.245  33.072  1.00  0.00    -0.259 OA
BRANCH  28  30
HETATM   30  O2  UNK     1      19.624  -1.365  33.597  1.00  0.00    -0.322 OA
HETATM   31  C20 UNK     1      19.697  -1.771  32.225  1.00  0.00     0.213 C 
ENDBRANCH  28  30
ENDBRANCH  23  28
BRANCH  24  32
HETATM   32  C3  UNK     1      18.140   2.155  35.508  1.00  0.00     0.036 C 
HETATM   33  C8  UNK     1      19.485   2.853  35.706  1.00  0.00     0.010 C 
ENDBRANCH  24  32
ENDBRANCH  20  22
ENDBRANCH  18  20
ENDBRANCH   1  18
TORSDOF 8
ENDMDL
MODEL 4
REMARK VINA RESULT:      -8.6      6.549      9.858
REMARK  8 active torsions:
REMARK  status: ('A' for Active; 'I' for Inactive)
REMARK    1  A    between atoms: C13_24  and  O2_7 
REMARK    2  A    between atoms: C16_27  and  N1_10 
REMARK    3  A    between atoms: C5_16  and  N1_10 
REMARK    4  A    between atoms: C10_21  and  N2_11 
REMARK    5  A    between atoms: C16_27  and  N2_11 
REMARK    6  A    between atoms: C1_12  and  C3_14 
REMARK    7  A    between atoms: C13_24  and  C2_13 
REMARK    8  A    between atoms: C11_22  and  C18_29 
ROOT
HETATM    1  N2  UNK     1      18.643  -3.807  36.496  1.00  0.00    -0.333 N 
HETATM    2  H13 UNK     1      17.724  -4.125  36.197  1.00  0.00     0.168 HD
ENDROOT
BRANCH   1   3
HETATM    3  C10 UNK     1      19.565  -4.823  36.743  1.00  0.00     0.036 A 
HETATM    4  C12 UNK     1      19.662  -5.905  35.874  1.00  0.00     0.067 A 
HETATM    5  C7  UNK     1      20.592  -6.911  36.139  1.00  0.00     0.092 A 
HETATM    6  C6  UNK     1      21.435  -6.873  37.250  1.00  0.00     0.013 A 
HETATM    7  O1  UNK     1      20.643  -7.981  35.223  1.00  0.00    -0.275 OA
HETATM    8  C11 UNK     1      22.385  -7.975  37.452  1.00  0.00     0.066 A 
HETATM    9  C14 UNK     1      21.323  -5.774  38.113  1.00  0.00     0.017 A 
HETATM   10  C17 UNK     1      22.411  -8.979  36.564  1.00  0.00     0.099 A 
HETATM   11  C19 UNK     1      21.529  -9.034  35.386  1.00  0.00     0.289 A 
HETATM   12  O4  UNK     1      21.581  -9.970  34.596  1.00  0.00    -0.260 OA
HETATM   13  C15 UNK     1      20.395  -4.758  37.860  1.00  0.00     0.030 A 
BRANCH   8  14
HETATM   14  C18 UNK     1      23.305  -7.963  38.637  1.00  0.00     0.418 C 
HETATM   15  F1  UNK     1      24.404  -8.705  38.400  1.00  0.00    -0.166 F 
HETATM   16  F2  UNK     1      23.704  -6.708  38.924  1.00  0.00    -0.166 F 
HETATM   17  F3  UNK     1      22.693  -8.464  39.729  1.00  0.00    -0.166 F 
ENDBRANCH   8  14
ENDBRANCH   1   3
BRANCH   1  18
HETATM   18  C16 UNK     1      18.811  -2.433  36.458  1.00  0.00     0.177 C 
HETATM   19  S2  UNK     1      17.847  -1.456  37.435  1.00  0.00    -0.040 SA
BRANCH  18  20
HETATM   20  N1  UNK     1      19.757  -1.844  35.666  1.00  0.00    -0.327 N 
HETATM   21  H9  UNK     1      20.700  -2.099  35.951  1.00  0.00     0.169 HD
BRANCH  20  22
HETATM   22  C5  UNK     1      19.703  -1.652  34.280  1.00  0.00     0.093 A 
HETATM   23  C2  UNK     1      19.041  -0.721  33.548  1.00  0.00     0.080 A 
HETATM   24  C1  UNK     1      19.274  -0.905  32.153  1.00  0.00    -0.027 A 
HETATM   25  C4  UNK     1      20.107  -1.974  31.906  1.00  0.00    -0.012 A 
HETATM   26  S1  UNK     1      20.602  -2.751  33.349  1.00  0.00    -0.076 SA
HETATM   27  C9  UNK     1      20.591  -2.494  30.606  1.00  0.00     0.057 C 
BRANCH  23  28
HETATM   28  C13 UNK     1      18.218   0.310  34.129  1.00  0.00     0.296 C 
HETATM   29  O3  UNK     1      16.993   0.393  33.960  1.00  0.00    -0.259 OA
BRANCH  28  30
HETATM   30  O2  UNK     1      18.915   1.213  34.901  1.00  0.00    -0.322 OA
HETATM   31  C20 UNK     1      18.434   2.563  34.911  1.00  0.00     0.213 C 
ENDBRANCH  28  30
ENDBRANCH  23  28
BRANCH  24  32
HETATM   32  C3  UNK     1      18.692  -0.046  31.092  1.00  0.00     0.036 C 
HETATM   33  C8  UNK     1      19.679   0.990  30.557  1.00  0.00     0.010 C 
ENDBRANCH  24  32
ENDBRANCH  20  22
ENDBRANCH  18  20
ENDBRANCH   1  18
TORSDOF 8
ENDMDL
MODEL 5
REMARK VINA RESULT:      -8.5      7.004      9.821
REMARK  8 active torsions:
REMARK  status: ('A' for Active; 'I' for Inactive)
REMARK    1  A    between atoms: C13_24  and  O2_7 
REMARK    2  A    between atoms: C16_27  and  N1_10 
REMARK    3  A    between atoms: C5_16  and  N1_10 
REMARK    4  A    between atoms: C10_21  and  N2_11 
REMARK    5  A    between atoms: C16_27  and  N2_11 
REMARK    6  A    between atoms: C1_12  and  C3_14 
REMARK    7  A    between atoms: C13_24  and  C2_13 
REMARK    8  A    between atoms: C11_22  and  C18_29 
ROOT
HETATM    1  N2  UNK     1      18.690  -4.064  36.482  1.00  0.00    -0.333 N 
HETATM    2  H13 UNK     1      17.703  -4.239  36.309  1.00  0.00     0.168 HD
ENDROOT
BRANCH   1   3
HETATM    3  C10 UNK     1      19.497  -5.201  36.478  1.00  0.00     0.036 A 
HETATM    4  C12 UNK     1      20.554  -5.311  37.376  1.00  0.00     0.067 A 
HETATM    5  C7  UNK     1      21.348  -6.458  37.357  1.00  0.00     0.092 A 
HETATM    6  C6  UNK     1      21.121  -7.507  36.464  1.00  0.00     0.013 A 
HETATM    7  O1  UNK     1      22.403  -6.511  38.290  1.00  0.00    -0.275 OA
HETATM    8  C11 UNK     1      22.007  -8.677  36.514  1.00  0.00     0.066 A 
HETATM    9  C14 UNK     1      20.051  -7.377  35.568  1.00  0.00     0.017 A 
HETATM   10  C17 UNK     1      23.002  -8.700  37.411  1.00  0.00     0.099 A 
HETATM   11  C19 UNK     1      23.254  -7.602  38.360  1.00  0.00     0.289 A 
HETATM   12  O4  UNK     1      24.175  -7.659  39.168  1.00  0.00    -0.260 OA
HETATM   13  C15 UNK     1      19.246  -6.232  35.576  1.00  0.00     0.030 A 
BRANCH   8  14
HETATM   14  C18 UNK     1      21.789  -9.821  35.567  1.00  0.00     0.418 C 
HETATM   15  F1  UNK     1      21.722  -9.385  34.294  1.00  0.00    -0.166 F 
HETATM   16  F2  UNK     1      22.797 -10.712  35.649  1.00  0.00    -0.166 F 
HETATM   17  F3  UNK     1      20.640 -10.467  35.846  1.00  0.00    -0.166 F 
ENDBRANCH   8  14
ENDBRANCH   1   3
BRANCH   1  18
HETATM   18  C16 UNK     1      19.029  -2.723  36.546  1.00  0.00     0.177 C 
HETATM   19  S2  UNK     1      18.276  -1.734  37.683  1.00  0.00    -0.040 SA
BRANCH  18  20
HETATM   20  N1  UNK     1      19.980  -2.180  35.727  1.00  0.00    -0.327 N 
HETATM   21  H9  UNK     1      20.913  -2.511  35.960  1.00  0.00     0.169 HD
BRANCH  20  22
HETATM   22  C5  UNK     1      19.878  -1.940  34.351  1.00  0.00     0.093 A 
HETATM   23  C2  UNK     1      19.166  -1.005  33.673  1.00  0.00     0.080 A 
HETATM   24  C1  UNK     1      19.362  -1.132  32.266  1.00  0.00    -0.027 A 
HETATM   25  C4  UNK     1      20.218  -2.166  31.956  1.00  0.00    -0.012 A 
HETATM   26  S1  UNK     1      20.781  -2.978  33.355  1.00  0.00    -0.076 SA
HETATM   27  C9  UNK     1      20.678  -2.624  30.625  1.00  0.00     0.057 C 
BRANCH  23  28
HETATM   28  C13 UNK     1      18.330  -0.021  34.315  1.00  0.00     0.296 C 
HETATM   29  O3  UNK     1      18.768   0.920  34.994  1.00  0.00    -0.259 OA
BRANCH  28  30
HETATM   30  O2  UNK     1      16.981  -0.215  34.111  1.00  0.00    -0.322 OA
HETATM   31  C20 UNK     1      16.101   0.221  35.154  1.00  0.00     0.213 C 
ENDBRANCH  28  30
ENDBRANCH  23  28
BRANCH  24  32
HETATM   32  C3  UNK     1      18.722  -0.255  31.255  1.00  0.00     0.036 C 
HETATM   33  C8  UNK     1      19.661   0.828  30.727  1.00  0.00     0.010 C 
ENDBRANCH  24  32
ENDBRANCH  20  22
ENDBRANCH  18  20
ENDBRANCH   1  18
TORSDOF 8
ENDMDL
MODEL 6
REMARK VINA RESULT:      -8.5      4.276      9.074
REMARK  8 active torsions:
REMARK  status: ('A' for Active; 'I' for Inactive)
REMARK    1  A    between atoms: C13_24  and  O2_7 
REMARK    2  A    between atoms: C16_27  and  N1_10 
REMARK    3  A    between atoms: C5_16  and  N1_10 
REMARK    4  A    between atoms: C10_21  and  N2_11 
REMARK    5  A    between atoms: C16_27  and  N2_11 
REMARK    6  A    between atoms: C1_12  and  C3_14 
REMARK    7  A    between atoms: C13_24  and  C2_13 
REMARK    8  A    between atoms: C11_22  and  C18_29 
ROOT
HETATM    1  N2  UNK     1      19.346   3.823  30.413  1.00  0.00    -0.333 N 
HETATM    2  H13 UNK     1      20.042   3.886  29.674  1.00  0.00     0.168 HD
ENDROOT
BRANCH   1   3
HETATM    3  C10 UNK     1      19.226   4.965  31.204  1.00  0.00     0.036 A 
HETATM    4  C12 UNK     1      18.035   5.684  31.218  1.00  0.00     0.067 A 
HETATM    5  C7  UNK     1      17.936   6.822  32.019  1.00  0.00     0.092 A 
HETATM    6  C6  UNK     1      18.993   7.272  32.811  1.00  0.00     0.013 A 
HETATM    7  O1  UNK     1      16.704   7.508  31.991  1.00  0.00    -0.275 OA
HETATM    8  C11 UNK     1      18.801   8.481  33.623  1.00  0.00     0.066 A 
HETATM    9  C14 UNK     1      20.184   6.534  32.783  1.00  0.00     0.017 A 
HETATM   10  C17 UNK     1      17.619   9.112  33.576  1.00  0.00     0.099 A 
HETATM   11  C19 UNK     1      16.493   8.651  32.746  1.00  0.00     0.289 A 
HETATM   12  O4  UNK     1      15.427   9.255  32.730  1.00  0.00    -0.260 OA
HETATM   13  C15 UNK     1      20.298   5.389  31.985  1.00  0.00     0.030 A 
BRANCH   8  14
HETATM   14  C18 UNK     1      19.919   8.989  34.485  1.00  0.00     0.418 C 
HETATM   15  F1  UNK     1      19.733  10.286  34.797  1.00  0.00    -0.166 F 
HETATM   16  F2  UNK     1      19.996   8.290  35.634  1.00  0.00    -0.166 F 
HETATM   17  F3  UNK     1      21.105   8.879  33.852  1.00  0.00    -0.166 F 
ENDBRANCH   8  14
ENDBRANCH   1   3
BRANCH   1  18
HETATM   18  C16 UNK     1      18.580   2.671  30.379  1.00  0.00     0.177 C 
HETATM   19  S2  UNK     1      18.087   2.049  28.892  1.00  0.00    -0.040 SA
BRANCH  18  20
HETATM   20  N1  UNK     1      18.230   2.004  31.520  1.00  0.00    -0.327 N 
HETATM   21  H9  UNK     1      17.232   2.071  31.706  1.00  0.00     0.169 HD
BRANCH  20  22
HETATM   22  C5  UNK     1      18.729   0.776  31.972  1.00  0.00     0.093 A 
HETATM   23  C2  UNK     1      18.559   0.143  33.160  1.00  0.00     0.080 A 
HETATM   24  C1  UNK     1      19.258  -1.100  33.183  1.00  0.00    -0.027 A 
HETATM   25  C4  UNK     1      19.924  -1.339  32.000  1.00  0.00    -0.012 A 
HETATM   26  S1  UNK     1      19.706  -0.071  30.871  1.00  0.00    -0.076 SA
HETATM   27  C9  UNK     1      20.756  -2.504  31.622  1.00  0.00     0.057 C 
BRANCH  23  28
HETATM   28  C13 UNK     1      17.768   0.677  34.241  1.00  0.00     0.296 C 
HETATM   29  O3  UNK     1      16.532   0.764  34.215  1.00  0.00    -0.259 OA
BRANCH  28  30
HETATM   30  O2  UNK     1      18.511   1.093  35.324  1.00  0.00    -0.322 OA
HETATM   31  C20 UNK     1      17.966   0.827  36.622  1.00  0.00     0.213 C 
ENDBRANCH  28  30
ENDBRANCH  23  28
BRANCH  24  32
HETATM   32  C3  UNK     1      19.267  -2.028  34.341  1.00  0.00     0.036 C 
HETATM   33  C8  UNK     1      20.477  -1.830  35.252  1.00  0.00     0.010 C 
ENDBRANCH  24  32
ENDBRANCH  20  22
ENDBRANCH  18  20
ENDBRANCH   1  18
TORSDOF 8
ENDMDL
MODEL 7
REMARK VINA RESULT:      -8.5      1.560      2.685
REMARK  8 active torsions:
REMARK  status: ('A' for Active; 'I' for Inactive)
REMARK    1  A    between atoms: C13_24  and  O2_7 
REMARK    2  A    between atoms: C16_27  and  N1_10 
REMARK    3  A    between atoms: C5_16  and  N1_10 
REMARK    4  A    between atoms: C10_21  and  N2_11 
REMARK    5  A    between atoms: C16_27  and  N2_11 
REMARK    6  A    between atoms: C1_12  and  C3_14 
REMARK    7  A    between atoms: C13_24  and  C2_13 
REMARK    8  A    between atoms: C11_22  and  C18_29 
ROOT
HETATM    1  N2  UNK     1      17.530   4.141  31.450  1.00  0.00    -0.333 N 
HETATM    2  H13 UNK     1      16.591   4.229  31.069  1.00  0.00     0.168 HD
ENDROOT
BRANCH   1   3
HETATM    3  C10 UNK     1      18.135   2.903  31.240  1.00  0.00     0.036 A 
HETATM    4  C12 UNK     1      18.310   2.021  32.301  1.00  0.00     0.067 A 
HETATM    5  C7  UNK     1      18.917   0.786  32.067  1.00  0.00     0.092 A 
HETATM    6  C6  UNK     1      19.359   0.400  30.801  1.00  0.00     0.013 A 
HETATM    7  O1  UNK     1      19.066  -0.064  33.182  1.00  0.00    -0.275 OA
HETATM    8  C11 UNK     1      19.987  -0.919  30.647  1.00  0.00     0.066 A 
HETATM    9  C14 UNK     1      19.173   1.302  29.745  1.00  0.00     0.017 A 
HETATM   10  C17 UNK     1      20.115  -1.706  31.724  1.00  0.00     0.099 A 
HETATM   11  C19 UNK     1      19.654  -1.314  33.067  1.00  0.00     0.289 A 
HETATM   12  O4  UNK     1      19.790  -2.061  34.029  1.00  0.00    -0.260 OA
HETATM   13  C15 UNK     1      18.565   2.544  29.964  1.00  0.00     0.030 A 
BRANCH   8  14
HETATM   14  C18 UNK     1      20.472  -1.364  29.298  1.00  0.00     0.418 C 
HETATM   15  F1  UNK     1      20.984  -2.608  29.358  1.00  0.00    -0.166 F 
HETATM   16  F2  UNK     1      19.465  -1.370  28.403  1.00  0.00    -0.166 F 
HETATM   17  F3  UNK     1      21.434  -0.540  28.835  1.00  0.00    -0.166 F 
ENDBRANCH   8  14
ENDBRANCH   1   3
BRANCH   1  18
HETATM   18  C16 UNK     1      18.046   5.315  31.972  1.00  0.00     0.177 C 
HETATM   19  S2  UNK     1      19.206   6.168  31.096  1.00  0.00    -0.040 SA
BRANCH  18  20
HETATM   20  N1  UNK     1      17.624   5.818  33.171  1.00  0.00    -0.327 N 
HETATM   21  H9  UNK     1      18.269   5.591  33.924  1.00  0.00     0.169 HD
BRANCH  20  22
HETATM   22  C5  UNK     1      17.021   7.061  33.405  1.00  0.00     0.093 A 
HETATM   23  C2  UNK     1      17.495   8.162  34.039  1.00  0.00     0.080 A 
HETATM   24  C1  UNK     1      16.527   9.209  34.042  1.00  0.00    -0.027 A 
HETATM   25  C4  UNK     1      15.364   8.837  33.404  1.00  0.00    -0.012 A 
HETATM   26  S1  UNK     1      15.441   7.234  32.807  1.00  0.00    -0.076 SA
HETATM   27  C9  UNK     1      14.129   9.626  33.192  1.00  0.00     0.057 C 
BRANCH  23  28
HETATM   28  C13 UNK     1      18.812   8.239  34.623  1.00  0.00     0.296 C 
HETATM   29  O3  UNK     1      19.119   7.714  35.703  1.00  0.00    -0.259 OA
BRANCH  28  30
HETATM   30  O2  UNK     1      19.716   8.955  33.870  1.00  0.00    -0.322 OA
HETATM   31  C20 UNK     1      20.773   9.611  34.581  1.00  0.00     0.213 C 
ENDBRANCH  28  30
ENDBRANCH  23  28
BRANCH  24  32
HETATM   32  C3  UNK     1      16.746  10.542  34.657  1.00  0.00     0.036 C 
HETATM   33  C8  UNK     1      17.660  11.438  33.824  1.00  0.00     0.010 C 
ENDBRANCH  24  32
ENDBRANCH  20  22
ENDBRANCH  18  20
ENDBRANCH   1  18
TORSDOF 8
ENDMDL
MODEL 8
REMARK VINA RESULT:      -8.4      4.557      9.837
REMARK  8 active torsions:
REMARK  status: ('A' for Active; 'I' for Inactive)
REMARK    1  A    between atoms: C13_24  and  O2_7 
REMARK    2  A    between atoms: C16_27  and  N1_10 
REMARK    3  A    between atoms: C5_16  and  N1_10 
REMARK    4  A    between atoms: C10_21  and  N2_11 
REMARK    5  A    between atoms: C16_27  and  N2_11 
REMARK    6  A    between atoms: C1_12  and  C3_14 
REMARK    7  A    between atoms: C13_24  and  C2_13 
REMARK    8  A    between atoms: C11_22  and  C18_29 
ROOT
HETATM    1  N2  UNK     1      18.408   4.795  33.012  1.00  0.00    -0.333 N 
HETATM    2  H13 UNK     1      18.663   4.232  33.821  1.00  0.00     0.168 HD
ENDROOT
BRANCH   1   3
HETATM    3  C10 UNK     1      18.210   6.149  33.280  1.00  0.00     0.036 A 
HETATM    4  C12 UNK     1      16.921   6.659  33.385  1.00  0.00     0.067 A 
HETATM    5  C7  UNK     1      16.745   8.017  33.655  1.00  0.00     0.092 A 
HETATM    6  C6  UNK     1      17.822   8.889  33.823  1.00  0.00     0.013 A 
HETATM    7  O1  UNK     1      15.416   8.475  33.750  1.00  0.00    -0.275 OA
HETATM    8  C11 UNK     1      17.544  10.304  34.104  1.00  0.00     0.066 A 
HETATM    9  C14 UNK     1      19.113   8.356  33.713  1.00  0.00     0.017 A 
HETATM   10  C17 UNK     1      16.270  10.711  34.189  1.00  0.00     0.099 A 
HETATM   11  C19 UNK     1      15.123   9.804  34.015  1.00  0.00     0.289 A 
HETATM   12  O4  UNK     1      13.970  10.213  34.099  1.00  0.00    -0.260 OA
HETATM   13  C15 UNK     1      19.305   6.996  33.444  1.00  0.00     0.030 A 
BRANCH   8  14
HETATM   14  C18 UNK     1      18.681  11.267  34.290  1.00  0.00     0.418 C 
HETATM   15  F1  UNK     1      19.109  11.739  33.103  1.00  0.00    -0.166 F 
HETATM   16  F2  UNK     1      18.303  12.317  35.044  1.00  0.00    -0.166 F 
HETATM   17  F3  UNK     1      19.724  10.671  34.901  1.00  0.00    -0.166 F 
ENDBRANCH   8  14
ENDBRANCH   1   3
BRANCH   1  18
HETATM   18  C16 UNK     1      18.450   4.115  31.807  1.00  0.00     0.177 C 
HETATM   19  S2  UNK     1      19.304   4.777  30.514  1.00  0.00    -0.040 SA
BRANCH  18  20
HETATM   20  N1  UNK     1      17.836   2.905  31.641  1.00  0.00    -0.327 N 
HETATM   21  H9  UNK     1      16.994   2.983  31.075  1.00  0.00     0.169 HD
BRANCH  20  22
HETATM   22  C5  UNK     1      18.450   1.663  31.432  1.00  0.00     0.093 A 
HETATM   23  C2  UNK     1      18.669   0.636  32.291  1.00  0.00     0.080 A 
HETATM   24  C1  UNK     1      19.335  -0.443  31.640  1.00  0.00    -0.027 A 
HETATM   25  C4  UNK     1      19.586  -0.170  30.313  1.00  0.00    -0.012 A 
HETATM   26  S1  UNK     1      19.020   1.381  29.858  1.00  0.00    -0.076 SA
HETATM   27  C9  UNK     1      20.250  -1.020  29.299  1.00  0.00     0.057 C 
BRANCH  23  28
HETATM   28  C13 UNK     1      18.269   0.659  33.676  1.00  0.00     0.296 C 
HETATM   29  O3  UNK     1      19.036   0.422  34.621  1.00  0.00    -0.259 OA
BRANCH  28  30
HETATM   30  O2  UNK     1      16.940   0.969  33.869  1.00  0.00    -0.322 OA
HETATM   31  C20 UNK     1      16.280   0.330  34.968  1.00  0.00     0.213 C 
ENDBRANCH  28  30
ENDBRANCH  23  28
BRANCH  24  32
HETATM   32  C3  UNK     1      19.714  -1.712  32.310  1.00  0.00     0.036 C 
HETATM   33  C8  UNK     1      21.220  -1.844  32.527  1.00  0.00     0.010 C 
ENDBRANCH  24  32
ENDBRANCH  20  22
ENDBRANCH  18  20
ENDBRANCH   1  18
TORSDOF 8
ENDMDL
MODEL 9
REMARK VINA RESULT:      -8.4     16.863     18.923
REMARK  8 active torsions:
REMARK  status: ('A' for Active; 'I' for Inactive)
REMARK    1  A    between atoms: C13_24  and  O2_7 
REMARK    2  A    between atoms: C16_27  and  N1_10 
REMARK    3  A    between atoms: C5_16  and  N1_10 
REMARK    4  A    between atoms: C10_21  and  N2_11 
REMARK    5  A    between atoms: C16_27  and  N2_11 
REMARK    6  A    between atoms: C1_12  and  C3_14 
REMARK    7  A    between atoms: C13_24  and  C2_13 
REMARK    8  A    between atoms: C11_22  and  C18_29 
ROOT
HETATM    1  N2  UNK     1      34.268  -7.995  35.415  1.00  0.00    -0.333 N 
HETATM    2  H13 UNK     1      34.368  -8.967  35.698  1.00  0.00     0.168 HD
ENDROOT
BRANCH   1   3
HETATM    3  C10 UNK     1      33.882  -7.807  34.089  1.00  0.00     0.036 A 
HETATM    4  C12 UNK     1      34.823  -7.894  33.068  1.00  0.00     0.067 A 
HETATM    5  C7  UNK     1      34.415  -7.704  31.747  1.00  0.00     0.092 A 
HETATM    6  C6  UNK     1      33.090  -7.427  31.409  1.00  0.00     0.013 A 
HETATM    7  O1  UNK     1      35.413  -7.804  30.758  1.00  0.00    -0.275 OA
HETATM    8  C11 UNK     1      32.749  -7.241  29.992  1.00  0.00     0.066 A 
HETATM    9  C14 UNK     1      32.156  -7.344  32.451  1.00  0.00     0.017 A 
HETATM   10  C17 UNK     1      33.719  -7.342  29.073  1.00  0.00     0.099 A 
HETATM   11  C19 UNK     1      35.122  -7.634  29.413  1.00  0.00     0.289 A 
HETATM   12  O4  UNK     1      35.983  -7.719  28.544  1.00  0.00    -0.260 OA
HETATM   13  C15 UNK     1      32.551  -7.533  33.781  1.00  0.00     0.030 A 
BRANCH   8  14
HETATM   14  C18 UNK     1      31.332  -6.942  29.596  1.00  0.00     0.418 C 
HETATM   15  F1  UNK     1      30.918  -5.779  30.135  1.00  0.00    -0.166 F 
HETATM   16  F2  UNK     1      31.218  -6.845  28.257  1.00  0.00    -0.166 F 
HETATM   17  F3  UNK     1      30.498  -7.915  30.015  1.00  0.00    -0.166 F 
ENDBRANCH   8  14
ENDBRANCH   1   3
BRANCH   1  18
HETATM   18  C16 UNK     1      34.405  -7.083  36.448  1.00  0.00     0.177 C 
HETATM   19  S2  UNK     1      35.358  -5.713  36.219  1.00  0.00    -0.040 SA
BRANCH  18  20
HETATM   20  N1  UNK     1      33.766  -7.250  37.645  1.00  0.00    -0.327 N 
HETATM   21  H9  UNK     1      34.375  -7.033  38.431  1.00  0.00     0.169 HD
BRANCH  20  22
HETATM   22  C5  UNK     1      32.439  -6.922  37.952  1.00  0.00     0.093 A 
HETATM   23  C2  UNK     1      31.339  -7.711  38.041  1.00  0.00     0.080 A 
HETATM   24  C1  UNK     1      30.186  -6.944  38.383  1.00  0.00    -0.027 A 
HETATM   25  C4  UNK     1      30.482  -5.607  38.534  1.00  0.00    -0.012 A 
HETATM   26  S1  UNK     1      32.141  -5.281  38.265  1.00  0.00    -0.076 SA
HETATM   27  C9  UNK     1      29.576  -4.489  38.885  1.00  0.00     0.057 C 
BRANCH  23  28
HETATM   28  C13 UNK     1      31.359  -9.135  37.816  1.00  0.00     0.296 C 
HETATM   29  O3  UNK     1      31.044  -9.974  38.673  1.00  0.00    -0.259 OA
BRANCH  28  30
HETATM   30  O2  UNK     1      31.767  -9.495  36.550  1.00  0.00    -0.322 OA
HETATM   31  C20 UNK     1      30.751  -9.958  35.652  1.00  0.00     0.213 C 
ENDBRANCH  28  30
ENDBRANCH  23  28
BRANCH  24  32
HETATM   32  C3  UNK     1      28.828  -7.517  38.557  1.00  0.00     0.036 C 
HETATM   33  C8  UNK     1      28.019  -7.534  37.261  1.00  0.00     0.010 C 
ENDBRANCH  24  32
ENDBRANCH  20  22
ENDBRANCH  18  20
ENDBRANCH   1  18
TORSDOF 8
ENDMDL
MODEL 10
REMARK VINA RESULT:      -8.3      7.396     10.108
REMARK  8 active torsions:
REMARK  status: ('A' for Active; 'I' for Inactive)
REMARK    1  A    between atoms: C13_24  and  O2_7 
REMARK    2  A    between atoms: C16_27  and  N1_10 
REMARK    3  A    between atoms: C5_16  and  N1_10 
REMARK    4  A    between atoms: C10_21  and  N2_11 
REMARK    5  A    between atoms: C16_27  and  N2_11 
REMARK    6  A    between atoms: C1_12  and  C3_14 
REMARK    7  A    between atoms: C13_24  and  C2_13 
REMARK    8  A    between atoms: C11_22  and  C18_29 
ROOT
HETATM    1  N2  UNK     1      18.554  -5.002  36.450  1.00  0.00    -0.333 N 
HETATM    2  H13 UNK     1      17.633  -4.969  36.020  1.00  0.00     0.168 HD
ENDROOT
BRANCH   1   3
HETATM    3  C10 UNK     1      19.164  -6.256  36.436  1.00  0.00     0.036 A 
HETATM    4  C12 UNK     1      18.760  -7.239  37.333  1.00  0.00     0.067 A 
HETATM    5  C7  UNK     1      19.383  -8.487  37.301  1.00  0.00     0.092 A 
HETATM    6  C6  UNK     1      20.402  -8.790  36.397  1.00  0.00     0.013 A 
HETATM    7  O1  UNK     1      18.930  -9.442  38.234  1.00  0.00    -0.275 OA
HETATM    8  C11 UNK     1      21.001 -10.130  36.434  1.00  0.00     0.066 A 
HETATM    9  C14 UNK     1      20.794  -7.786  35.501  1.00  0.00     0.017 A 
HETATM   10  C17 UNK     1      20.551 -11.018  37.332  1.00  0.00     0.099 A 
HETATM   11  C19 UNK     1      19.476 -10.715  38.292  1.00  0.00     0.289 A 
HETATM   12  O4  UNK     1      19.091 -11.553  39.100  1.00  0.00    -0.260 OA
HETATM   13  C15 UNK     1      20.179  -6.529  35.521  1.00  0.00     0.030 A 
BRANCH   8  14
HETATM   14  C18 UNK     1      22.100 -10.486  35.474  1.00  0.00     0.418 C 
HETATM   15  F1  UNK     1      21.773 -10.128  34.217  1.00  0.00    -0.166 F 
HETATM   16  F2  UNK     1      23.246  -9.858  35.802  1.00  0.00    -0.166 F 
HETATM   17  F3  UNK     1      22.336 -11.813  35.481  1.00  0.00    -0.166 F 
ENDBRANCH   8  14
ENDBRANCH   1   3
BRANCH   1  18
HETATM   18  C16 UNK     1      19.052  -3.767  36.829  1.00  0.00     0.177 C 
HETATM   19  S2  UNK     1      20.639  -3.650  37.384  1.00  0.00    -0.040 SA
BRANCH  18  20
HETATM   20  N1  UNK     1      18.298  -2.629  36.744  1.00  0.00    -0.327 N 
HETATM   21  H9  UNK     1      18.185  -2.182  37.651  1.00  0.00     0.169 HD
BRANCH  20  22
HETATM   22  C5  UNK     1      18.326  -1.667  35.727  1.00  0.00     0.093 A 
HETATM   23  C2  UNK     1      17.749  -0.441  35.662  1.00  0.00     0.080 A 
HETATM   24  C1  UNK     1      18.046   0.201  34.424  1.00  0.00    -0.027 A 
HETATM   25  C4  UNK     1      18.840  -0.583  33.614  1.00  0.00    -0.012 A 
HETATM   26  S1  UNK     1      19.221  -2.083  34.346  1.00  0.00    -0.076 SA
HETATM   27  C9  UNK     1      19.367  -0.286  32.263  1.00  0.00     0.057 C 
BRANCH  23  28
HETATM   28  C13 UNK     1      16.945   0.117  36.721  1.00  0.00     0.296 C 
HETATM   29  O3  UNK     1      15.774   0.496  36.573  1.00  0.00    -0.259 OA
BRANCH  28  30
HETATM   30  O2  UNK     1      17.596   0.198  37.932  1.00  0.00    -0.322 OA
HETATM   31  C20 UNK     1      17.727   1.503  38.509  1.00  0.00     0.213 C 
ENDBRANCH  28  30
ENDBRANCH  23  28
BRANCH  24  32
HETATM   32  C3  UNK     1      17.562   1.552  34.050  1.00  0.00     0.036 C 
HETATM   33  C8  UNK     1      18.413   2.674  34.642  1.00  0.00     0.010 C 
ENDBRANCH  24  32
ENDBRANCH  20  22
ENDBRANCH  18  20
ENDBRANCH   1  18
TORSDOF 8
ENDMDL
