MODEL 1
REMARK VINA RESULT:     -10.8      0.000      0.000
REMARK  5 active torsions:
REMARK  status: ('A' for Active; 'I' for Inactive)
REMARK    1  A    between atoms: C1_11  and  S1_1 
REMARK    2  A    between atoms: N1_7  and  S1_1 
REMARK    3  A    between atoms: C9_19  and  N1_7 
REMARK       I    between atoms: C12_22  and  N2_8 
REMARK    4  A    between atoms: C2_12  and  N2_8 
REMARK    5  A    between atoms: C12_22  and  C8_18 
ROOT
HETATM    1  C1  UNK     1      18.602  -0.108  35.935  1.00  0.00     0.080 A 
HETATM    2  C2  UNK     1      19.058  -2.827  36.178  1.00  0.00     0.035 A 
HETATM    3  C3  UNK     1      18.149  -0.793  37.062  1.00  0.00     0.027 A 
HETATM    4  C4  UNK     1      19.283  -0.793  34.930  1.00  0.00     0.027 A 
HETATM    5  C5  UNK     1      18.380  -2.164  37.185  1.00  0.00     0.031 A 
HETATM    6  C6  UNK     1      19.514  -2.163  35.052  1.00  0.00     0.031 A 
ENDROOT
BRANCH   2   7
HETATM    7  N2  UNK     1      19.291  -4.219  36.302  1.00  0.00    -0.323 N 
HETATM    8  C12 UNK     1      20.420  -4.847  36.810  1.00  0.00     0.262 C 
HETATM    9  O4  UNK     1      21.442  -4.327  37.252  1.00  0.00    -0.267 OA
HETATM   10  H6  UNK     1      18.513  -4.798  35.993  1.00  0.00     0.169 HD
BRANCH   8  11
HETATM   11  C8  UNK     1      20.300  -6.309  36.782  1.00  0.00     0.108 A 
HETATM   12  C10 UNK     1      20.066  -6.907  37.956  1.00  0.00     0.037 A 
HETATM   13  C7  UNK     1      19.931  -8.354  38.030  1.00  0.00    -0.001 A 
HETATM   14  C11 UNK     1      20.051  -9.100  36.862  1.00  0.00     0.089 A 
HETATM   15  C15 UNK     1      19.687  -9.018  39.234  1.00  0.00     0.014 A 
HETATM   16  O1  UNK     1      20.298  -8.466  35.629  1.00  0.00    -0.274 OA
HETATM   17  C16 UNK     1      19.934 -10.488  36.865  1.00  0.00     0.038 A 
HETATM   18  C14 UNK     1      20.431  -7.084  35.527  1.00  0.00     0.304 A 
HETATM   19  O5  UNK     1      20.646  -6.542  34.448  1.00  0.00    -0.259 OA
HETATM   20  C20 UNK     1      19.690 -11.144  38.070  1.00  0.00     0.003 A 
HETATM   21  C18 UNK     1      19.566 -10.411  39.252  1.00  0.00     0.001 A 
ENDBRANCH   8  11
ENDBRANCH   2   7
BRANCH   1  22
HETATM   22  S1  UNK     1      18.313   1.606  35.781  1.00  0.00     0.264 S 
HETATM   23  O2  UNK     1      19.608   2.267  35.665  1.00  0.00    -0.200 OA
HETATM   24  O3  UNK     1      17.405   2.024  36.842  1.00  0.00    -0.200 OA
BRANCH  22  25
HETATM   25  N1  UNK     1      17.514   1.725  34.259  1.00  0.00    -0.264 N 
HETATM   26  H3  UNK     1      16.495   1.592  34.291  1.00  0.00     0.180 HD
BRANCH  25  27
HETATM   27  C9  UNK     1      17.945   2.752  33.348  1.00  0.00     0.141 A 
HETATM   28  C13 UNK     1      18.206   4.015  33.823  1.00  0.00     0.077 A 
HETATM   29  C17 UNK     1      18.612   4.930  32.873  1.00  0.00     0.036 A 
HETATM   30  N4  UNK     1      18.753   4.637  31.564  1.00  0.00    -0.239 NA
HETATM   31  C21 UNK     1      18.920   6.330  33.285  1.00  0.00     0.070 C 
HETATM   32  C19 UNK     1      18.465   3.364  31.232  1.00  0.00     0.124 A 
HETATM   33  N3  UNK     1      18.061   2.384  32.061  1.00  0.00    -0.216 NA
HETATM   34  C22 UNK     1      18.610   3.002  29.792  1.00  0.00     0.093 C 
ENDBRANCH  25  27
ENDBRANCH  22  25
ENDBRANCH   1  22
TORSDOF 5
ENDMDL
MODEL 2
REMARK VINA RESULT:     -10.8      6.615     10.269
REMARK  5 active torsions:
REMARK  status: ('A' for Active; 'I' for Inactive)
REMARK    1  A    between atoms: C1_11  and  S1_1 
REMARK    2  A    between atoms: N1_7  and  S1_1 
REMARK    3  A    between atoms: C9_19  and  N1_7 
REMARK       I    between atoms: C12_22  and  N2_8 
REMARK    4  A    between atoms: C2_12  and  N2_8 
REMARK    5  A    between atoms: C12_22  and  C8_18 
ROOT
HETATM    1  C1  UNK     1      21.196  -9.309  38.246  1.00  0.00     0.080 A 
HETATM    2  C2  UNK     1      23.684  -8.101  38.347  1.00  0.00     0.035 A 
HETATM    3  C3  UNK     1      22.080  -9.443  37.176  1.00  0.00     0.027 A 
HETATM    4  C4  UNK     1      21.565  -8.565  39.367  1.00  0.00     0.027 A 
HETATM    5  C5  UNK     1      23.335  -8.834  37.227  1.00  0.00     0.031 A 
HETATM    6  C6  UNK     1      22.819  -7.957  39.418  1.00  0.00     0.031 A 
ENDROOT
BRANCH   2   7
HETATM    7  N2  UNK     1      24.958  -7.482  38.398  1.00  0.00    -0.323 N 
HETATM    8  C12 UNK     1      26.126  -7.993  38.947  1.00  0.00     0.262 C 
HETATM    9  O4  UNK     1      26.294  -9.079  39.497  1.00  0.00    -0.267 OA
HETATM   10  H6  UNK     1      24.992  -6.566  37.955  1.00  0.00     0.169 HD
BRANCH   8  11
HETATM   11  C8  UNK     1      27.253  -7.063  38.812  1.00  0.00     0.108 A 
HETATM   12  C10 UNK     1      28.467  -7.616  38.704  1.00  0.00     0.037 A 
HETATM   13  C7  UNK     1      29.647  -6.776  38.567  1.00  0.00    -0.001 A 
HETATM   14  C11 UNK     1      29.490  -5.393  38.551  1.00  0.00     0.089 A 
HETATM   15  C15 UNK     1      30.933  -7.311  38.451  1.00  0.00     0.014 A 
HETATM   16  O1  UNK     1      28.211  -4.817  38.665  1.00  0.00    -0.274 OA
HETATM   17  C16 UNK     1      30.579  -4.534  38.422  1.00  0.00     0.038 A 
HETATM   18  C14 UNK     1      27.063  -5.594  38.797  1.00  0.00     0.304 A 
HETATM   19  O5  UNK     1      25.953  -5.083  38.897  1.00  0.00    -0.259 OA
HETATM   20  C20 UNK     1      31.858  -5.075  38.308  1.00  0.00     0.003 A 
HETATM   21  C18 UNK     1      32.034  -6.460  38.321  1.00  0.00     0.001 A 
ENDBRANCH   8  11
ENDBRANCH   2   7
BRANCH   1  22
HETATM   22  S1  UNK     1      19.627 -10.069  38.182  1.00  0.00     0.264 S 
HETATM   23  O2  UNK     1      19.264 -10.457  39.541  1.00  0.00    -0.200 OA
HETATM   24  O3  UNK     1      19.645 -11.091  37.142  1.00  0.00    -0.200 OA
BRANCH  22  25
HETATM   25  N1  UNK     1      18.593  -8.777  37.702  1.00  0.00    -0.264 N 
HETATM   26  H3  UNK     1      17.891  -8.500  38.400  1.00  0.00     0.180 HD
BRANCH  25  27
HETATM   27  C9  UNK     1      19.178  -7.674  36.987  1.00  0.00     0.141 A 
HETATM   28  C13 UNK     1      19.309  -6.455  37.607  1.00  0.00     0.077 A 
HETATM   29  C17 UNK     1      19.881  -5.462  36.839  1.00  0.00     0.036 A 
HETATM   30  N4  UNK     1      20.291  -5.641  35.566  1.00  0.00    -0.239 NA
HETATM   31  C21 UNK     1      20.069  -4.100  37.419  1.00  0.00     0.070 C 
HETATM   32  C19 UNK     1      20.104  -6.883  35.079  1.00  0.00     0.124 A 
HETATM   33  N3  UNK     1      19.561  -7.931  35.724  1.00  0.00    -0.216 NA
HETATM   34  C22 UNK     1      20.545  -7.120  33.674  1.00  0.00     0.093 C 
ENDBRANCH  25  27
ENDBRANCH  22  25
ENDBRANCH   1  22
TORSDOF 5
ENDMDL
MODEL 3
REMARK VINA RESULT:     -10.3      1.845      2.475
REMARK  5 active torsions:
REMARK  status: ('A' for Active; 'I' for Inactive)
REMARK    1  A    between atoms: C1_11  and  S1_1 
REMARK    2  A    between atoms: N1_7  and  S1_1 
REMARK    3  A    between atoms: C9_19  and  N1_7 
REMARK       I    between atoms: C12_22  and  N2_8 
REMARK    4  A    between atoms: C2_12  and  N2_8 
REMARK    5  A    between atoms: C12_22  and  C8_18 
ROOT
HETATM    1  C1  UNK     1      18.092  -0.586  35.605  1.00  0.00     0.080 A 
HETATM    2  C2  UNK     1      19.424  -2.979  36.007  1.00  0.00     0.035 A 
HETATM    3  C3  UNK     1      19.028  -1.028  34.672  1.00  0.00     0.027 A 
HETATM    4  C4  UNK     1      17.827  -1.349  36.742  1.00  0.00     0.027 A 
HETATM    5  C5  UNK     1      19.700  -2.235  34.874  1.00  0.00     0.031 A 
HETATM    6  C6  UNK     1      18.498  -2.555  36.945  1.00  0.00     0.031 A 
ENDROOT
BRANCH   2   7
HETATM    7  N2  UNK     1      20.107  -4.203  36.213  1.00  0.00    -0.323 N 
HETATM    8  C12 UNK     1      19.551  -5.451  36.459  1.00  0.00     0.262 C 
HETATM    9  O4  UNK     1      18.362  -5.748  36.549  1.00  0.00    -0.267 OA
HETATM   10  H6  UNK     1      21.119  -4.129  36.146  1.00  0.00     0.169 HD
BRANCH   8  11
HETATM   11  C8  UNK     1      20.575  -6.491  36.619  1.00  0.00     0.108 A 
HETATM   12  C10 UNK     1      20.479  -7.546  35.802  1.00  0.00     0.037 A 
HETATM   13  C7  UNK     1      21.448  -8.629  35.885  1.00  0.00    -0.001 A 
HETATM   14  C11 UNK     1      22.470  -8.546  36.825  1.00  0.00     0.089 A 
HETATM   15  C15 UNK     1      21.386  -9.748  35.051  1.00  0.00     0.014 A 
HETATM   16  O1  UNK     1      22.565  -7.433  37.683  1.00  0.00    -0.274 OA
HETATM   17  C16 UNK     1      23.428  -9.549  36.956  1.00  0.00     0.038 A 
HETATM   18  C14 UNK     1      21.654  -6.382  37.627  1.00  0.00     0.304 A 
HETATM   19  O5  UNK     1      21.745  -5.418  38.379  1.00  0.00    -0.259 OA
HETATM   20  C20 UNK     1      23.359 -10.662  36.121  1.00  0.00     0.003 A 
HETATM   21  C18 UNK     1      22.341 -10.762  35.170  1.00  0.00     0.001 A 
ENDBRANCH   8  11
ENDBRANCH   2   7
BRANCH   1  22
HETATM   22  S1  UNK     1      17.253   0.923  35.353  1.00  0.00     0.264 S 
HETATM   23  O2  UNK     1      16.752   1.376  36.646  1.00  0.00    -0.200 OA
HETATM   24  O3  UNK     1      16.309   0.755  34.255  1.00  0.00    -0.200 OA
BRANCH  22  25
HETATM   25  N1  UNK     1      18.517   1.988  34.867  1.00  0.00    -0.264 N 
HETATM   26  H3  UNK     1      19.467   1.605  34.957  1.00  0.00     0.180 HD
BRANCH  25  27
HETATM   27  C9  UNK     1      18.314   2.786  33.688  1.00  0.00     0.141 A 
HETATM   28  C13 UNK     1      18.103   4.139  33.812  1.00  0.00     0.077 A 
HETATM   29  C17 UNK     1      17.918   4.817  32.624  1.00  0.00     0.036 A 
HETATM   30  N4  UNK     1      17.936   4.224  31.413  1.00  0.00    -0.239 NA
HETATM   31  C21 UNK     1      17.681   6.290  32.648  1.00  0.00     0.070 C 
HETATM   32  C19 UNK     1      18.152   2.895  31.433  1.00  0.00     0.124 A 
HETATM   33  N3  UNK     1      18.345   2.124  32.519  1.00  0.00    -0.216 NA
HETATM   34  C22 UNK     1      18.179   2.204  30.112  1.00  0.00     0.093 C 
ENDBRANCH  25  27
ENDBRANCH  22  25
ENDBRANCH   1  22
TORSDOF 5
ENDMDL
MODEL 4
REMARK VINA RESULT:     -10.2      1.144      2.033
REMARK  5 active torsions:
REMARK  status: ('A' for Active; 'I' for Inactive)
REMARK    1  A    between atoms: C1_11  and  S1_1 
REMARK    2  A    between atoms: N1_7  and  S1_1 
REMARK    3  A    between atoms: C9_19  and  N1_7 
REMARK       I    between atoms: C12_22  and  N2_8 
REMARK    4  A    between atoms: C2_12  and  N2_8 
REMARK    5  A    between atoms: C12_22  and  C8_18 
ROOT
HETATM    1  C1  UNK     1      18.589  -0.227  36.039  1.00  0.00     0.080 A 
HETATM    2  C2  UNK     1      19.056  -2.945  36.277  1.00  0.00     0.035 A 
HETATM    3  C3  UNK     1      19.768  -0.778  35.540  1.00  0.00     0.027 A 
HETATM    4  C4  UNK     1      17.645  -1.045  36.659  1.00  0.00     0.027 A 
HETATM    5  C5  UNK     1      20.004  -2.148  35.660  1.00  0.00     0.031 A 
HETATM    6  C6  UNK     1      17.880  -2.414  36.779  1.00  0.00     0.031 A 
ENDROOT
BRANCH   2   7
HETATM    7  N2  UNK     1      19.296  -4.336  36.400  1.00  0.00    -0.323 N 
HETATM    8  C12 UNK     1      20.311  -4.961  37.110  1.00  0.00     0.262 C 
HETATM    9  O4  UNK     1      21.205  -4.439  37.774  1.00  0.00    -0.267 OA
HETATM   10  H6  UNK     1      18.616  -4.917  35.915  1.00  0.00     0.169 HD
BRANCH   8  11
HETATM   11  C8  UNK     1      20.240  -6.423  37.007  1.00  0.00     0.108 A 
HETATM   12  C10 UNK     1      19.974  -7.084  38.140  1.00  0.00     0.037 A 
HETATM   13  C7  UNK     1      19.883  -8.536  38.139  1.00  0.00    -0.001 A 
HETATM   14  C11 UNK     1      20.077  -9.221  36.944  1.00  0.00     0.089 A 
HETATM   15  C15 UNK     1      19.608  -9.266  39.298  1.00  0.00     0.014 A 
HETATM   16  O1  UNK     1      20.357  -8.520  35.755  1.00  0.00    -0.274 OA
HETATM   17  C16 UNK     1      20.004 -10.610  36.875  1.00  0.00     0.038 A 
HETATM   18  C14 UNK     1      20.449  -7.131  35.724  1.00  0.00     0.304 A 
HETATM   19  O5  UNK     1      20.694  -6.530  34.683  1.00  0.00    -0.259 OA
HETATM   20  C20 UNK     1      19.730 -11.331  38.035  1.00  0.00     0.003 A 
HETATM   21  C18 UNK     1      19.531 -10.660  39.244  1.00  0.00     0.001 A 
ENDBRANCH   8  11
ENDBRANCH   2   7
BRANCH   1  22
HETATM   22  S1  UNK     1      18.295   1.487  35.890  1.00  0.00     0.264 S 
HETATM   23  O2  UNK     1      19.573   2.136  35.622  1.00  0.00    -0.200 OA
HETATM   24  O3  UNK     1      17.510   1.928  37.037  1.00  0.00    -0.200 OA
BRANCH  22  25
HETATM   25  N1  UNK     1      17.335   1.589  34.462  1.00  0.00    -0.264 N 
HETATM   26  H3  UNK     1      16.576   2.282  34.497  1.00  0.00     0.180 HD
BRANCH  25  27
HETATM   27  C9  UNK     1      18.004   1.512  33.191  1.00  0.00     0.141 A 
HETATM   28  C13 UNK     1      18.612   0.338  32.814  1.00  0.00     0.077 A 
HETATM   29  C17 UNK     1      19.227   0.365  31.579  1.00  0.00     0.036 A 
HETATM   30  N4  UNK     1      19.249   1.448  30.776  1.00  0.00    -0.239 NA
HETATM   31  C21 UNK     1      19.916  -0.859  31.075  1.00  0.00     0.070 C 
HETATM   32  C19 UNK     1      18.617   2.532  31.265  1.00  0.00     0.124 A 
HETATM   33  N3  UNK     1      17.984   2.632  32.449  1.00  0.00    -0.216 NA
HETATM   34  C22 UNK     1      18.620   3.750  30.405  1.00  0.00     0.093 C 
ENDBRANCH  25  27
ENDBRANCH  22  25
ENDBRANCH   1  22
TORSDOF 5
ENDMDL
MODEL 5
REMARK VINA RESULT:     -10.2      1.888      2.713
REMARK  5 active torsions:
REMARK  status: ('A' for Active; 'I' for Inactive)
REMARK    1  A    between atoms: C1_11  and  S1_1 
REMARK    2  A    between atoms: N1_7  and  S1_1 
REMARK    3  A    between atoms: C9_19  and  N1_7 
REMARK       I    between atoms: C12_22  and  N2_8 
REMARK    4  A    between atoms: C2_12  and  N2_8 
REMARK    5  A    between atoms: C12_22  and  C8_18 
ROOT
HETATM    1  C1  UNK     1      18.090  -0.508  35.770  1.00  0.00     0.080 A 
HETATM    2  C2  UNK     1      19.426  -2.905  36.130  1.00  0.00     0.035 A 
HETATM    3  C3  UNK     1      17.999  -1.181  36.988  1.00  0.00     0.027 A 
HETATM    4  C4  UNK     1      18.853  -1.044  34.733  1.00  0.00     0.027 A 
HETATM    5  C5  UNK     1      18.673  -2.389  37.170  1.00  0.00     0.031 A 
HETATM    6  C6  UNK     1      19.527  -2.251  34.915  1.00  0.00     0.031 A 
ENDROOT
BRANCH   2   7
HETATM    7  N2  UNK     1      20.109  -4.133  36.315  1.00  0.00    -0.323 N 
HETATM    8  C12 UNK     1      19.554  -5.390  36.512  1.00  0.00     0.262 C 
HETATM    9  O4  UNK     1      18.364  -5.693  36.566  1.00  0.00    -0.267 OA
HETATM   10  H6  UNK     1      21.123  -4.053  36.273  1.00  0.00     0.169 HD
BRANCH   8  11
HETATM   11  C8  UNK     1      20.578  -6.429  36.664  1.00  0.00     0.108 A 
HETATM   12  C10 UNK     1      20.470  -7.490  35.855  1.00  0.00     0.037 A 
HETATM   13  C7  UNK     1      21.438  -8.574  35.931  1.00  0.00    -0.001 A 
HETATM   14  C11 UNK     1      22.473  -8.486  36.856  1.00  0.00     0.089 A 
HETATM   15  C15 UNK     1      21.363  -9.699  35.106  1.00  0.00     0.014 A 
HETATM   16  O1  UNK     1      22.582  -7.368  37.705  1.00  0.00    -0.274 OA
HETATM   17  C16 UNK     1      23.432  -9.489  36.979  1.00  0.00     0.038 A 
HETATM   18  C14 UNK     1      21.672  -6.316  37.655  1.00  0.00     0.304 A 
HETATM   19  O5  UNK     1      21.775  -5.347  38.399  1.00  0.00    -0.259 OA
HETATM   20  C20 UNK     1      23.350 -10.608  36.153  1.00  0.00     0.003 A 
HETATM   21  C18 UNK     1      22.318 -10.713  35.218  1.00  0.00     0.001 A 
ENDBRANCH   8  11
ENDBRANCH   2   7
BRANCH   1  22
HETATM   22  S1  UNK     1      17.247   1.003  35.542  1.00  0.00     0.264 S 
HETATM   23  O2  UNK     1      16.801   1.466  36.852  1.00  0.00    -0.200 OA
HETATM   24  O3  UNK     1      16.257   0.831  34.485  1.00  0.00    -0.200 OA
BRANCH  22  25
HETATM   25  N1  UNK     1      18.494   2.060  34.998  1.00  0.00    -0.264 N 
HETATM   26  H3  UNK     1      19.451   1.720  35.156  1.00  0.00     0.180 HD
BRANCH  25  27
HETATM   27  C9  UNK     1      18.308   2.732  33.740  1.00  0.00     0.141 A 
HETATM   28  C13 UNK     1      18.498   2.042  32.567  1.00  0.00     0.077 A 
HETATM   29  C17 UNK     1      18.297   2.774  31.414  1.00  0.00     0.036 A 
HETATM   30  N4  UNK     1      17.940   4.075  31.405  1.00  0.00    -0.239 NA
HETATM   31  C21 UNK     1      18.477   2.118  30.086  1.00  0.00     0.070 C 
HETATM   32  C19 UNK     1      17.787   4.630  32.622  1.00  0.00     0.124 A 
HETATM   33  N3  UNK     1      17.954   4.027  33.814  1.00  0.00    -0.216 NA
HETATM   34  C22 UNK     1      17.393   6.068  32.653  1.00  0.00     0.093 C 
ENDBRANCH  25  27
ENDBRANCH  22  25
ENDBRANCH   1  22
TORSDOF 5
ENDMDL
MODEL 6
REMARK VINA RESULT:     -10.0      4.889     12.439
REMARK  5 active torsions:
REMARK  status: ('A' for Active; 'I' for Inactive)
REMARK    1  A    between atoms: C1_11  and  S1_1 
REMARK    2  A    between atoms: N1_7  and  S1_1 
REMARK    3  A    between atoms: C9_19  and  N1_7 
REMARK       I    between atoms: C12_22  and  N2_8 
REMARK    4  A    between atoms: C2_12  and  N2_8 
REMARK    5  A    between atoms: C12_22  and  C8_18 
ROOT
HETATM    1  C1  UNK     1      19.145   1.274  31.068  1.00  0.00     0.080 A 
HETATM    2  C2  UNK     1      18.010   3.745  31.587  1.00  0.00     0.035 A 
HETATM    3  C3  UNK     1      18.781   1.615  32.370  1.00  0.00     0.027 A 
HETATM    4  C4  UNK     1      18.938   2.179  30.027  1.00  0.00     0.027 A 
HETATM    5  C5  UNK     1      18.208   2.861  32.632  1.00  0.00     0.031 A 
HETATM    6  C6  UNK     1      18.366   3.423  30.288  1.00  0.00     0.031 A 
ENDROOT
BRANCH   2   7
HETATM    7  N2  UNK     1      17.429   5.010  31.852  1.00  0.00    -0.323 N 
HETATM    8  C12 UNK     1      17.915   6.005  32.689  1.00  0.00     0.262 C 
HETATM    9  O4  UNK     1      18.941   5.994  33.366  1.00  0.00    -0.267 OA
HETATM   10  H6  UNK     1      16.568   5.186  31.340  1.00  0.00     0.169 HD
BRANCH   8  11
HETATM   11  C8  UNK     1      17.040   7.184  32.712  1.00  0.00     0.108 A 
HETATM   12  C10 UNK     1      16.671   7.624  33.921  1.00  0.00     0.037 A 
HETATM   13  C7  UNK     1      15.805   8.785  34.047  1.00  0.00    -0.001 A 
HETATM   14  C11 UNK     1      15.369   9.427  32.892  1.00  0.00     0.089 A 
HETATM   15  C15 UNK     1      15.396   9.278  35.289  1.00  0.00     0.014 A 
HETATM   16  O1  UNK     1      15.759   8.960  31.623  1.00  0.00    -0.274 OA
HETATM   17  C16 UNK     1      14.538  10.544  32.944  1.00  0.00     0.038 A 
HETATM   18  C14 UNK     1      16.588   7.851  31.470  1.00  0.00     0.304 A 
HETATM   19  O5  UNK     1      16.922   7.452  30.360  1.00  0.00    -0.259 OA
HETATM   20  C20 UNK     1      14.134  11.029  34.186  1.00  0.00     0.003 A 
HETATM   21  C18 UNK     1      14.563  10.398  35.356  1.00  0.00     0.001 A 
ENDBRANCH   8  11
ENDBRANCH   2   7
BRANCH   1  22
HETATM   22  S1  UNK     1      19.862  -0.283  30.742  1.00  0.00     0.264 S 
HETATM   23  O2  UNK     1      21.139  -0.341  31.445  1.00  0.00    -0.200 OA
HETATM   24  O3  UNK     1      19.843  -0.513  29.302  1.00  0.00    -0.200 OA
BRANCH  22  25
HETATM   25  N1  UNK     1      18.776  -1.375  31.514  1.00  0.00    -0.264 N 
HETATM   26  H3  UNK     1      18.753  -2.321  31.114  1.00  0.00     0.180 HD
BRANCH  25  27
HETATM   27  C9  UNK     1      18.692  -1.342  32.950  1.00  0.00     0.141 A 
HETATM   28  C13 UNK     1      19.728  -1.841  33.702  1.00  0.00     0.077 A 
HETATM   29  C17 UNK     1      19.553  -1.765  35.069  1.00  0.00     0.036 A 
HETATM   30  N4  UNK     1      18.456  -1.244  35.656  1.00  0.00    -0.239 NA
HETATM   31  C21 UNK     1      20.620  -2.279  35.976  1.00  0.00     0.070 C 
HETATM   32  C19 UNK     1      17.516  -0.791  34.804  1.00  0.00     0.124 A 
HETATM   33  N3  UNK     1      17.568  -0.809  33.460  1.00  0.00    -0.216 NA
HETATM   34  C22 UNK     1      16.288  -0.208  35.417  1.00  0.00     0.093 C 
ENDBRANCH  25  27
ENDBRANCH  22  25
ENDBRANCH   1  22
TORSDOF 5
ENDMDL
MODEL 7
REMARK VINA RESULT:     -10.0      1.565      2.295
REMARK  5 active torsions:
REMARK  status: ('A' for Active; 'I' for Inactive)
REMARK    1  A    between atoms: C1_11  and  S1_1 
REMARK    2  A    between atoms: N1_7  and  S1_1 
REMARK    3  A    between atoms: C9_19  and  N1_7 
REMARK       I    between atoms: C12_22  and  N2_8 
REMARK    4  A    between atoms: C2_12  and  N2_8 
REMARK    5  A    between atoms: C12_22  and  C8_18 
ROOT
HETATM    1  C1  UNK     1      18.555  -0.149  36.192  1.00  0.00     0.080 A 
HETATM    2  C2  UNK     1      18.870  -2.884  36.478  1.00  0.00     0.035 A 
HETATM    3  C3  UNK     1      19.743  -0.760  35.792  1.00  0.00     0.027 A 
HETATM    4  C4  UNK     1      17.527  -0.916  36.738  1.00  0.00     0.027 A 
HETATM    5  C5  UNK     1      19.902  -2.139  35.934  1.00  0.00     0.031 A 
HETATM    6  C6  UNK     1      17.685  -2.294  36.881  1.00  0.00     0.031 A 
ENDROOT
BRANCH   2   7
HETATM    7  N2  UNK     1      19.032  -4.284  36.624  1.00  0.00    -0.323 N 
HETATM    8  C12 UNK     1      19.708  -5.151  35.777  1.00  0.00     0.262 C 
HETATM    9  O4  UNK     1      20.301  -4.884  34.734  1.00  0.00    -0.267 OA
HETATM   10  H6  UNK     1      18.609  -4.664  37.467  1.00  0.00     0.169 HD
BRANCH   8  11
HETATM   11  C8  UNK     1      19.665  -6.538  36.256  1.00  0.00     0.108 A 
HETATM   12  C10 UNK     1      20.725  -7.299  35.961  1.00  0.00     0.037 A 
HETATM   13  C7  UNK     1      20.775  -8.688  36.392  1.00  0.00    -0.001 A 
HETATM   14  C11 UNK     1      19.704  -9.207  37.113  1.00  0.00     0.089 A 
HETATM   15  C15 UNK     1      21.862  -9.518  36.106  1.00  0.00     0.014 A 
HETATM   16  O1  UNK     1      18.591  -8.401  37.420  1.00  0.00    -0.274 OA
HETATM   17  C16 UNK     1      19.690 -10.528  37.555  1.00  0.00     0.038 A 
HETATM   18  C14 UNK     1      18.515  -7.069  37.022  1.00  0.00     0.304 A 
HETATM   19  O5  UNK     1      17.540  -6.376  37.294  1.00  0.00    -0.259 OA
HETATM   20  C20 UNK     1      20.777 -11.349  37.265  1.00  0.00     0.003 A 
HETATM   21  C18 UNK     1      21.861 -10.845  36.544  1.00  0.00     0.001 A 
ENDBRANCH   8  11
ENDBRANCH   2   7
BRANCH   1  22
HETATM   22  S1  UNK     1      18.357   1.576  36.014  1.00  0.00     0.264 S 
HETATM   23  O2  UNK     1      19.664   2.144  35.704  1.00  0.00    -0.200 OA
HETATM   24  O3  UNK     1      17.627   2.084  37.170  1.00  0.00    -0.200 OA
BRANCH  22  25
HETATM   25  N1  UNK     1      17.371   1.705  34.607  1.00  0.00    -0.264 N 
HETATM   26  H3  UNK     1      16.607   2.390  34.673  1.00  0.00     0.180 HD
BRANCH  25  27
HETATM   27  C9  UNK     1      18.018   1.668  33.323  1.00  0.00     0.141 A 
HETATM   28  C13 UNK     1      18.076   2.809  32.559  1.00  0.00     0.077 A 
HETATM   29  C17 UNK     1      18.716   2.672  31.344  1.00  0.00     0.036 A 
HETATM   30  N4  UNK     1      19.255   1.515  30.908  1.00  0.00    -0.239 NA
HETATM   31  C21 UNK     1      18.834   3.852  30.438  1.00  0.00     0.070 C 
HETATM   32  C19 UNK     1      19.128   0.474  31.753  1.00  0.00     0.124 A 
HETATM   33  N3  UNK     1      18.529   0.480  32.958  1.00  0.00    -0.216 NA
HETATM   34  C22 UNK     1      19.713  -0.822  31.304  1.00  0.00     0.093 C 
ENDBRANCH  25  27
ENDBRANCH  22  25
ENDBRANCH   1  22
TORSDOF 5
ENDMDL
MODEL 8
REMARK VINA RESULT:     -10.0      6.666     10.395
REMARK  5 active torsions:
REMARK  status: ('A' for Active; 'I' for Inactive)
REMARK    1  A    between atoms: C1_11  and  S1_1 
REMARK    2  A    between atoms: N1_7  and  S1_1 
REMARK    3  A    between atoms: C9_19  and  N1_7 
REMARK       I    between atoms: C12_22  and  N2_8 
REMARK    4  A    between atoms: C2_12  and  N2_8 
REMARK    5  A    between atoms: C12_22  and  C8_18 
ROOT
HETATM    1  C1  UNK     1      16.626   8.371  33.663  1.00  0.00     0.080 A 
HETATM    2  C2  UNK     1      17.421   5.795  33.032  1.00  0.00     0.035 A 
HETATM    3  C3  UNK     1      17.657   7.764  34.379  1.00  0.00     0.027 A 
HETATM    4  C4  UNK     1      15.995   7.679  32.629  1.00  0.00     0.027 A 
HETATM    5  C5  UNK     1      18.059   6.466  34.061  1.00  0.00     0.031 A 
HETATM    6  C6  UNK     1      16.395   6.382  32.311  1.00  0.00     0.031 A 
ENDROOT
BRANCH   2   7
HETATM    7  N2  UNK     1      17.828   4.477  32.710  1.00  0.00    -0.323 N 
HETATM    8  C12 UNK     1      18.331   4.018  31.501  1.00  0.00     0.262 C 
HETATM    9  O4  UNK     1      18.525   4.656  30.468  1.00  0.00    -0.267 OA
HETATM   10  H6  UNK     1      17.748   3.819  33.482  1.00  0.00     0.169 HD
BRANCH   8  11
HETATM   11  C8  UNK     1      18.646   2.585  31.541  1.00  0.00     0.108 A 
HETATM   12  C10 UNK     1      19.199   2.070  30.436  1.00  0.00     0.037 A 
HETATM   13  C7  UNK     1      19.548   0.658  30.380  1.00  0.00    -0.001 A 
HETATM   14  C11 UNK     1      19.295  -0.142  31.490  1.00  0.00     0.089 A 
HETATM   15  C15 UNK     1      20.126   0.079  29.248  1.00  0.00     0.014 A 
HETATM   16  O1  UNK     1      18.713   0.406  32.649  1.00  0.00    -0.274 OA
HETATM   17  C16 UNK     1      19.605  -1.500  31.500  1.00  0.00     0.038 A 
HETATM   18  C14 UNK     1      18.370   1.753  32.734  1.00  0.00     0.304 A 
HETATM   19  O5  UNK     1      17.862   2.220  33.748  1.00  0.00    -0.259 OA
HETATM   20  C20 UNK     1      20.181  -2.070  30.367  1.00  0.00     0.003 A 
HETATM   21  C18 UNK     1      20.442  -1.283  29.244  1.00  0.00     0.001 A 
ENDBRANCH   8  11
ENDBRANCH   2   7
BRANCH   1  22
HETATM   22  S1  UNK     1      16.124   9.994  34.061  1.00  0.00     0.264 S 
HETATM   23  O2  UNK     1      15.513   9.958  35.386  1.00  0.00    -0.200 OA
HETATM   24  O3  UNK     1      15.352  10.531  32.947  1.00  0.00    -0.200 OA
BRANCH  22  25
HETATM   25  N1  UNK     1      17.620  10.839  34.186  1.00  0.00    -0.264 N 
HETATM   26  H3  UNK     1      18.382  10.461  33.608  1.00  0.00     0.180 HD
BRANCH  25  27
HETATM   27  C9  UNK     1      17.583  12.275  34.243  1.00  0.00     0.141 A 
HETATM   28  C13 UNK     1      18.441  13.009  33.459  1.00  0.00     0.077 A 
HETATM   29  C17 UNK     1      18.329  14.378  33.585  1.00  0.00     0.036 A 
HETATM   30  N4  UNK     1      17.450  14.985  34.410  1.00  0.00    -0.239 NA
HETATM   31  C21 UNK     1      19.215  15.266  32.777  1.00  0.00     0.070 C 
HETATM   32  C19 UNK     1      16.669  14.151  35.121  1.00  0.00     0.124 A 
HETATM   33  N3  UNK     1      16.682  12.805  35.089  1.00  0.00    -0.216 NA
HETATM   34  C22 UNK     1      15.684  14.785  36.045  1.00  0.00     0.093 C 
ENDBRANCH  25  27
ENDBRANCH  22  25
ENDBRANCH   1  22
TORSDOF 5
ENDMDL
MODEL 9
REMARK VINA RESULT:      -9.9      7.044     10.371
REMARK  5 active torsions:
REMARK  status: ('A' for Active; 'I' for Inactive)
REMARK    1  A    between atoms: C1_11  and  S1_1 
REMARK    2  A    between atoms: N1_7  and  S1_1 
REMARK    3  A    between atoms: C9_19  and  N1_7 
REMARK       I    between atoms: C12_22  and  N2_8 
REMARK    4  A    between atoms: C2_12  and  N2_8 
REMARK    5  A    between atoms: C12_22  and  C8_18 
ROOT
HETATM    1  C1  UNK     1      16.921   8.233  33.247  1.00  0.00     0.080 A 
HETATM    2  C2  UNK     1      17.741   5.839  32.126  1.00  0.00     0.035 A 
HETATM    3  C3  UNK     1      16.009   7.439  32.553  1.00  0.00     0.027 A 
HETATM    4  C4  UNK     1      18.247   7.821  33.374  1.00  0.00     0.027 A 
HETATM    5  C5  UNK     1      16.421   6.231  31.988  1.00  0.00     0.031 A 
HETATM    6  C6  UNK     1      18.660   6.615  32.810  1.00  0.00     0.031 A 
ENDROOT
BRANCH   2   7
HETATM    7  N2  UNK     1      18.160   4.613  31.551  1.00  0.00    -0.323 N 
HETATM    8  C12 UNK     1      18.140   3.354  32.134  1.00  0.00     0.262 C 
HETATM    9  O4  UNK     1      17.756   3.045  33.261  1.00  0.00    -0.267 OA
HETATM   10  H6  UNK     1      18.491   4.697  30.593  1.00  0.00     0.169 HD
BRANCH   8  11
HETATM   11  C8  UNK     1      18.653   2.317  31.231  1.00  0.00     0.108 A 
HETATM   12  C10 UNK     1      18.995   1.154  31.798  1.00  0.00     0.037 A 
HETATM   13  C7  UNK     1      19.515   0.066  30.985  1.00  0.00    -0.001 A 
HETATM   14  C11 UNK     1      19.649   0.256  29.613  1.00  0.00     0.089 A 
HETATM   15  C15 UNK     1      19.884  -1.164  31.535  1.00  0.00     0.014 A 
HETATM   16  O1  UNK     1      19.288   1.482  29.022  1.00  0.00    -0.274 OA
HETATM   17  C16 UNK     1      20.141  -0.746  28.779  1.00  0.00     0.038 A 
HETATM   18  C14 UNK     1      18.787   2.541  29.774  1.00  0.00     0.304 A 
HETATM   19  O5  UNK     1      18.476   3.605  29.249  1.00  0.00    -0.259 OA
HETATM   20  C20 UNK     1      20.507  -1.970  29.336  1.00  0.00     0.003 A 
HETATM   21  C18 UNK     1      20.378  -2.179  30.711  1.00  0.00     0.001 A 
ENDBRANCH   8  11
ENDBRANCH   2   7
BRANCH   1  22
HETATM   22  S1  UNK     1      16.405   9.743  33.952  1.00  0.00     0.264 S 
HETATM   23  O2  UNK     1      15.949   9.467  35.310  1.00  0.00    -0.200 OA
HETATM   24  O3  UNK     1      15.492  10.404  33.027  1.00  0.00    -0.200 OA
BRANCH  22  25
HETATM   25  N1  UNK     1      17.872  10.640  34.054  1.00  0.00    -0.264 N 
HETATM   26  H3  UNK     1      18.626  10.313  33.435  1.00  0.00     0.180 HD
BRANCH  25  27
HETATM   27  C9  UNK     1      17.783  12.072  34.166  1.00  0.00     0.141 A 
HETATM   28  C13 UNK     1      18.599  12.865  33.395  1.00  0.00     0.077 A 
HETATM   29  C17 UNK     1      18.439  14.224  33.575  1.00  0.00     0.036 A 
HETATM   30  N4  UNK     1      17.555  14.767  34.436  1.00  0.00    -0.239 NA
HETATM   31  C21 UNK     1      19.278  15.173  32.786  1.00  0.00     0.070 C 
HETATM   32  C19 UNK     1      16.817  13.878  35.129  1.00  0.00     0.124 A 
HETATM   33  N3  UNK     1      16.879  12.536  35.046  1.00  0.00    -0.216 NA
HETATM   34  C22 UNK     1      15.828  14.441  36.092  1.00  0.00     0.093 C 
ENDBRANCH  25  27
ENDBRANCH  22  25
ENDBRANCH   1  22
TORSDOF 5
ENDMDL
MODEL 10
REMARK VINA RESULT:      -9.8      5.219     13.070
REMARK  5 active torsions:
REMARK  status: ('A' for Active; 'I' for Inactive)
REMARK    1  A    between atoms: C1_11  and  S1_1 
REMARK    2  A    between atoms: N1_7  and  S1_1 
REMARK    3  A    between atoms: C9_19  and  N1_7 
REMARK       I    between atoms: C12_22  and  N2_8 
REMARK    4  A    between atoms: C2_12  and  N2_8 
REMARK    5  A    between atoms: C12_22  and  C8_18 
ROOT
HETATM    1  C1  UNK     1      18.901   2.233  30.976  1.00  0.00     0.080 A 
HETATM    2  C2  UNK     1      18.164   4.694  32.006  1.00  0.00     0.035 A 
HETATM    3  C3  UNK     1      18.431   2.329  32.286  1.00  0.00     0.027 A 
HETATM    4  C4  UNK     1      19.000   3.378  30.186  1.00  0.00     0.027 A 
HETATM    5  C5  UNK     1      18.059   3.569  32.805  1.00  0.00     0.031 A 
HETATM    6  C6  UNK     1      18.628   4.617  30.704  1.00  0.00     0.031 A 
ENDROOT
BRANCH   2   7
HETATM    7  N2  UNK     1      17.786   5.954  32.533  1.00  0.00    -0.323 N 
HETATM    8  C12 UNK     1      18.461   6.711  33.481  1.00  0.00     0.262 C 
HETATM    9  O4  UNK     1      19.517   6.446  34.053  1.00  0.00    -0.267 OA
HETATM   10  H6  UNK     1      16.927   6.329  32.137  1.00  0.00     0.169 HD
BRANCH   8  11
HETATM   11  C8  UNK     1      17.765   7.968  33.782  1.00  0.00     0.108 A 
HETATM   12  C10 UNK     1      18.511   9.079  33.753  1.00  0.00     0.037 A 
HETATM   13  C7  UNK     1      17.912  10.374  34.038  1.00  0.00    -0.001 A 
HETATM   14  C11 UNK     1      16.555  10.434  34.340  1.00  0.00     0.089 A 
HETATM   15  C15 UNK     1      18.653  11.558  34.019  1.00  0.00     0.014 A 
HETATM   16  O1  UNK     1      15.775   9.262  34.369  1.00  0.00    -0.274 OA
HETATM   17  C16 UNK     1      15.921  11.642  34.622  1.00  0.00     0.038 A 
HETATM   18  C14 UNK     1      16.320   8.010  34.100  1.00  0.00     0.304 A 
HETATM   19  O5  UNK     1      15.632   6.995  34.128  1.00  0.00    -0.259 OA
HETATM   20  C20 UNK     1      16.666  12.819  34.602  1.00  0.00     0.003 A 
HETATM   21  C18 UNK     1      18.030  12.777  34.300  1.00  0.00     0.001 A 
ENDBRANCH   8  11
ENDBRANCH   2   7
BRANCH   1  22
HETATM   22  S1  UNK     1      19.367   0.681  30.327  1.00  0.00     0.264 S 
HETATM   23  O2  UNK     1      20.801   0.522  30.543  1.00  0.00    -0.200 OA
HETATM   24  O3  UNK     1      18.844   0.566  28.971  1.00  0.00    -0.200 OA
BRANCH  22  25
HETATM   25  N1  UNK     1      18.546  -0.428  31.359  1.00  0.00    -0.264 N 
HETATM   26  H3  UNK     1      17.677  -0.819  30.972  1.00  0.00     0.180 HD
BRANCH  25  27
HETATM   27  C9  UNK     1      19.336  -1.372  32.102  1.00  0.00     0.141 A 
HETATM   28  C13 UNK     1      20.082  -2.311  31.430  1.00  0.00     0.077 A 
HETATM   29  C17 UNK     1      20.805  -3.172  32.230  1.00  0.00     0.036 A 
HETATM   30  N4  UNK     1      20.802  -3.122  33.578  1.00  0.00    -0.239 NA
HETATM   31  C21 UNK     1      21.648  -4.229  31.599  1.00  0.00     0.070 C 
HETATM   32  C19 UNK     1      20.030  -2.155  34.109  1.00  0.00     0.124 A 
HETATM   33  N3  UNK     1      19.281  -1.259  33.440  1.00  0.00    -0.216 NA
HETATM   34  C22 UNK     1      20.001  -2.068  35.598  1.00  0.00     0.093 C 
ENDBRANCH  25  27
ENDBRANCH  22  25
ENDBRANCH   1  22
TORSDOF 5
ENDMDL
