MODEL 1
REMARK VINA RESULT:      -9.8      0.000      0.000
REMARK  5 active torsions:
REMARK  status: ('A' for Active; 'I' for Inactive)
REMARK    1  A    between atoms: C10_17  and  O1_2 
REMARK    2  A    between atoms: C9_16  and  O1_2 
REMARK       I    between atoms: C11_18  and  N1_7 
REMARK    3  A    between atoms: C8_15  and  N1_7 
REMARK    4  A    between atoms: C7_14  and  C9_16 
REMARK    5  A    between atoms: C11_18  and  C12_19 
ROOT
HETATM    1  S1  UNK     1      17.967  -1.982  37.531  1.00  0.00    -0.075 SA
HETATM    2  C1  UNK     1      17.991   1.970  35.321  1.00  0.00     0.005 C 
HETATM    3  C2  UNK     1      18.947   0.855  34.868  1.00  0.00     0.041 C 
HETATM    4  C3  UNK     1      17.918   2.064  36.851  1.00  0.00     0.005 C 
HETATM    5  C4  UNK     1      18.736  -0.408  35.646  1.00  0.00    -0.026 A 
HETATM    6  C5  UNK     1      17.396   0.761  37.479  1.00  0.00     0.047 C 
HETATM    7  C6  UNK     1      18.046  -0.427  36.843  1.00  0.00    -0.008 A 
HETATM    8  C7  UNK     1      19.212  -1.708  35.300  1.00  0.00     0.080 A 
HETATM    9  C8  UNK     1      18.864  -2.656  36.237  1.00  0.00     0.094 A 
ENDROOT
BRANCH   9  10
HETATM   10  N1  UNK     1      19.112  -4.001  36.300  1.00  0.00    -0.316 N 
HETATM   11  C11 UNK     1      20.282  -4.616  36.762  1.00  0.00     0.262 C 
HETATM   12  O4  UNK     1      21.300  -4.089  37.194  1.00  0.00    -0.267 OA
HETATM   13  H9  UNK     1      18.343  -4.589  35.988  1.00  0.00     0.169 HD
BRANCH  11  14
HETATM   14  C12 UNK     1      20.212  -6.091  36.689  1.00  0.00     0.108 A 
HETATM   15  C15 UNK     1      19.987  -6.729  37.843  1.00  0.00     0.037 A 
HETATM   16  C16 UNK     1      19.900  -8.181  37.874  1.00  0.00    -0.001 A 
HETATM   17  C18 UNK     1      20.056  -8.889  36.687  1.00  0.00     0.089 A 
HETATM   18  C19 UNK     1      19.667  -8.888  39.056  1.00  0.00     0.014 A 
HETATM   19  O3  UNK     1      20.293  -8.211  35.474  1.00  0.00    -0.274 OA
HETATM   20  C20 UNK     1      19.986 -10.281  36.648  1.00  0.00     0.038 A 
HETATM   21  C17 UNK     1      20.380  -6.823  35.414  1.00  0.00     0.304 A 
HETATM   22  O5  UNK     1      20.587  -6.242  34.355  1.00  0.00    -0.259 OA
HETATM   23  C22 UNK     1      19.753 -10.979  37.830  1.00  0.00     0.003 A 
HETATM   24  C21 UNK     1      19.593 -10.284  39.031  1.00  0.00     0.001 A 
ENDBRANCH  11  14
ENDBRANCH   9  10
BRANCH   8  25
HETATM   25  C9  UNK     1      19.975  -2.033  34.120  1.00  0.00     0.297 C 
HETATM   26  O2  UNK     1      21.136  -2.469  34.146  1.00  0.00    -0.259 OA
BRANCH  25  27
HETATM   27  O1  UNK     1      19.299  -1.817  32.940  1.00  0.00    -0.313 OA
BRANCH  27  28
HETATM   28  C10 UNK     1      20.049  -1.252  31.858  1.00  0.00     0.124 C 
HETATM   29  C13 UNK     1      20.213  -2.297  30.764  1.00  0.00     0.040 C 
HETATM   30  C14 UNK     1      19.337  -0.008  31.352  1.00  0.00     0.040 C 
ENDBRANCH  27  28
ENDBRANCH  25  27
ENDBRANCH   8  25
TORSDOF 5
ENDMDL
MODEL 2
REMARK VINA RESULT:      -9.5      6.574     12.326
REMARK  5 active torsions:
REMARK  status: ('A' for Active; 'I' for Inactive)
REMARK    1  A    between atoms: C10_17  and  O1_2 
REMARK    2  A    between atoms: C9_16  and  O1_2 
REMARK       I    between atoms: C11_18  and  N1_7 
REMARK    3  A    between atoms: C8_15  and  N1_7 
REMARK    4  A    between atoms: C7_14  and  C9_16 
REMARK    5  A    between atoms: C11_18  and  C12_19 
ROOT
HETATM    1  S1  UNK     1      18.741   2.698  29.927  1.00  0.00    -0.075 SA
HETATM    2  C1  UNK     1      19.602  -1.529  31.304  1.00  0.00     0.005 C 
HETATM    3  C2  UNK     1      19.330  -0.441  32.356  1.00  0.00     0.041 C 
HETATM    4  C3  UNK     1      20.492  -1.005  30.168  1.00  0.00     0.005 C 
HETATM    5  C4  UNK     1      18.971   0.867  31.722  1.00  0.00    -0.026 A 
HETATM    6  C5  UNK     1      19.833   0.168  29.422  1.00  0.00     0.047 C 
HETATM    7  C6  UNK     1      19.228   1.134  30.390  1.00  0.00    -0.008 A 
HETATM    8  C7  UNK     1      18.365   1.986  32.368  1.00  0.00     0.080 A 
HETATM    9  C8  UNK     1      18.183   3.047  31.508  1.00  0.00     0.094 A 
ENDROOT
BRANCH   9  10
HETATM   10  N1  UNK     1      17.649   4.292  31.707  1.00  0.00    -0.316 N 
HETATM   11  C11 UNK     1      18.271   5.380  32.334  1.00  0.00     0.262 C 
HETATM   12  O4  UNK     1      19.393   5.439  32.820  1.00  0.00    -0.267 OA
HETATM   13  H9  UNK     1      16.710   4.415  31.338  1.00  0.00     0.169 HD
BRANCH  11  14
HETATM   14  C12 UNK     1      17.404   6.577  32.379  1.00  0.00     0.108 A 
HETATM   15  C15 UNK     1      16.985   6.957  33.591  1.00  0.00     0.037 A 
HETATM   16  C16 UNK     1      16.128   8.123  33.739  1.00  0.00    -0.001 A 
HETATM   17  C18 UNK     1      15.754   8.831  32.601  1.00  0.00     0.089 A 
HETATM   18  C19 UNK     1      15.666   8.556  34.984  1.00  0.00     0.014 A 
HETATM   19  O3  UNK     1      16.200   8.426  31.327  1.00  0.00    -0.274 OA
HETATM   20  C20 UNK     1      14.934   9.956  32.673  1.00  0.00     0.038 A 
HETATM   21  C17 UNK     1      17.020   7.315  31.156  1.00  0.00     0.304 A 
HETATM   22  O5  UNK     1      17.402   6.969  30.043  1.00  0.00    -0.259 OA
HETATM   23  C22 UNK     1      14.478  10.381  33.919  1.00  0.00     0.003 A 
HETATM   24  C21 UNK     1      14.844   9.683  35.072  1.00  0.00     0.001 A 
ENDBRANCH  11  14
ENDBRANCH   9  10
BRANCH   8  25
HETATM   25  C9  UNK     1      17.979   2.042  33.756  1.00  0.00     0.297 C 
HETATM   26  O2  UNK     1      18.563   2.726  34.610  1.00  0.00    -0.259 OA
BRANCH  25  27
HETATM   27  O1  UNK     1      16.887   1.261  34.064  1.00  0.00    -0.313 OA
BRANCH  27  28
HETATM   28  C10 UNK     1      17.049   0.311  35.124  1.00  0.00     0.124 C 
HETATM   29  C13 UNK     1      16.351   0.830  36.373  1.00  0.00     0.040 C 
HETATM   30  C14 UNK     1      16.493  -1.033  34.681  1.00  0.00     0.040 C 
ENDBRANCH  27  28
ENDBRANCH  25  27
ENDBRANCH   8  25
TORSDOF 5
ENDMDL
MODEL 3
REMARK VINA RESULT:      -9.1      1.705      2.168
REMARK  5 active torsions:
REMARK  status: ('A' for Active; 'I' for Inactive)
REMARK    1  A    between atoms: C10_17  and  O1_2 
REMARK    2  A    between atoms: C9_16  and  O1_2 
REMARK       I    between atoms: C11_18  and  N1_7 
REMARK    3  A    between atoms: C8_15  and  N1_7 
REMARK    4  A    between atoms: C7_14  and  C9_16 
REMARK    5  A    between atoms: C11_18  and  C12_19 
ROOT
HETATM    1  S1  UNK     1      18.707  -2.158  37.705  1.00  0.00    -0.075 SA
HETATM    2  C1  UNK     1      17.290   1.349  35.216  1.00  0.00     0.005 C 
HETATM    3  C2  UNK     1      18.462   0.496  34.706  1.00  0.00     0.041 C 
HETATM    4  C3  UNK     1      17.393   1.603  36.727  1.00  0.00     0.005 C 
HETATM    5  C4  UNK     1      18.732  -0.673  35.604  1.00  0.00    -0.026 A 
HETATM    6  C5  UNK     1      17.360   0.292  37.531  1.00  0.00     0.047 C 
HETATM    7  C6  UNK     1      18.240  -0.737  36.894  1.00  0.00    -0.008 A 
HETATM    8  C7  UNK     1      19.516  -1.823  35.289  1.00  0.00     0.080 A 
HETATM    9  C8  UNK     1      19.584  -2.709  36.341  1.00  0.00     0.094 A 
ENDROOT
BRANCH   9  10
HETATM   10  N1  UNK     1      20.219  -3.915  36.469  1.00  0.00    -0.316 N 
HETATM   11  C11 UNK     1      19.618  -5.180  36.484  1.00  0.00     0.262 C 
HETATM   12  O4  UNK     1      18.430  -5.460  36.388  1.00  0.00    -0.267 OA
HETATM   13  H9  UNK     1      21.232  -3.856  36.542  1.00  0.00     0.169 HD
BRANCH  11  14
HETATM   14  C12 UNK     1      20.603  -6.272  36.639  1.00  0.00     0.108 A 
HETATM   15  C15 UNK     1      20.444  -7.330  35.835  1.00  0.00     0.037 A 
HETATM   16  C16 UNK     1      21.364  -8.454  35.913  1.00  0.00    -0.001 A 
HETATM   17  C18 UNK     1      22.405  -8.409  36.834  1.00  0.00     0.089 A 
HETATM   18  C19 UNK     1      21.236  -9.579  35.093  1.00  0.00     0.014 A 
HETATM   19  O3  UNK     1      22.568  -7.292  37.677  1.00  0.00    -0.274 OA
HETATM   20  C20 UNK     1      23.320  -9.454  36.959  1.00  0.00     0.038 A 
HETATM   21  C17 UNK     1      21.704  -6.202  37.625  1.00  0.00     0.304 A 
HETATM   22  O5  UNK     1      21.852  -5.235  38.364  1.00  0.00    -0.259 OA
HETATM   23  C22 UNK     1      23.185 -10.572  36.139  1.00  0.00     0.003 A 
HETATM   24  C21 UNK     1      22.146 -10.633  35.208  1.00  0.00     0.001 A 
ENDBRANCH  11  14
ENDBRANCH   9  10
BRANCH   8  25
HETATM   25  C9  UNK     1      20.180  -2.064  34.032  1.00  0.00     0.297 C 
HETATM   26  O2  UNK     1      21.341  -2.488  33.933  1.00  0.00    -0.259 OA
BRANCH  25  27
HETATM   27  O1  UNK     1      19.406  -1.781  32.928  1.00  0.00    -0.313 OA
BRANCH  27  28
HETATM   28  C10 UNK     1      20.082  -1.245  31.784  1.00  0.00     0.124 C 
HETATM   29  C13 UNK     1      20.169  -2.317  30.707  1.00  0.00     0.040 C 
HETATM   30  C14 UNK     1      19.340  -0.011  31.297  1.00  0.00     0.040 C 
ENDBRANCH  27  28
ENDBRANCH  25  27
ENDBRANCH   8  25
TORSDOF 5
ENDMDL
MODEL 4
REMARK VINA RESULT:      -9.0      5.916     12.020
REMARK  5 active torsions:
REMARK  status: ('A' for Active; 'I' for Inactive)
REMARK    1  A    between atoms: C10_17  and  O1_2 
REMARK    2  A    between atoms: C9_16  and  O1_2 
REMARK       I    between atoms: C11_18  and  N1_7 
REMARK    3  A    between atoms: C8_15  and  N1_7 
REMARK    4  A    between atoms: C7_14  and  C9_16 
REMARK    5  A    between atoms: C11_18  and  C12_19 
ROOT
HETATM    1  S1  UNK     1      18.981   2.457  29.906  1.00  0.00    -0.075 SA
HETATM    2  C1  UNK     1      19.633  -1.959  30.667  1.00  0.00     0.005 C 
HETATM    3  C2  UNK     1      19.480  -1.009  31.866  1.00  0.00     0.041 C 
HETATM    4  C3  UNK     1      20.500  -1.339  29.562  1.00  0.00     0.005 C 
HETATM    5  C4  UNK     1      19.176   0.391  31.429  1.00  0.00    -0.026 A 
HETATM    6  C5  UNK     1      19.884  -0.041  29.014  1.00  0.00     0.047 C 
HETATM    7  C6  UNK     1      19.388   0.820  30.133  1.00  0.00    -0.008 A 
HETATM    8  C7  UNK     1      18.675   1.446  32.250  1.00  0.00     0.080 A 
HETATM    9  C8  UNK     1      18.521   2.622  31.548  1.00  0.00     0.094 A 
ENDROOT
BRANCH   9  10
HETATM   10  N1  UNK     1      18.078   3.857  31.938  1.00  0.00    -0.316 N 
HETATM   11  C11 UNK     1      18.755   5.075  31.789  1.00  0.00     0.262 C 
HETATM   12  O4  UNK     1      19.855   5.279  31.291  1.00  0.00    -0.267 OA
HETATM   13  H9  UNK     1      17.153   3.862  32.361  1.00  0.00     0.169 HD
BRANCH  11  14
HETATM   14  C12 UNK     1      17.984   6.218  32.323  1.00  0.00     0.108 A 
HETATM   15  C15 UNK     1      16.663   6.189  32.115  1.00  0.00     0.037 A 
HETATM   16  C16 UNK     1      15.820   7.269  32.603  1.00  0.00    -0.001 A 
HETATM   17  C18 UNK     1      16.410   8.327  33.287  1.00  0.00     0.089 A 
HETATM   18  C19 UNK     1      14.436   7.280  32.408  1.00  0.00     0.014 A 
HETATM   19  O3  UNK     1      17.802   8.351  33.503  1.00  0.00    -0.274 OA
HETATM   20  C20 UNK     1      15.659   9.393  33.779  1.00  0.00     0.038 A 
HETATM   21  C17 UNK     1      18.634   7.332  33.048  1.00  0.00     0.304 A 
HETATM   22  O5  UNK     1      19.844   7.363  33.241  1.00  0.00    -0.259 OA
HETATM   23  C22 UNK     1      14.280   9.397  33.580  1.00  0.00     0.003 A 
HETATM   24  C21 UNK     1      13.670   8.343  32.897  1.00  0.00     0.001 A 
ENDBRANCH  11  14
ENDBRANCH   9  10
BRANCH   8  25
HETATM   25  C9  UNK     1      18.357   1.337  33.652  1.00  0.00     0.297 C 
HETATM   26  O2  UNK     1      18.850   2.060  34.530  1.00  0.00    -0.259 OA
BRANCH  25  27
HETATM   27  O1  UNK     1      17.447   0.345  33.943  1.00  0.00    -0.313 OA
BRANCH  27  28
HETATM   28  C10 UNK     1      17.183   0.095  35.329  1.00  0.00     0.124 C 
HETATM   29  C13 UNK     1      15.683   0.163  35.574  1.00  0.00     0.040 C 
HETATM   30  C14 UNK     1      17.759  -1.259  35.712  1.00  0.00     0.040 C 
ENDBRANCH  27  28
ENDBRANCH  25  27
ENDBRANCH   8  25
TORSDOF 5
ENDMDL
MODEL 5
REMARK VINA RESULT:      -8.9      2.220      4.509
REMARK  5 active torsions:
REMARK  status: ('A' for Active; 'I' for Inactive)
REMARK    1  A    between atoms: C10_17  and  O1_2 
REMARK    2  A    between atoms: C9_16  and  O1_2 
REMARK       I    between atoms: C11_18  and  N1_7 
REMARK    3  A    between atoms: C8_15  and  N1_7 
REMARK    4  A    between atoms: C7_14  and  C9_16 
REMARK    5  A    between atoms: C11_18  and  C12_19 
ROOT
HETATM    1  S1  UNK     1      20.250  -1.774  31.823  1.00  0.00    -0.075 SA
HETATM    2  C1  UNK     1      18.981   2.362  30.488  1.00  0.00     0.005 C 
HETATM    3  C2  UNK     1      18.248   1.699  31.665  1.00  0.00     0.041 C 
HETATM    4  C3  UNK     1      19.267   1.357  29.362  1.00  0.00     0.005 C 
HETATM    5  C4  UNK     1      18.859   0.381  32.029  1.00  0.00    -0.026 A 
HETATM    6  C5  UNK     1      20.163   0.203  29.840  1.00  0.00     0.047 C 
HETATM    7  C6  UNK     1      19.712  -0.295  31.177  1.00  0.00    -0.008 A 
HETATM    8  C7  UNK     1      18.646  -0.349  33.237  1.00  0.00     0.080 A 
HETATM    9  C8  UNK     1      19.342  -1.538  33.256  1.00  0.00     0.094 A 
ENDROOT
BRANCH   9  10
HETATM   10  N1  UNK     1      19.421  -2.525  34.200  1.00  0.00    -0.316 N 
HETATM   11  C11 UNK     1      20.466  -2.732  35.111  1.00  0.00     0.262 C 
HETATM   12  O4  UNK     1      21.498  -2.086  35.245  1.00  0.00    -0.267 OA
HETATM   13  H9  UNK     1      18.618  -3.147  34.232  1.00  0.00     0.169 HD
BRANCH  11  14
HETATM   14  C12 UNK     1      20.226  -3.895  35.991  1.00  0.00     0.108 A 
HETATM   15  C15 UNK     1      19.807  -5.014  35.390  1.00  0.00     0.037 A 
HETATM   16  C16 UNK     1      19.544  -6.212  36.173  1.00  0.00    -0.001 A 
HETATM   17  C18 UNK     1      19.735  -6.171  37.550  1.00  0.00     0.089 A 
HETATM   18  C19 UNK     1      19.105  -7.402  35.587  1.00  0.00     0.014 A 
HETATM   19  O3  UNK     1      20.177  -4.990  38.177  1.00  0.00    -0.274 OA
HETATM   20  C20 UNK     1      19.499  -7.284  38.357  1.00  0.00     0.038 A 
HETATM   21  C17 UNK     1      20.437  -3.828  37.454  1.00  0.00     0.304 A 
HETATM   22  O5  UNK     1      20.820  -2.804  38.009  1.00  0.00    -0.259 OA
HETATM   23  C22 UNK     1      19.062  -8.467  37.765  1.00  0.00     0.003 A 
HETATM   24  C21 UNK     1      18.866  -8.526  36.384  1.00  0.00     0.001 A 
ENDBRANCH  11  14
ENDBRANCH   9  10
BRANCH   8  25
HETATM   25  C9  UNK     1      17.805   0.071  34.330  1.00  0.00     0.297 C 
HETATM   26  O2  UNK     1      16.610   0.377  34.205  1.00  0.00    -0.259 OA
BRANCH  25  27
HETATM   27  O1  UNK     1      18.447   0.105  35.549  1.00  0.00    -0.313 OA
BRANCH  27  28
HETATM   28  C10 UNK     1      17.618   0.134  36.717  1.00  0.00     0.124 C 
HETATM   29  C13 UNK     1      17.942  -1.069  37.591  1.00  0.00     0.040 C 
HETATM   30  C14 UNK     1      17.839   1.446  37.454  1.00  0.00     0.040 C 
ENDBRANCH  27  28
ENDBRANCH  25  27
ENDBRANCH   8  25
TORSDOF 5
ENDMDL
MODEL 6
REMARK VINA RESULT:      -8.8      2.244      8.580
REMARK  5 active torsions:
REMARK  status: ('A' for Active; 'I' for Inactive)
REMARK    1  A    between atoms: C10_17  and  O1_2 
REMARK    2  A    between atoms: C9_16  and  O1_2 
REMARK       I    between atoms: C11_18  and  N1_7 
REMARK    3  A    between atoms: C8_15  and  N1_7 
REMARK    4  A    between atoms: C7_14  and  C9_16 
REMARK    5  A    between atoms: C11_18  and  C12_19 
ROOT
HETATM    1  S1  UNK     1      20.783  -7.411  34.480  1.00  0.00    -0.075 SA
HETATM    2  C1  UNK     1      21.199 -11.226  36.883  1.00  0.00     0.005 C 
HETATM    3  C2  UNK     1      21.067  -9.886  37.625  1.00  0.00     0.041 C 
HETATM    4  C3  UNK     1      22.120 -11.105  35.660  1.00  0.00     0.005 C 
HETATM    5  C4  UNK     1      20.843  -8.747  36.679  1.00  0.00    -0.026 A 
HETATM    6  C5  UNK     1      21.582 -10.092  34.637  1.00  0.00     0.047 C 
HETATM    7  C6  UNK     1      21.103  -8.853  35.326  1.00  0.00    -0.008 A 
HETATM    8  C7  UNK     1      20.375  -7.441  37.017  1.00  0.00     0.080 A 
HETATM    9  C8  UNK     1      20.296  -6.616  35.917  1.00  0.00     0.094 A 
ENDROOT
BRANCH   9  10
HETATM   10  N1  UNK     1      19.905  -5.310  35.791  1.00  0.00    -0.316 N 
HETATM   11  C11 UNK     1      20.552  -4.188  36.326  1.00  0.00     0.262 C 
HETATM   12  O4  UNK     1      21.574  -4.147  36.998  1.00  0.00    -0.267 OA
HETATM   13  H9  UNK     1      19.066  -5.170  35.234  1.00  0.00     0.169 HD
BRANCH  11  14
HETATM   14  C12 UNK     1      19.856  -2.926  35.997  1.00  0.00     0.108 A 
HETATM   15  C15 UNK     1      19.155  -2.362  36.988  1.00  0.00     0.037 A 
HETATM   16  C16 UNK     1      18.436  -1.118  36.761  1.00  0.00    -0.001 A 
HETATM   17  C18 UNK     1      18.489  -0.529  35.502  1.00  0.00     0.089 A 
HETATM   18  C19 UNK     1      17.692  -0.494  37.766  1.00  0.00     0.014 A 
HETATM   19  O3  UNK     1      19.229  -1.128  34.463  1.00  0.00    -0.274 OA
HETATM   20  C20 UNK     1      17.822   0.661  35.219  1.00  0.00     0.038 A 
HETATM   21  C17 UNK     1      19.927  -2.318  34.650  1.00  0.00     0.304 A 
HETATM   22  O5  UNK     1      20.567  -2.832  33.739  1.00  0.00    -0.259 OA
HETATM   23  C22 UNK     1      17.083   1.277  36.227  1.00  0.00     0.003 A 
HETATM   24  C21 UNK     1      17.019   0.701  37.497  1.00  0.00     0.001 A 
ENDBRANCH  11  14
ENDBRANCH   9  10
BRANCH   8  25
HETATM   25  C9  UNK     1      20.022  -6.997  38.343  1.00  0.00     0.297 C 
HETATM   26  O2  UNK     1      18.907  -7.172  38.856  1.00  0.00    -0.259 OA
BRANCH  25  27
HETATM   27  O1  UNK     1      21.042  -6.351  39.006  1.00  0.00    -0.313 OA
BRANCH  27  28
HETATM   28  C10 UNK     1      22.319  -7.000  39.020  1.00  0.00     0.124 C 
HETATM   29  C13 UNK     1      23.412  -5.952  39.167  1.00  0.00     0.040 C 
HETATM   30  C14 UNK     1      22.352  -8.015  40.152  1.00  0.00     0.040 C 
ENDBRANCH  27  28
ENDBRANCH  25  27
ENDBRANCH   8  25
TORSDOF 5
ENDMDL
MODEL 7
REMARK VINA RESULT:      -8.6      2.459      4.477
REMARK  5 active torsions:
REMARK  status: ('A' for Active; 'I' for Inactive)
REMARK    1  A    between atoms: C10_17  and  O1_2 
REMARK    2  A    between atoms: C9_16  and  O1_2 
REMARK       I    between atoms: C11_18  and  N1_7 
REMARK    3  A    between atoms: C8_15  and  N1_7 
REMARK    4  A    between atoms: C7_14  and  C9_16 
REMARK    5  A    between atoms: C11_18  and  C12_19 
ROOT
HETATM    1  S1  UNK     1      20.840  -2.375  32.160  1.00  0.00    -0.075 SA
HETATM    2  C1  UNK     1      19.264   1.455  30.333  1.00  0.00     0.005 C 
HETATM    3  C2  UNK     1      18.496   0.813  31.499  1.00  0.00     0.041 C 
HETATM    4  C3  UNK     1      19.764   0.399  29.337  1.00  0.00     0.005 C 
HETATM    5  C4  UNK     1      19.210  -0.388  32.040  1.00  0.00    -0.026 A 
HETATM    6  C5  UNK     1      20.731  -0.597  29.998  1.00  0.00     0.047 C 
HETATM    7  C6  UNK     1      20.209  -1.029  31.332  1.00  0.00    -0.008 A 
HETATM    8  C7  UNK     1      18.961  -1.033  33.288  1.00  0.00     0.080 A 
HETATM    9  C8  UNK     1      19.777  -2.126  33.480  1.00  0.00     0.094 A 
ENDROOT
BRANCH   9  10
HETATM   10  N1  UNK     1      19.872  -3.014  34.518  1.00  0.00    -0.316 N 
HETATM   11  C11 UNK     1      20.536  -2.812  35.735  1.00  0.00     0.262 C 
HETATM   12  O4  UNK     1      21.154  -1.824  36.110  1.00  0.00    -0.267 OA
HETATM   13  H9  UNK     1      19.386  -3.895  34.368  1.00  0.00     0.169 HD
BRANCH  11  14
HETATM   14  C12 UNK     1      20.439  -3.984  36.632  1.00  0.00     0.108 A 
HETATM   15  C15 UNK     1      21.572  -4.362  37.235  1.00  0.00     0.037 A 
HETATM   16  C16 UNK     1      21.577  -5.503  38.136  1.00  0.00    -0.001 A 
HETATM   17  C18 UNK     1      20.388  -6.191  38.357  1.00  0.00     0.089 A 
HETATM   18  C19 UNK     1      22.736  -5.933  38.787  1.00  0.00     0.014 A 
HETATM   19  O3  UNK     1      19.199  -5.788  37.720  1.00  0.00    -0.274 OA
HETATM   20  C20 UNK     1      20.326  -7.294  39.208  1.00  0.00     0.038 A 
HETATM   21  C17 UNK     1      19.163  -4.699  36.852  1.00  0.00     0.304 A 
HETATM   22  O5  UNK     1      18.123  -4.357  36.301  1.00  0.00    -0.259 OA
HETATM   23  C22 UNK     1      21.486  -7.716  39.853  1.00  0.00     0.003 A 
HETATM   24  C21 UNK     1      22.688  -7.037  39.644  1.00  0.00     0.001 A 
ENDBRANCH  11  14
ENDBRANCH   9  10
BRANCH   8  25
HETATM   25  C9  UNK     1      17.977  -0.624  34.260  1.00  0.00     0.297 C 
HETATM   26  O2  UNK     1      16.754  -0.739  34.095  1.00  0.00    -0.259 OA
BRANCH  25  27
HETATM   27  O1  UNK     1      18.515  -0.085  35.408  1.00  0.00    -0.313 OA
BRANCH  27  28
HETATM   28  C10 UNK     1      17.632   0.075  36.523  1.00  0.00     0.124 C 
HETATM   29  C13 UNK     1      17.910  -1.019  37.544  1.00  0.00     0.040 C 
HETATM   30  C14 UNK     1      17.820   1.463  37.115  1.00  0.00     0.040 C 
ENDBRANCH  27  28
ENDBRANCH  25  27
ENDBRANCH   8  25
TORSDOF 5
ENDMDL
MODEL 8
REMARK VINA RESULT:      -8.5      7.483      9.896
REMARK  5 active torsions:
REMARK  status: ('A' for Active; 'I' for Inactive)
REMARK    1  A    between atoms: C10_17  and  O1_2 
REMARK    2  A    between atoms: C9_16  and  O1_2 
REMARK       I    between atoms: C11_18  and  N1_7 
REMARK    3  A    between atoms: C8_15  and  N1_7 
REMARK    4  A    between atoms: C7_14  and  C9_16 
REMARK    5  A    between atoms: C11_18  and  C12_19 
ROOT
HETATM    1  S1  UNK     1      15.564   6.291  31.986  1.00  0.00    -0.075 SA
HETATM    2  C1  UNK     1      16.145  10.128  34.319  1.00  0.00     0.005 C 
HETATM    3  C2  UNK     1      17.198   9.014  34.438  1.00  0.00     0.041 C 
HETATM    4  C3  UNK     1      14.719   9.559  34.317  1.00  0.00     0.005 C 
HETATM    5  C4  UNK     1      16.895   7.863  33.528  1.00  0.00    -0.026 A 
HETATM    6  C5  UNK     1      14.484   8.608  33.132  1.00  0.00     0.047 C 
HETATM    7  C6  UNK     1      15.647   7.683  32.961  1.00  0.00    -0.008 A 
HETATM    8  C7  UNK     1      17.793   6.820  33.150  1.00  0.00     0.080 A 
HETATM    9  C8  UNK     1      17.199   5.900  32.314  1.00  0.00     0.094 A 
ENDROOT
BRANCH   9  10
HETATM   10  N1  UNK     1      17.686   4.764  31.726  1.00  0.00    -0.316 N 
HETATM   11  C11 UNK     1      18.008   3.561  32.368  1.00  0.00     0.262 C 
HETATM   12  O4  UNK     1      17.920   3.286  33.558  1.00  0.00    -0.267 OA
HETATM   13  H9  UNK     1      17.801   4.824  30.718  1.00  0.00     0.169 HD
BRANCH  11  14
HETATM   14  C12 UNK     1      18.512   2.537  31.428  1.00  0.00     0.108 A 
HETATM   15  C15 UNK     1      18.838   1.355  31.962  1.00  0.00     0.037 A 
HETATM   16  C16 UNK     1      19.343   0.283  31.117  1.00  0.00    -0.001 A 
HETATM   17  C18 UNK     1      19.481   0.511  29.752  1.00  0.00     0.089 A 
HETATM   18  C19 UNK     1      19.695  -0.967  31.631  1.00  0.00     0.014 A 
HETATM   19  O3  UNK     1      19.135   1.759  29.196  1.00  0.00    -0.274 OA
HETATM   20  C20 UNK     1      19.960  -0.473  28.888  1.00  0.00     0.038 A 
HETATM   21  C17 UNK     1      18.649   2.802  29.979  1.00  0.00     0.304 A 
HETATM   22  O5  UNK     1      18.352   3.885  29.486  1.00  0.00    -0.259 OA
HETATM   23  C22 UNK     1      20.309  -1.717  29.409  1.00  0.00     0.003 A 
HETATM   24  C21 UNK     1      20.177  -1.964  30.777  1.00  0.00     0.001 A 
ENDBRANCH  11  14
ENDBRANCH   9  10
BRANCH   8  25
HETATM   25  C9  UNK     1      19.166   6.704  33.575  1.00  0.00     0.297 C 
HETATM   26  O2  UNK     1      19.509   6.364  34.717  1.00  0.00    -0.259 OA
BRANCH  25  27
HETATM   27  O1  UNK     1      20.083   7.007  32.593  1.00  0.00    -0.313 OA
BRANCH  27  28
HETATM   28  C10 UNK     1      20.802   5.909  32.018  1.00  0.00     0.124 C 
HETATM   29  C13 UNK     1      20.651   5.949  30.505  1.00  0.00     0.040 C 
HETATM   30  C14 UNK     1      22.259   5.988  32.445  1.00  0.00     0.040 C 
ENDBRANCH  27  28
ENDBRANCH  25  27
ENDBRANCH   8  25
TORSDOF 5
ENDMDL
MODEL 9
REMARK VINA RESULT:      -8.4     28.926     31.416
REMARK  5 active torsions:
REMARK  status: ('A' for Active; 'I' for Inactive)
REMARK    1  A    between atoms: C10_17  and  O1_2 
REMARK    2  A    between atoms: C9_16  and  O1_2 
REMARK       I    between atoms: C11_18  and  N1_7 
REMARK    3  A    between atoms: C8_15  and  N1_7 
REMARK    4  A    between atoms: C7_14  and  C9_16 
REMARK    5  A    between atoms: C11_18  and  C12_19 
ROOT
HETATM    1  S1  UNK     1      10.949   9.306   9.620  1.00  0.00    -0.075 SA
HETATM    2  C1  UNK     1       7.976   6.061   8.555  1.00  0.00     0.005 C 
HETATM    3  C2  UNK     1       9.244   6.221   7.703  1.00  0.00     0.041 C 
HETATM    4  C3  UNK     1       7.371   7.423   8.928  1.00  0.00     0.005 C 
HETATM    5  C4  UNK     1      10.156   7.274   8.254  1.00  0.00    -0.026 A 
HETATM    6  C5  UNK     1       8.348   8.275   9.755  1.00  0.00     0.047 C 
HETATM    7  C6  UNK     1       9.724   8.214   9.171  1.00  0.00    -0.008 A 
HETATM    8  C7  UNK     1      11.528   7.471   7.915  1.00  0.00     0.080 A 
HETATM    9  C8  UNK     1      12.080   8.541   8.585  1.00  0.00     0.094 A 
ENDROOT
BRANCH   9  10
HETATM   10  N1  UNK     1      13.341   9.073   8.558  1.00  0.00    -0.316 N 
HETATM   11  C11 UNK     1      14.310   8.983   9.565  1.00  0.00     0.262 C 
HETATM   12  O4  UNK     1      14.230   8.422  10.651  1.00  0.00    -0.267 OA
HETATM   13  H9  UNK     1      13.575   9.565   7.699  1.00  0.00     0.169 HD
BRANCH  11  14
HETATM   14  C12 UNK     1      15.566   9.675   9.205  1.00  0.00     0.108 A 
HETATM   15  C15 UNK     1      15.438  10.789   8.475  1.00  0.00     0.037 A 
HETATM   16  C16 UNK     1      16.616  11.541   8.070  1.00  0.00    -0.001 A 
HETATM   17  C18 UNK     1      17.871  11.082   8.455  1.00  0.00     0.089 A 
HETATM   18  C19 UNK     1      16.529  12.709   7.308  1.00  0.00     0.014 A 
HETATM   19  O3  UNK     1      18.000   9.908   9.224  1.00  0.00    -0.274 OA
HETATM   20  C20 UNK     1      19.039  11.754   8.100  1.00  0.00     0.038 A 
HETATM   21  C17 UNK     1      16.891   9.168   9.626  1.00  0.00     0.304 A 
HETATM   22  O5  UNK     1      17.013   8.148  10.294  1.00  0.00    -0.259 OA
HETATM   23  C22 UNK     1      18.944  12.918   7.340  1.00  0.00     0.003 A 
HETATM   24  C21 UNK     1      17.692  13.394   6.945  1.00  0.00     0.001 A 
ENDBRANCH  11  14
ENDBRANCH   9  10
BRANCH   8  25
HETATM   25  C9  UNK     1      12.283   6.672   6.982  1.00  0.00     0.297 C 
HETATM   26  O2  UNK     1      11.944   6.479   5.805  1.00  0.00    -0.259 OA
BRANCH  25  27
HETATM   27  O1  UNK     1      13.432   6.129   7.513  1.00  0.00    -0.313 OA
BRANCH  27  28
HETATM   28  C10 UNK     1      13.297   5.398   8.738  1.00  0.00     0.124 C 
HETATM   29  C13 UNK     1      12.492   4.133   8.480  1.00  0.00     0.040 C 
HETATM   30  C14 UNK     1      14.680   5.087   9.290  1.00  0.00     0.040 C 
ENDBRANCH  27  28
ENDBRANCH  25  27
ENDBRANCH   8  25
TORSDOF 5
ENDMDL
MODEL 10
REMARK VINA RESULT:      -8.2      6.333      9.349
REMARK  5 active torsions:
REMARK  status: ('A' for Active; 'I' for Inactive)
REMARK    1  A    between atoms: C10_17  and  O1_2 
REMARK    2  A    between atoms: C9_16  and  O1_2 
REMARK       I    between atoms: C11_18  and  N1_7 
REMARK    3  A    between atoms: C8_15  and  N1_7 
REMARK    4  A    between atoms: C7_14  and  C9_16 
REMARK    5  A    between atoms: C11_18  and  C12_19 
ROOT
HETATM    1  S1  UNK     1      23.508  -9.599  36.800  1.00  0.00    -0.075 SA
HETATM    2  C1  UNK     1      19.022  -9.860  37.350  1.00  0.00     0.005 C 
HETATM    3  C2  UNK     1      19.838  -8.958  38.289  1.00  0.00     0.041 C 
HETATM    4  C3  UNK     1      19.739 -11.192  37.082  1.00  0.00     0.005 C 
HETATM    5  C4  UNK     1      21.285  -8.918  37.902  1.00  0.00    -0.026 A 
HETATM    6  C5  UNK     1      21.103 -10.980  36.406  1.00  0.00     0.047 C 
HETATM    7  C6  UNK     1      21.847  -9.860  37.062  1.00  0.00    -0.008 A 
HETATM    8  C7  UNK     1      22.255  -7.968  38.341  1.00  0.00     0.080 A 
HETATM    9  C8  UNK     1      23.504  -8.221  37.817  1.00  0.00     0.094 A 
ENDROOT
BRANCH   9  10
HETATM   10  N1  UNK     1      24.699  -7.572  37.974  1.00  0.00    -0.316 N 
HETATM   11  C11 UNK     1      25.778  -7.984  38.768  1.00  0.00     0.262 C 
HETATM   12  O4  UNK     1      25.870  -8.985  39.467  1.00  0.00    -0.267 OA
HETATM   13  H9  UNK     1      24.791  -6.715  37.434  1.00  0.00     0.169 HD
BRANCH  11  14
HETATM   14  C12 UNK     1      26.916  -7.043  38.706  1.00  0.00     0.108 A 
HETATM   15  C15 UNK     1      28.129  -7.590  38.574  1.00  0.00     0.037 A 
HETATM   16  C16 UNK     1      29.312  -6.746  38.505  1.00  0.00    -0.001 A 
HETATM   17  C18 UNK     1      29.157  -5.365  38.579  1.00  0.00     0.089 A 
HETATM   18  C19 UNK     1      30.598  -7.274  38.367  1.00  0.00     0.014 A 
HETATM   19  O3  UNK     1      27.877  -4.794  38.717  1.00  0.00    -0.274 OA
HETATM   20  C20 UNK     1      30.249  -4.500  38.519  1.00  0.00     0.038 A 
HETATM   21  C17 UNK     1      26.728  -5.577  38.786  1.00  0.00     0.304 A 
HETATM   22  O5  UNK     1      25.617  -5.071  38.908  1.00  0.00    -0.259 OA
HETATM   23  C22 UNK     1      31.528  -5.035  38.382  1.00  0.00     0.003 A 
HETATM   24  C21 UNK     1      31.702  -6.419  38.306  1.00  0.00     0.001 A 
ENDBRANCH  11  14
ENDBRANCH   9  10
BRANCH   8  25
HETATM   25  C9  UNK     1      22.000  -6.863  39.232  1.00  0.00     0.297 C 
HETATM   26  O2  UNK     1      22.694  -6.602  40.225  1.00  0.00    -0.259 OA
BRANCH  25  27
HETATM   27  O1  UNK     1      20.904  -6.105  38.883  1.00  0.00    -0.313 OA
BRANCH  27  28
HETATM   28  C10 UNK     1      20.910  -5.521  37.576  1.00  0.00     0.124 C 
HETATM   29  C13 UNK     1      19.552  -5.737  36.924  1.00  0.00     0.040 C 
HETATM   30  C14 UNK     1      21.255  -4.044  37.689  1.00  0.00     0.040 C 
ENDBRANCH  27  28
ENDBRANCH  25  27
ENDBRANCH   8  25
TORSDOF 5
ENDMDL
