MODEL 1
REMARK VINA RESULT:      -8.5      0.000      0.000
REMARK  3 active torsions:
REMARK  status: ('A' for Active; 'I' for Inactive)
REMARK    1  A    between atoms: C7_11  and  O3_3 
REMARK    2  A    between atoms: C11_15  and  O4_4 
REMARK    3  A    between atoms: C1_5  and  C3_7 
ROOT
HETATM    1  O1  UNK     1      13.116   7.415   8.663  1.00  0.00    -0.340 OA
HETATM    2  O2  UNK     1      15.301   4.107   9.724  1.00  0.00    -0.292 OA
HETATM    3  C1  UNK     1      12.869   6.141   8.049  1.00  0.00     0.172 C 
HETATM    4  C2  UNK     1      13.192   4.995   9.004  1.00  0.00     0.121 C 
HETATM    5  C4  UNK     1      14.639   5.089   9.412  1.00  0.00     0.165 C 
HETATM    6  C5  UNK     1      15.201   6.453   9.486  1.00  0.00     0.046 A 
HETATM    7  C6  UNK     1      14.400   7.542   9.128  1.00  0.00     0.083 A 
HETATM    8  C9  UNK     1      16.504   6.658   9.948  1.00  0.00     0.054 A 
HETATM    9  C10 UNK     1      14.892   8.840   9.266  1.00  0.00     0.040 A 
HETATM   10  C11 UNK     1      16.997   7.958  10.065  1.00  0.00     0.066 A 
HETATM   11  C12 UNK     1      16.191   9.047   9.730  1.00  0.00     0.039 A 
ENDROOT
BRANCH   3  12
HETATM   12  C3  UNK     1      11.413   6.128   7.632  1.00  0.00     0.005 A 
HETATM   13  C7  UNK     1      11.058   6.130   6.283  1.00  0.00     0.074 A 
HETATM   14  C13 UNK     1       9.712   6.118   5.915  1.00  0.00     0.037 A 
HETATM   15  C15 UNK     1       8.721   6.102   6.898  1.00  0.00     0.003 A 
HETATM   16  C14 UNK     1       9.076   6.099   8.246  1.00  0.00     0.001 A 
HETATM   17  C8  UNK     1      10.422   6.111   8.613  1.00  0.00     0.012 A 
BRANCH  13  18
HETATM   18  O3  UNK     1      12.013   6.146   5.312  1.00  0.00    -0.360 OA
HETATM   19  H11 UNK     1      12.656   6.848   5.511  1.00  0.00     0.217 HD
ENDBRANCH  13  18
ENDBRANCH   3  12
BRANCH  10  20
HETATM   20  O4  UNK     1      18.265   8.166  10.516  1.00  0.00    -0.361 OA
HETATM   21  H12 UNK     1      18.633   7.320  10.822  1.00  0.00     0.217 HD
ENDBRANCH  10  20
TORSDOF 3
ENDMDL
MODEL 2
REMARK VINA RESULT:      -8.4      1.082      1.255
REMARK  3 active torsions:
REMARK  status: ('A' for Active; 'I' for Inactive)
REMARK    1  A    between atoms: C7_11  and  O3_3 
REMARK    2  A    between atoms: C11_15  and  O4_4 
REMARK    3  A    between atoms: C1_5  and  C3_7 
ROOT
HETATM    1  O1  UNK     1      13.049   8.383   8.164  1.00  0.00    -0.340 OA
HETATM    2  O2  UNK     1      15.014   5.858  10.736  1.00  0.00    -0.292 OA
HETATM    3  C1  UNK     1      12.808   6.967   8.135  1.00  0.00     0.172 C 
HETATM    4  C2  UNK     1      13.007   6.343   9.514  1.00  0.00     0.121 C 
HETATM    5  C4  UNK     1      14.417   6.609   9.974  1.00  0.00     0.165 C 
HETATM    6  C5  UNK     1      15.020   7.874   9.508  1.00  0.00     0.046 A 
HETATM    7  C6  UNK     1      14.292   8.701   8.647  1.00  0.00     0.083 A 
HETATM    8  C9  UNK     1      16.285   8.263   9.956  1.00  0.00     0.054 A 
HETATM    9  C10 UNK     1      14.818   9.934   8.260  1.00  0.00     0.040 A 
HETATM   10  C11 UNK     1      16.814   9.488   9.550  1.00  0.00     0.066 A 
HETATM   11  C12 UNK     1      16.079  10.325   8.708  1.00  0.00     0.039 A 
ENDROOT
BRANCH   3  12
HETATM   12  C3  UNK     1      11.393   6.771   7.631  1.00  0.00     0.005 A 
HETATM   13  C7  UNK     1      11.154   6.377   6.315  1.00  0.00     0.074 A 
HETATM   14  C13 UNK     1       9.844   6.200   5.867  1.00  0.00     0.037 A 
HETATM   15  C15 UNK     1       8.774   6.416   6.736  1.00  0.00     0.003 A 
HETATM   16  C14 UNK     1       9.014   6.810   8.052  1.00  0.00     0.001 A 
HETATM   17  C8  UNK     1      10.324   6.987   8.500  1.00  0.00     0.012 A 
BRANCH  13  18
HETATM   18  O3  UNK     1      12.187   6.161   5.453  1.00  0.00    -0.360 OA
HETATM   19  H11 UNK     1      13.018   6.124   5.958  1.00  0.00     0.217 HD
ENDBRANCH  13  18
ENDBRANCH   3  12
BRANCH  10  20
HETATM   20  O4  UNK     1      18.046   9.875   9.984  1.00  0.00    -0.361 OA
HETATM   21  H12 UNK     1      18.641   9.947   9.217  1.00  0.00     0.217 HD
ENDBRANCH  10  20
TORSDOF 3
ENDMDL
MODEL 3
REMARK VINA RESULT:      -8.3     24.648     26.656
REMARK  3 active torsions:
REMARK  status: ('A' for Active; 'I' for Inactive)
REMARK    1  A    between atoms: C7_11  and  O3_3 
REMARK    2  A    between atoms: C11_15  and  O4_4 
REMARK    3  A    between atoms: C1_5  and  C3_7 
ROOT
HETATM    1  O1  UNK     1      18.649   0.276  33.149  1.00  0.00    -0.340 OA
HETATM    2  O2  UNK     1      20.878  -3.130  32.622  1.00  0.00    -0.292 OA
HETATM    3  C1  UNK     1      18.403  -0.896  33.942  1.00  0.00     0.172 C 
HETATM    4  C2  UNK     1      19.679  -1.709  34.139  1.00  0.00     0.121 C 
HETATM    5  C4  UNK     1      20.217  -2.112  32.790  1.00  0.00     0.165 C 
HETATM    6  C5  UNK     1      19.963  -1.166  31.685  1.00  0.00     0.046 A 
HETATM    7  C6  UNK     1      19.211  -0.013  31.933  1.00  0.00     0.083 A 
HETATM    8  C9  UNK     1      20.503  -1.397  30.417  1.00  0.00     0.054 A 
HETATM    9  C10 UNK     1      19.029   0.927  30.918  1.00  0.00     0.040 A 
HETATM   10  C11 UNK     1      20.300  -0.463  29.401  1.00  0.00     0.066 A 
HETATM   11  C12 UNK     1      19.569   0.699  29.652  1.00  0.00     0.039 A 
ENDROOT
BRANCH   3  12
HETATM   12  C3  UNK     1      17.831  -0.423  35.262  1.00  0.00     0.005 A 
HETATM   13  C7  UNK     1      16.661   0.336  35.302  1.00  0.00     0.074 A 
HETATM   14  C13 UNK     1      16.148   0.764  36.527  1.00  0.00     0.037 A 
HETATM   15  C15 UNK     1      16.805   0.432  37.712  1.00  0.00     0.003 A 
HETATM   16  C14 UNK     1      17.974  -0.327  37.672  1.00  0.00     0.001 A 
HETATM   17  C8  UNK     1      18.487  -0.755  36.447  1.00  0.00     0.012 A 
BRANCH  13  18
HETATM   18  O3  UNK     1      16.008   0.669  34.154  1.00  0.00    -0.360 OA
HETATM   19  H11 UNK     1      15.190   0.148  34.092  1.00  0.00     0.217 HD
ENDBRANCH  13  18
ENDBRANCH   3  12
BRANCH  10  20
HETATM   20  O4  UNK     1      20.824  -0.680  28.163  1.00  0.00    -0.361 OA
HETATM   21  H12 UNK     1      20.119  -1.003  27.575  1.00  0.00     0.217 HD
ENDBRANCH  10  20
TORSDOF 3
ENDMDL
MODEL 4
REMARK VINA RESULT:      -8.0     24.112     26.268
REMARK  3 active torsions:
REMARK  status: ('A' for Active; 'I' for Inactive)
REMARK    1  A    between atoms: C7_11  and  O3_3 
REMARK    2  A    between atoms: C11_15  and  O4_4 
REMARK    3  A    between atoms: C1_5  and  C3_7 
ROOT
HETATM    1  O1  UNK     1      18.567  -0.126  33.185  1.00  0.00    -0.340 OA
HETATM    2  O2  UNK     1      18.768   3.138  30.705  1.00  0.00    -0.292 OA
HETATM    3  C1  UNK     1      18.588   1.206  33.721  1.00  0.00     0.172 C 
HETATM    4  C2  UNK     1      17.948   2.201  32.756  1.00  0.00     0.121 C 
HETATM    5  C4  UNK     1      18.697   2.167  31.449  1.00  0.00     0.165 C 
HETATM    6  C5  UNK     1      19.286   0.865  31.076  1.00  0.00     0.046 A 
HETATM    7  C6  UNK     1      19.168  -0.215  31.956  1.00  0.00     0.083 A 
HETATM    8  C9  UNK     1      19.916   0.702  29.839  1.00  0.00     0.054 A 
HETATM    9  C10 UNK     1      19.652  -1.470  31.583  1.00  0.00     0.040 A 
HETATM   10  C11 UNK     1      20.415  -0.551  29.480  1.00  0.00     0.066 A 
HETATM   11  C12 UNK     1      20.279  -1.636  30.349  1.00  0.00     0.039 A 
ENDROOT
BRANCH   3  12
HETATM   12  C3  UNK     1      17.854   1.160  35.045  1.00  0.00     0.005 A 
HETATM   13  C7  UNK     1      18.407   1.741  36.187  1.00  0.00     0.074 A 
HETATM   14  C13 UNK     1      17.718   1.690  37.399  1.00  0.00     0.037 A 
HETATM   15  C15 UNK     1      16.475   1.060  37.468  1.00  0.00     0.003 A 
HETATM   16  C14 UNK     1      15.922   0.480  36.327  1.00  0.00     0.001 A 
HETATM   17  C8  UNK     1      16.612   0.531  35.115  1.00  0.00     0.012 A 
BRANCH  13  18
HETATM   18  O3  UNK     1      19.619   2.359  36.136  1.00  0.00    -0.360 OA
HETATM   19  H11 UNK     1      20.294   1.714  35.864  1.00  0.00     0.217 HD
ENDBRANCH  13  18
ENDBRANCH   3  12
BRANCH  10  20
HETATM   20  O4  UNK     1      21.030  -0.719  28.277  1.00  0.00    -0.361 OA
HETATM   21  H12 UNK     1      20.710  -0.036  27.662  1.00  0.00     0.217 HD
ENDBRANCH  10  20
TORSDOF 3
ENDMDL
MODEL 5
REMARK VINA RESULT:      -7.9      1.224      2.346
REMARK  3 active torsions:
REMARK  status: ('A' for Active; 'I' for Inactive)
REMARK    1  A    between atoms: C7_11  and  O3_3 
REMARK    2  A    between atoms: C11_15  and  O4_4 
REMARK    3  A    between atoms: C1_5  and  C3_7 
ROOT
HETATM    1  O1  UNK     1      13.176   6.306   8.340  1.00  0.00    -0.340 OA
HETATM    2  O2  UNK     1      14.116  10.124   9.518  1.00  0.00    -0.292 OA
HETATM    3  C1  UNK     1      12.148   7.235   8.718  1.00  0.00     0.172 C 
HETATM    4  C2  UNK     1      12.559   8.672   8.411  1.00  0.00     0.121 C 
HETATM    5  C4  UNK     1      13.830   8.989   9.157  1.00  0.00     0.165 C 
HETATM    6  C5  UNK     1      14.754   7.856   9.367  1.00  0.00     0.046 A 
HETATM    7  C6  UNK     1      14.384   6.582   8.926  1.00  0.00     0.083 A 
HETATM    8  C9  UNK     1      16.003   8.062   9.961  1.00  0.00     0.054 A 
HETATM    9  C10 UNK     1      15.279   5.518   9.049  1.00  0.00     0.040 A 
HETATM   10  C11 UNK     1      16.885   6.990  10.099  1.00  0.00     0.066 A 
HETATM   11  C12 UNK     1      16.526   5.721   9.639  1.00  0.00     0.039 A 
ENDROOT
BRANCH   3  12
HETATM   12  C3  UNK     1      10.896   6.838   7.964  1.00  0.00     0.005 A 
HETATM   13  C7  UNK     1      10.962   6.459   6.623  1.00  0.00     0.074 A 
HETATM   14  C13 UNK     1       9.799   6.096   5.943  1.00  0.00     0.037 A 
HETATM   15  C15 UNK     1       8.570   6.112   6.604  1.00  0.00     0.003 A 
HETATM   16  C14 UNK     1       8.505   6.491   7.944  1.00  0.00     0.001 A 
HETATM   17  C8  UNK     1       9.668   6.854   8.625  1.00  0.00     0.012 A 
BRANCH  13  18
HETATM   18  O3  UNK     1      12.153   6.438   5.963  1.00  0.00    -0.360 OA
HETATM   19  H11 UNK     1      12.102   5.793   5.237  1.00  0.00     0.217 HD
ENDBRANCH  13  18
ENDBRANCH   3  12
BRANCH  10  20
HETATM   20  O4  UNK     1      18.104   7.182  10.675  1.00  0.00    -0.361 OA
HETATM   21  H12 UNK     1      18.555   7.915  10.220  1.00  0.00     0.217 HD
ENDBRANCH  10  20
TORSDOF 3
ENDMDL
MODEL 6
REMARK VINA RESULT:      -7.8     24.451     26.400
REMARK  3 active torsions:
REMARK  status: ('A' for Active; 'I' for Inactive)
REMARK    1  A    between atoms: C7_11  and  O3_3 
REMARK    2  A    between atoms: C11_15  and  O4_4 
REMARK    3  A    between atoms: C1_5  and  C3_7 
ROOT
HETATM    1  O1  UNK     1      18.074   0.202  33.262  1.00  0.00    -0.340 OA
HETATM    2  O2  UNK     1      20.622  -2.962  33.848  1.00  0.00    -0.292 OA
HETATM    3  C1  UNK     1      19.244   0.037  32.446  1.00  0.00     0.172 C 
HETATM    4  C2  UNK     1      19.611  -1.437  32.296  1.00  0.00     0.121 C 
HETATM    5  C4  UNK     1      19.859  -2.022  33.662  1.00  0.00     0.165 C 
HETATM    6  C5  UNK     1      19.068  -1.441  34.766  1.00  0.00     0.046 A 
HETATM    7  C6  UNK     1      18.203  -0.375  34.499  1.00  0.00     0.083 A 
HETATM    8  C9  UNK     1      19.150  -1.977  36.054  1.00  0.00     0.054 A 
HETATM    9  C10 UNK     1      17.393   0.133  35.516  1.00  0.00     0.040 A 
HETATM   10  C11 UNK     1      18.352  -1.452  37.071  1.00  0.00     0.066 A 
HETATM   11  C12 UNK     1      17.471  -0.402  36.801  1.00  0.00     0.039 A 
ENDROOT
BRANCH   3  12
HETATM   12  C3  UNK     1      18.941   0.677  31.107  1.00  0.00     0.005 A 
HETATM   13  C7  UNK     1      18.313   1.921  31.037  1.00  0.00     0.074 A 
HETATM   14  C13 UNK     1      18.042   2.496  29.795  1.00  0.00     0.037 A 
HETATM   15  C15 UNK     1      18.399   1.828  28.623  1.00  0.00     0.003 A 
HETATM   16  C14 UNK     1      19.027   0.585  28.694  1.00  0.00     0.001 A 
HETATM   17  C8  UNK     1      19.298   0.009  29.936  1.00  0.00     0.012 A 
BRANCH  13  18
HETATM   18  O3  UNK     1      17.958   2.586  32.171  1.00  0.00    -0.360 OA
HETATM   19  H11 UNK     1      18.742   2.691  32.736  1.00  0.00     0.217 HD
ENDBRANCH  13  18
ENDBRANCH   3  12
BRANCH  10  20
HETATM   20  O4  UNK     1      18.425  -1.969  38.329  1.00  0.00    -0.361 OA
HETATM   21  H12 UNK     1      17.911  -2.795  38.359  1.00  0.00     0.217 HD
ENDBRANCH  10  20
TORSDOF 3
ENDMDL
MODEL 7
REMARK VINA RESULT:      -7.6     23.058     25.276
REMARK  3 active torsions:
REMARK  status: ('A' for Active; 'I' for Inactive)
REMARK    1  A    between atoms: C7_11  and  O3_3 
REMARK    2  A    between atoms: C11_15  and  O4_4 
REMARK    3  A    between atoms: C1_5  and  C3_7 
ROOT
HETATM    1  O1  UNK     1      17.541   8.759  32.930  1.00  0.00    -0.340 OA
HETATM    2  O2  UNK     1      13.712   7.336  32.525  1.00  0.00    -0.292 OA
HETATM    3  C1  UNK     1      17.293   7.360  32.725  1.00  0.00     0.172 C 
HETATM    4  C2  UNK     1      16.023   7.137  31.908  1.00  0.00     0.121 C 
HETATM    5  C4  UNK     1      14.857   7.758  32.634  1.00  0.00     0.165 C 
HETATM    6  C5  UNK     1      15.163   8.959  33.437  1.00  0.00     0.046 A 
HETATM    7  C6  UNK     1      16.486   9.405  33.522  1.00  0.00     0.083 A 
HETATM    8  C9  UNK     1      14.139   9.667  34.070  1.00  0.00     0.054 A 
HETATM    9  C10 UNK     1      16.779  10.581  34.213  1.00  0.00     0.040 A 
HETATM   10  C11 UNK     1      14.440  10.832  34.777  1.00  0.00     0.066 A 
HETATM   11  C12 UNK     1      15.757  11.291  34.843  1.00  0.00     0.039 A 
ENDROOT
BRANCH   3  12
HETATM   12  C3  UNK     1      18.512   6.793  32.027  1.00  0.00     0.005 A 
HETATM   13  C7  UNK     1      19.731   6.686  32.698  1.00  0.00     0.074 A 
HETATM   14  C13 UNK     1      20.845   6.161  32.041  1.00  0.00     0.037 A 
HETATM   15  C15 UNK     1      20.739   5.744  30.713  1.00  0.00     0.003 A 
HETATM   16  C14 UNK     1      19.521   5.852  30.044  1.00  0.00     0.001 A 
HETATM   17  C8  UNK     1      18.407   6.376  30.701  1.00  0.00     0.012 A 
BRANCH  13  18
HETATM   18  O3  UNK     1      19.851   7.088  33.993  1.00  0.00    -0.360 OA
HETATM   19  H11 UNK     1      19.780   6.312  34.575  1.00  0.00     0.217 HD
ENDBRANCH  13  18
ENDBRANCH   3  12
BRANCH  10  20
HETATM   20  O4  UNK     1      13.447  11.529  35.395  1.00  0.00    -0.361 OA
HETATM   21  H12 UNK     1      12.615  11.032  35.312  1.00  0.00     0.217 HD
ENDBRANCH  10  20
TORSDOF 3
ENDMDL
MODEL 8
REMARK VINA RESULT:      -7.6     22.723     25.149
REMARK  3 active torsions:
REMARK  status: ('A' for Active; 'I' for Inactive)
REMARK    1  A    between atoms: C7_11  and  O3_3 
REMARK    2  A    between atoms: C11_15  and  O4_4 
REMARK    3  A    between atoms: C1_5  and  C3_7 
ROOT
HETATM    1  O1  UNK     1      19.045   6.407  31.843  1.00  0.00    -0.340 OA
HETATM    2  O2  UNK     1      18.075   3.291  34.333  1.00  0.00    -0.292 OA
HETATM    3  C1  UNK     1      18.387   6.643  33.098  1.00  0.00     0.172 C 
HETATM    4  C2  UNK     1      18.762   5.581  34.128  1.00  0.00     0.121 C 
HETATM    5  C4  UNK     1      18.372   4.225  33.598  1.00  0.00     0.165 C 
HETATM    6  C5  UNK     1      18.439   4.062  32.132  1.00  0.00     0.046 A 
HETATM    7  C6  UNK     1      18.794   5.157  31.338  1.00  0.00     0.083 A 
HETATM    8  C9  UNK     1      18.193   2.817  31.546  1.00  0.00     0.054 A 
HETATM    9  C10 UNK     1      18.936   4.998  29.959  1.00  0.00     0.040 A 
HETATM   10  C11 UNK     1      18.317   2.669  30.164  1.00  0.00     0.066 A 
HETATM   11  C12 UNK     1      18.693   3.756  29.373  1.00  0.00     0.039 A 
ENDROOT
BRANCH   3  12
HETATM   12  C3  UNK     1      18.791   8.030  33.552  1.00  0.00     0.005 A 
HETATM   13  C7  UNK     1      17.918   9.109  33.413  1.00  0.00     0.074 A 
HETATM   14  C13 UNK     1      18.305  10.381  33.837  1.00  0.00     0.037 A 
HETATM   15  C15 UNK     1      19.566  10.573  34.403  1.00  0.00     0.003 A 
HETATM   16  C14 UNK     1      20.439   9.494  34.542  1.00  0.00     0.001 A 
HETATM   17  C8  UNK     1      20.051   8.223  34.118  1.00  0.00     0.012 A 
BRANCH  13  18
HETATM   18  O3  UNK     1      16.683   8.939  32.863  1.00  0.00    -0.360 OA
HETATM   19  H11 UNK     1      16.046   8.740  33.570  1.00  0.00     0.217 HD
ENDBRANCH  13  18
ENDBRANCH   3  12
BRANCH  10  20
HETATM   20  O4  UNK     1      18.081   1.459  29.586  1.00  0.00    -0.361 OA
HETATM   21  H12 UNK     1      18.735   1.314  28.881  1.00  0.00     0.217 HD
ENDBRANCH  10  20
TORSDOF 3
ENDMDL
MODEL 9
REMARK VINA RESULT:      -7.6     11.177     12.677
REMARK  3 active torsions:
REMARK  status: ('A' for Active; 'I' for Inactive)
REMARK    1  A    between atoms: C7_11  and  O3_3 
REMARK    2  A    between atoms: C11_15  and  O4_4 
REMARK    3  A    between atoms: C1_5  and  C3_7 
ROOT
HETATM    1  O1  UNK     1      19.259  -0.872  16.944  1.00  0.00    -0.340 OA
HETATM    2  O2  UNK     1      19.317   3.158  16.170  1.00  0.00    -0.292 OA
HETATM    3  C1  UNK     1      18.808  -0.357  15.682  1.00  0.00     0.172 C 
HETATM    4  C2  UNK     1      19.542   0.928  15.313  1.00  0.00     0.121 C 
HETATM    5  C4  UNK     1      19.308   1.954  16.393  1.00  0.00     0.165 C 
HETATM    6  C5  UNK     1      19.138   1.423  17.760  1.00  0.00     0.046 A 
HETATM    7  C6  UNK     1      19.145   0.039  17.962  1.00  0.00     0.083 A 
HETATM    8  C9  UNK     1      19.013   2.293  18.847  1.00  0.00     0.054 A 
HETATM    9  C10 UNK     1      19.062  -0.474  19.257  1.00  0.00     0.040 A 
HETATM   10  C11 UNK     1      18.910   1.774  20.138  1.00  0.00     0.066 A 
HETATM   11  C12 UNK     1      18.940   0.393  20.343  1.00  0.00     0.039 A 
ENDROOT
BRANCH   3  12
HETATM   12  C3  UNK     1      19.037  -1.446  14.654  1.00  0.00     0.005 A 
HETATM   13  C7  UNK     1      18.408  -2.686  14.777  1.00  0.00     0.074 A 
HETATM   14  C13 UNK     1      18.630  -3.678  13.821  1.00  0.00     0.037 A 
HETATM   15  C15 UNK     1      19.479  -3.430  12.743  1.00  0.00     0.003 A 
HETATM   16  C14 UNK     1      20.107  -2.191  12.620  1.00  0.00     0.001 A 
HETATM   17  C8  UNK     1      19.885  -1.199  13.576  1.00  0.00     0.012 A 
BRANCH  13  18
HETATM   18  O3  UNK     1      17.576  -2.944  15.824  1.00  0.00    -0.360 OA
HETATM   19  H11 UNK     1      16.816  -3.460  15.505  1.00  0.00     0.217 HD
ENDBRANCH  13  18
ENDBRANCH   3  12
BRANCH  10  20
HETATM   20  O4  UNK     1      18.790   2.615  21.202  1.00  0.00    -0.361 OA
HETATM   21  H12 UNK     1      19.550   3.222  21.211  1.00  0.00     0.217 HD
ENDBRANCH  10  20
TORSDOF 3
ENDMDL
MODEL 10
REMARK VINA RESULT:      -7.6     24.190     26.365
REMARK  3 active torsions:
REMARK  status: ('A' for Active; 'I' for Inactive)
REMARK    1  A    between atoms: C7_11  and  O3_3 
REMARK    2  A    between atoms: C11_15  and  O4_4 
REMARK    3  A    between atoms: C1_5  and  C3_7 
ROOT
HETATM    1  O1  UNK     1      18.954   0.322  33.236  1.00  0.00    -0.340 OA
HETATM    2  O2  UNK     1      20.141  -1.672  29.850  1.00  0.00    -0.292 OA
HETATM    3  C1  UNK     1      18.939  -1.113  33.182  1.00  0.00     0.172 C 
HETATM    4  C2  UNK     1      20.022  -1.644  32.246  1.00  0.00     0.121 C 
HETATM    5  C4  UNK     1      19.796  -1.081  30.866  1.00  0.00     0.165 C 
HETATM    6  C5  UNK     1      19.195   0.267  30.809  1.00  0.00     0.046 A 
HETATM    7  C6  UNK     1      18.829   0.902  32.000  1.00  0.00     0.083 A 
HETATM    8  C9  UNK     1      19.035   0.919  29.584  1.00  0.00     0.054 A 
HETATM    9  C10 UNK     1      18.332   2.205  31.967  1.00  0.00     0.040 A 
HETATM   10  C11 UNK     1      18.519   2.215  29.555  1.00  0.00     0.066 A 
HETATM   11  C12 UNK     1      18.173   2.859  30.745  1.00  0.00     0.039 A 
ENDROOT
BRANCH   3  12
HETATM   12  C3  UNK     1      19.133  -1.610  34.599  1.00  0.00     0.005 A 
HETATM   13  C7  UNK     1      18.242  -1.248  35.610  1.00  0.00     0.074 A 
HETATM   14  C13 UNK     1      18.435  -1.714  36.911  1.00  0.00     0.037 A 
HETATM   15  C15 UNK     1      19.519  -2.544  37.201  1.00  0.00     0.003 A 
HETATM   16  C14 UNK     1      20.409  -2.906  36.191  1.00  0.00     0.001 A 
HETATM   17  C8  UNK     1      20.216  -2.439  34.890  1.00  0.00     0.012 A 
BRANCH  13  18
HETATM   18  O3  UNK     1      17.179  -0.439  35.344  1.00  0.00    -0.360 OA
HETATM   19  H11 UNK     1      17.208   0.329  35.940  1.00  0.00     0.217 HD
ENDBRANCH  13  18
ENDBRANCH   3  12
BRANCH  10  20
HETATM   20  O4  UNK     1      18.360   2.858  28.365  1.00  0.00    -0.361 OA
HETATM   21  H12 UNK     1      17.757   3.611  28.492  1.00  0.00     0.217 HD
ENDBRANCH  10  20
TORSDOF 3
ENDMDL
