MODEL 1
REMARK VINA RESULT:      -7.7      0.000      0.000
REMARK  1 active torsions:
REMARK  status: ('A' for Active; 'I' for Inactive)
REMARK    1  A    between atoms: C6_12  and  N1_5 
ROOT
HETATM    1  O1  UNK     1      20.927  -2.454  30.847  1.00  0.00    -0.274 OA
HETATM    2  O2  UNK     1      21.616  -4.012  32.352  1.00  0.00    -0.258 OA
HETATM    3  N2  UNK     1      20.247  -3.353  35.544  1.00  0.00    -0.191 NA
HETATM    4  C1  UNK     1      19.442  -0.654  31.546  1.00  0.00     0.008 A 
HETATM    5  C2  UNK     1      19.450  -1.204  32.917  1.00  0.00    -0.022 A 
HETATM    6  C3  UNK     1      20.181  -1.300  30.558  1.00  0.00     0.090 A 
HETATM    7  C4  UNK     1      18.726   0.492  31.167  1.00  0.00     0.051 A 
HETATM    8  C5  UNK     1      20.171  -2.315  33.175  1.00  0.00     0.126 A 
HETATM    9  C6  UNK     1      18.760   0.962  29.848  1.00  0.00     0.103 A 
HETATM   10  C7  UNK     1      20.226  -0.846  29.238  1.00  0.00     0.041 A 
HETATM   11  C8  UNK     1      18.636  -0.477  33.962  1.00  0.00     0.051 C 
HETATM   12  C9  UNK     1      19.510   0.292  28.884  1.00  0.00     0.039 A 
HETATM   13  C10 UNK     1      20.959  -3.003  32.118  1.00  0.00     0.309 A 
HETATM   14  C11 UNK     1      20.213  -2.888  34.483  1.00  0.00     0.106 C 
ENDROOT
BRANCH   9  15
HETATM   15  N1  UNK     1      18.027   2.124  29.493  1.00  0.00    -0.116 N 
HETATM   16  O3  UNK     1      17.335   2.697  30.370  1.00  0.00    -0.532 OA
HETATM   17  O4  UNK     1      18.091   2.547  28.314  1.00  0.00    -0.532 OA
ENDBRANCH   9  15
TORSDOF 1
ENDMDL
MODEL 2
REMARK VINA RESULT:      -7.4      1.936      2.509
REMARK  1 active torsions:
REMARK  status: ('A' for Active; 'I' for Inactive)
REMARK    1  A    between atoms: C6_12  and  N1_5 
ROOT
HETATM    1  O1  UNK     1      20.558  -2.987  33.619  1.00  0.00    -0.274 OA
HETATM    2  O2  UNK     1      20.326  -3.492  35.824  1.00  0.00    -0.258 OA
HETATM    3  N2  UNK     1      18.232  -1.138  37.428  1.00  0.00    -0.191 NA
HETATM    4  C1  UNK     1      19.428  -1.041  32.687  1.00  0.00     0.008 A 
HETATM    5  C2  UNK     1      18.866  -0.751  34.022  1.00  0.00    -0.022 A 
HETATM    6  C3  UNK     1      20.254  -2.151  32.532  1.00  0.00     0.090 A 
HETATM    7  C4  UNK     1      19.178  -0.263  31.547  1.00  0.00     0.051 A 
HETATM    8  C5  UNK     1      19.168  -1.566  35.053  1.00  0.00     0.126 A 
HETATM    9  C6  UNK     1      19.742  -0.594  30.308  1.00  0.00     0.103 A 
HETATM   10  C7  UNK     1      20.825  -2.497  31.305  1.00  0.00     0.041 A 
HETATM   11  C8  UNK     1      17.973   0.462  34.150  1.00  0.00     0.051 C 
HETATM   12  C9  UNK     1      20.565  -1.711  30.188  1.00  0.00     0.039 A 
HETATM   13  C10 UNK     1      20.050  -2.750  34.886  1.00  0.00     0.309 A 
HETATM   14  C11 UNK     1      18.651  -1.330  36.364  1.00  0.00     0.106 C 
ENDROOT
BRANCH   9  15
HETATM   15  N1  UNK     1      19.473   0.212  29.171  1.00  0.00    -0.116 N 
HETATM   16  O3  UNK     1      19.283   1.442  29.330  1.00  0.00    -0.532 OA
HETATM   17  O4  UNK     1      19.432  -0.327  28.039  1.00  0.00    -0.532 OA
ENDBRANCH   9  15
TORSDOF 1
ENDMDL
MODEL 3
REMARK VINA RESULT:      -7.2      1.897      5.485
REMARK  1 active torsions:
REMARK  status: ('A' for Active; 'I' for Inactive)
REMARK    1  A    between atoms: C6_12  and  N1_5 
ROOT
HETATM    1  O1  UNK     1      19.272   1.291  28.971  1.00  0.00    -0.274 OA
HETATM    2  O2  UNK     1      18.346   3.360  28.797  1.00  0.00    -0.258 OA
HETATM    3  N2  UNK     1      17.371   4.560  31.975  1.00  0.00    -0.191 NA
HETATM    4  C1  UNK     1      19.473   0.223  31.151  1.00  0.00     0.008 A 
HETATM    5  C2  UNK     1      18.846   1.408  31.770  1.00  0.00    -0.022 A 
HETATM    6  C3  UNK     1      19.665   0.206  29.772  1.00  0.00     0.090 A 
HETATM    7  C4  UNK     1      19.897  -0.904  31.872  1.00  0.00     0.051 A 
HETATM    8  C5  UNK     1      18.477   2.441  30.984  1.00  0.00     0.126 A 
HETATM    9  C6  UNK     1      20.487  -1.997  31.223  1.00  0.00     0.103 A 
HETATM   10  C7  UNK     1      20.252  -0.875  29.109  1.00  0.00     0.041 A 
HETATM   11  C8  UNK     1      18.655   1.390  33.268  1.00  0.00     0.051 C 
HETATM   12  C9  UNK     1      20.664  -1.982  29.842  1.00  0.00     0.039 A 
HETATM   13  C10 UNK     1      18.683   2.421  29.512  1.00  0.00     0.309 A 
HETATM   14  C11 UNK     1      17.866   3.611  31.531  1.00  0.00     0.106 C 
ENDROOT
BRANCH   9  15
HETATM   15  N1  UNK     1      20.905  -3.124  31.978  1.00  0.00    -0.116 N 
HETATM   16  O3  UNK     1      20.808  -3.088  33.229  1.00  0.00    -0.532 OA
HETATM   17  O4  UNK     1      21.361  -4.125  31.375  1.00  0.00    -0.532 OA
ENDBRANCH   9  15
TORSDOF 1
ENDMDL
MODEL 4
REMARK VINA RESULT:      -7.1      2.775      5.877
REMARK  1 active torsions:
REMARK  status: ('A' for Active; 'I' for Inactive)
REMARK    1  A    between atoms: C6_12  and  N1_5 
ROOT
HETATM    1  O1  UNK     1      18.352   1.954  31.972  1.00  0.00    -0.274 OA
HETATM    2  O2  UNK     1      18.895   2.339  29.798  1.00  0.00    -0.258 OA
HETATM    3  N2  UNK     1      20.492  -0.485  28.393  1.00  0.00    -0.191 NA
HETATM    4  C1  UNK     1      18.887  -0.187  33.003  1.00  0.00     0.008 A 
HETATM    5  C2  UNK     1      19.479  -0.634  31.725  1.00  0.00    -0.022 A 
HETATM    6  C3  UNK     1      18.343   1.092  33.081  1.00  0.00     0.090 A 
HETATM    7  C4  UNK     1      18.834  -0.979  34.160  1.00  0.00     0.051 A 
HETATM    8  C5  UNK     1      19.477   0.207  30.671  1.00  0.00     0.126 A 
HETATM    9  C6  UNK     1      18.257  -0.495  35.341  1.00  0.00     0.103 A 
HETATM   10  C7  UNK     1      17.763   1.591  34.250  1.00  0.00     0.041 A 
HETATM   11  C8  UNK     1      20.060  -2.029  31.680  1.00  0.00     0.051 C 
HETATM   12  C9  UNK     1      17.721   0.790  35.385  1.00  0.00     0.039 A 
HETATM   13  C10 UNK     1      18.896   1.573  30.756  1.00  0.00     0.309 A 
HETATM   14  C11 UNK     1      20.037  -0.174  29.413  1.00  0.00     0.106 C 
ENDROOT
BRANCH   9  15
HETATM   15  N1  UNK     1      18.217  -1.318  36.497  1.00  0.00    -0.116 N 
HETATM   16  O3  UNK     1      17.804  -0.829  37.576  1.00  0.00    -0.532 OA
HETATM   17  O4  UNK     1      18.594  -2.511  36.408  1.00  0.00    -0.532 OA
ENDBRANCH   9  15
TORSDOF 1
ENDMDL
MODEL 5
REMARK VINA RESULT:      -7.1      7.318     10.005
REMARK  1 active torsions:
REMARK  status: ('A' for Active; 'I' for Inactive)
REMARK    1  A    between atoms: C6_12  and  N1_5 
ROOT
HETATM    1  O1  UNK     1      18.120   8.974  33.668  1.00  0.00    -0.274 OA
HETATM    2  O2  UNK     1      16.989  10.858  34.249  1.00  0.00    -0.258 OA
HETATM    3  N2  UNK     1      13.566  10.566  33.415  1.00  0.00    -0.191 NA
HETATM    4  C1  UNK     1      16.941   7.116  32.623  1.00  0.00     0.008 A 
HETATM    5  C2  UNK     1      15.686   7.893  32.699  1.00  0.00    -0.022 A 
HETATM    6  C3  UNK     1      18.114   7.684  33.111  1.00  0.00     0.090 A 
HETATM    7  C4  UNK     1      17.029   5.823  32.085  1.00  0.00     0.051 A 
HETATM    8  C5  UNK     1      15.711   9.129  33.238  1.00  0.00     0.126 A 
HETATM    9  C6  UNK     1      18.250   5.139  32.043  1.00  0.00     0.103 A 
HETATM   10  C7  UNK     1      19.341   7.017  33.079  1.00  0.00     0.041 A 
HETATM   11  C8  UNK     1      14.434   7.243  32.159  1.00  0.00     0.051 C 
HETATM   12  C9  UNK     1      19.406   5.737  32.541  1.00  0.00     0.039 A 
HETATM   13  C10 UNK     1      16.965   9.734  33.760  1.00  0.00     0.309 A 
HETATM   14  C11 UNK     1      14.528   9.923  33.336  1.00  0.00     0.106 C 
ENDROOT
BRANCH   9  15
HETATM   15  N1  UNK     1      18.310   3.832  31.493  1.00  0.00    -0.116 N 
HETATM   16  O3  UNK     1      18.941   3.653  30.423  1.00  0.00    -0.532 OA
HETATM   17  O4  UNK     1      17.733   2.893  32.091  1.00  0.00    -0.532 OA
ENDBRANCH   9  15
TORSDOF 1
ENDMDL
MODEL 6
REMARK VINA RESULT:      -7.0     13.514     15.895
REMARK  1 active torsions:
REMARK  status: ('A' for Active; 'I' for Inactive)
REMARK    1  A    between atoms: C6_12  and  N1_5 
ROOT
HETATM    1  O1  UNK     1      19.339   1.287  15.069  1.00  0.00    -0.274 OA
HETATM    2  O2  UNK     1      19.477   3.335  16.046  1.00  0.00    -0.258 OA
HETATM    3  N2  UNK     1      19.231   3.059  19.562  1.00  0.00    -0.191 NA
HETATM    4  C1  UNK     1      19.062  -0.705  16.444  1.00  0.00     0.008 A 
HETATM    5  C2  UNK     1      19.070   0.148  17.650  1.00  0.00    -0.022 A 
HETATM    6  C3  UNK     1      19.198  -0.105  15.195  1.00  0.00     0.090 A 
HETATM    7  C4  UNK     1      18.928  -2.101  16.475  1.00  0.00     0.051 A 
HETATM    8  C5  UNK     1      19.208   1.483  17.509  1.00  0.00     0.126 A 
HETATM    9  C6  UNK     1      18.930  -2.853  15.293  1.00  0.00     0.103 A 
HETATM   10  C7  UNK     1      19.203  -0.840  14.007  1.00  0.00     0.041 A 
HETATM   11  C8  UNK     1      18.920  -0.539  18.988  1.00  0.00     0.051 C 
HETATM   12  C9  UNK     1      19.067  -2.222  14.060  1.00  0.00     0.039 A 
HETATM   13  C10 UNK     1      19.353   2.121  16.175  1.00  0.00     0.309 A 
HETATM   14  C11 UNK     1      19.221   2.354  18.642  1.00  0.00     0.106 C 
ENDROOT
BRANCH   9  15
HETATM   15  N1  UNK     1      18.791  -4.265  15.354  1.00  0.00    -0.116 N 
HETATM   16  O3  UNK     1      17.685  -4.780  15.059  1.00  0.00    -0.532 OA
HETATM   17  O4  UNK     1      19.777  -4.959  15.700  1.00  0.00    -0.532 OA
ENDBRANCH   9  15
TORSDOF 1
ENDMDL
MODEL 7
REMARK VINA RESULT:      -7.0      2.263      6.264
REMARK  1 active torsions:
REMARK  status: ('A' for Active; 'I' for Inactive)
REMARK    1  A    between atoms: C6_12  and  N1_5 
ROOT
HETATM    1  O1  UNK     1      18.651   0.423  32.856  1.00  0.00    -0.274 OA
HETATM    2  O2  UNK     1      18.598   1.369  30.789  1.00  0.00    -0.258 OA
HETATM    3  N2  UNK     1      20.328  -0.642  28.452  1.00  0.00    -0.191 NA
HETATM    4  C1  UNK     1      19.799  -1.698  33.198  1.00  0.00     0.008 A 
HETATM    5  C2  UNK     1      20.155  -1.717  31.764  1.00  0.00    -0.022 A 
HETATM    6  C3  UNK     1      19.058  -0.629  33.693  1.00  0.00     0.090 A 
HETATM    7  C4  UNK     1      20.162  -2.704  34.107  1.00  0.00     0.051 A 
HETATM    8  C5  UNK     1      19.753  -0.699  30.975  1.00  0.00     0.126 A 
HETATM    9  C6  UNK     1      19.791  -2.627  35.456  1.00  0.00     0.103 A 
HETATM   10  C7  UNK     1      18.679  -0.535  35.035  1.00  0.00     0.041 A 
HETATM   11  C8  UNK     1      20.959  -2.894  31.264  1.00  0.00     0.051 C 
HETATM   12  C9  UNK     1      19.050  -1.543  35.919  1.00  0.00     0.039 A 
HETATM   13  C10 UNK     1      18.962   0.442  31.506  1.00  0.00     0.309 A 
HETATM   14  C11 UNK     1      20.070  -0.667  29.583  1.00  0.00     0.106 C 
ENDROOT
BRANCH   9  15
HETATM   15  N1  UNK     1      20.172  -3.658  36.353  1.00  0.00    -0.116 N 
HETATM   16  O3  UNK     1      20.306  -4.826  35.914  1.00  0.00    -0.532 OA
HETATM   17  O4  UNK     1      20.365  -3.375  37.560  1.00  0.00    -0.532 OA
ENDBRANCH   9  15
TORSDOF 1
ENDMDL
MODEL 8
REMARK VINA RESULT:      -6.9     11.639     14.146
REMARK  1 active torsions:
REMARK  status: ('A' for Active; 'I' for Inactive)
REMARK    1  A    between atoms: C6_12  and  N1_5 
ROOT
HETATM    1  O1  UNK     1      28.031  -4.700  38.690  1.00  0.00    -0.274 OA
HETATM    2  O2  UNK     1      25.787  -4.969  38.931  1.00  0.00    -0.258 OA
HETATM    3  N2  UNK     1      24.911  -8.388  38.720  1.00  0.00    -0.191 NA
HETATM    4  C1  UNK     1      29.463  -6.640  38.343  1.00  0.00     0.008 A 
HETATM    5  C2  UNK     1      28.270  -7.509  38.404  1.00  0.00    -0.022 A 
HETATM    6  C3  UNK     1      29.302  -5.265  38.489  1.00  0.00     0.090 A 
HETATM    7  C4  UNK     1      30.769  -7.116  38.147  1.00  0.00     0.051 A 
HETATM    8  C5  UNK     1      27.059  -6.949  38.599  1.00  0.00     0.126 A 
HETATM    9  C6  UNK     1      31.858  -6.238  38.100  1.00  0.00     0.103 A 
HETATM   10  C7  UNK     1      30.377  -4.374  38.445  1.00  0.00     0.041 A 
HETATM   11  C8  UNK     1      28.485  -8.996  38.242  1.00  0.00     0.051 C 
HETATM   12  C9  UNK     1      31.662  -4.867  38.249  1.00  0.00     0.039 A 
HETATM   13  C10 UNK     1      26.888  -5.480  38.755  1.00  0.00     0.309 A 
HETATM   14  C11 UNK     1      25.873  -7.743  38.666  1.00  0.00     0.106 C 
ENDROOT
BRANCH   9  15
HETATM   15  N1  UNK     1      33.168  -6.747  37.900  1.00  0.00    -0.116 N 
HETATM   16  O3  UNK     1      33.314  -7.970  37.655  1.00  0.00    -0.532 OA
HETATM   17  O4  UNK     1      34.144  -5.963  37.972  1.00  0.00    -0.532 OA
ENDBRANCH   9  15
TORSDOF 1
ENDMDL
MODEL 9
REMARK VINA RESULT:      -6.9      7.958      9.821
REMARK  1 active torsions:
REMARK  status: ('A' for Active; 'I' for Inactive)
REMARK    1  A    between atoms: C6_12  and  N1_5 
ROOT
HETATM    1  O1  UNK     1      16.786   5.992  32.283  1.00  0.00    -0.274 OA
HETATM    2  O2  UNK     1      18.583   4.806  31.554  1.00  0.00    -0.258 OA
HETATM    3  N2  UNK     1      21.591   6.276  32.689  1.00  0.00    -0.191 NA
HETATM    4  C1  UNK     1      17.109   7.979  33.655  1.00  0.00     0.008 A 
HETATM    5  C2  UNK     1      18.570   7.772  33.578  1.00  0.00    -0.022 A 
HETATM    6  C3  UNK     1      16.268   7.080  33.005  1.00  0.00     0.090 A 
HETATM    7  C4  UNK     1      16.505   9.036  34.353  1.00  0.00     0.051 A 
HETATM    8  C5  UNK     1      19.049   6.721  32.882  1.00  0.00     0.126 A 
HETATM    9  C6  UNK     1      15.111   9.175  34.387  1.00  0.00     0.103 A 
HETATM   10  C7  UNK     1      14.876   7.203  33.029  1.00  0.00     0.041 A 
HETATM   11  C8  UNK     1      19.451   8.768  34.297  1.00  0.00     0.051 C 
HETATM   12  C9  UNK     1      14.298   8.258  33.726  1.00  0.00     0.039 A 
HETATM   13  C10 UNK     1      18.148   5.762  32.188  1.00  0.00     0.309 A 
HETATM   14  C11 UNK     1      20.452   6.475  32.775  1.00  0.00     0.106 C 
ENDROOT
BRANCH   9  15
HETATM   15  N1  UNK     1      14.527  10.254  35.100  1.00  0.00    -0.116 N 
HETATM   16  O3  UNK     1      13.612  10.918  34.554  1.00  0.00    -0.532 OA
HETATM   17  O4  UNK     1      14.939  10.514  36.256  1.00  0.00    -0.532 OA
ENDBRANCH   9  15
TORSDOF 1
ENDMDL
MODEL 10
REMARK VINA RESULT:      -6.9      4.136      5.537
REMARK  1 active torsions:
REMARK  status: ('A' for Active; 'I' for Inactive)
REMARK    1  A    between atoms: C6_12  and  N1_5 
ROOT
HETATM    1  O1  UNK     1      19.068   3.152  29.700  1.00  0.00    -0.274 OA
HETATM    2  O2  UNK     1      19.401   0.940  29.289  1.00  0.00    -0.258 OA
HETATM    3  N2  UNK     1      18.815  -0.971  32.205  1.00  0.00    -0.191 NA
HETATM    4  C1  UNK     1      18.397   3.894  31.921  1.00  0.00     0.008 A 
HETATM    5  C2  UNK     1      18.418   2.488  32.377  1.00  0.00    -0.022 A 
HETATM    6  C3  UNK     1      18.723   4.176  30.597  1.00  0.00     0.090 A 
HETATM    7  C4  UNK     1      18.064   4.979  32.746  1.00  0.00     0.051 A 
HETATM    8  C5  UNK     1      18.750   1.519  31.500  1.00  0.00     0.126 A 
HETATM    9  C6  UNK     1      18.063   6.289  32.251  1.00  0.00     0.103 A 
HETATM   10  C7  UNK     1      18.726   5.476  30.086  1.00  0.00     0.041 A 
HETATM   11  C8  UNK     1      18.058   2.222  33.820  1.00  0.00     0.051 C 
HETATM   12  C9  UNK     1      18.394   6.537  30.921  1.00  0.00     0.039 A 
HETATM   13  C10 UNK     1      19.097   1.822  30.087  1.00  0.00     0.309 A 
HETATM   14  C11 UNK     1      18.786   0.144  31.889  1.00  0.00     0.106 C 
ENDROOT
BRANCH   9  15
HETATM   15  N1  UNK     1      17.722   7.368  33.108  1.00  0.00    -0.116 N 
HETATM   16  O3  UNK     1      17.540   8.505  32.609  1.00  0.00    -0.532 OA
HETATM   17  O4  UNK     1      17.612   7.156  34.339  1.00  0.00    -0.532 OA
ENDBRANCH   9  15
TORSDOF 1
ENDMDL
