MODEL 1
REMARK VINA RESULT:      -9.7      0.000      0.000
REMARK  5 active torsions:
REMARK  status: ('A' for Active; 'I' for Inactive)
REMARK    1  A    between atoms: C14_24  and  O2_2 
REMARK    2  A    between atoms: C5_15  and  O2_2 
REMARK    3  A    between atoms: C15_25  and  N1_9 
REMARK    4  A    between atoms: C16_26  and  N2_10 
REMARK    5  A    between atoms: C14_24  and  C9_19 
ROOT
HETATM    1  O4  UNK     1      18.791   4.405  30.039  1.00  0.00    -0.259 OA
HETATM    2  C14 UNK     1      18.427   3.680  30.952  1.00  0.00     0.298 C 
ENDROOT
BRANCH   2   3
HETATM    3  O2  UNK     1      17.687   4.085  32.066  1.00  0.00    -0.275 OA
BRANCH   3   4
HETATM    4  C5  UNK     1      18.027   5.311  32.550  1.00  0.00     0.082 A 
HETATM    5  C6  UNK     1      17.077   6.324  32.614  1.00  0.00     0.075 A 
HETATM    6  C2  UNK     1      17.447   7.574  33.115  1.00  0.00     0.092 A 
HETATM    7  C1  UNK     1      18.743   7.846  33.558  1.00  0.00     0.004 A 
HETATM    8  O1  UNK     1      16.442   8.561  33.154  1.00  0.00    -0.275 OA
HETATM    9  C3  UNK     1      19.043   9.190  34.069  1.00  0.00    -0.043 A 
HETATM   10  C4  UNK     1      19.685   6.811  33.486  1.00  0.00     0.017 A 
HETATM   11  C10 UNK     1      20.427   9.514  34.553  1.00  0.00     0.049 C 
HETATM   12  C8  UNK     1      18.067  10.108  34.096  1.00  0.00     0.090 A 
HETATM   13  C11 UNK     1      16.696   9.837  33.631  1.00  0.00     0.288 A 
HETATM   14  O3  UNK     1      15.829  10.702  33.671  1.00  0.00    -0.260 OA
HETATM   15  C7  UNK     1      19.329   5.553  32.986  1.00  0.00     0.038 A 
ENDBRANCH   3   4
ENDBRANCH   2   3
BRANCH   2  16
HETATM   16  C9  UNK     1      18.738   2.229  31.013  1.00  0.00     0.044 A 
HETATM   17  C12 UNK     1      18.519   1.551  32.194  1.00  0.00     0.053 A 
HETATM   18  C16 UNK     1      18.811   0.188  32.253  1.00  0.00     0.106 A 
HETATM   19  C17 UNK     1      19.316  -0.467  31.129  1.00  0.00     0.072 A 
HETATM   20  C15 UNK     1      19.529   0.242  29.947  1.00  0.00     0.106 A 
HETATM   21  C13 UNK     1      19.236   1.605  29.888  1.00  0.00     0.053 A 
BRANCH  18  22
HETATM   22  N2  UNK     1      18.595  -0.534  33.457  1.00  0.00    -0.116 N 
HETATM   23  O6  UNK     1      17.486  -0.431  34.036  1.00  0.00    -0.532 OA
HETATM   24  O8  UNK     1      19.518  -1.256  33.907  1.00  0.00    -0.532 OA
ENDBRANCH  18  22
BRANCH  20  25
HETATM   25  N1  UNK     1      20.043  -0.423  28.802  1.00  0.00    -0.116 N 
HETATM   26  O5  UNK     1      21.206  -0.890  28.842  1.00  0.00    -0.532 OA
HETATM   27  O7  UNK     1      19.319  -0.525  27.783  1.00  0.00    -0.532 OA
ENDBRANCH  20  25
ENDBRANCH   2  16
TORSDOF 5
ENDMDL
MODEL 2
REMARK VINA RESULT:      -9.7      0.085      2.911
REMARK  5 active torsions:
REMARK  status: ('A' for Active; 'I' for Inactive)
REMARK    1  A    between atoms: C14_24  and  O2_2 
REMARK    2  A    between atoms: C5_15  and  O2_2 
REMARK    3  A    between atoms: C15_25  and  N1_9 
REMARK    4  A    between atoms: C16_26  and  N2_10 
REMARK    5  A    between atoms: C14_24  and  C9_19 
ROOT
HETATM    1  O4  UNK     1      18.838   4.414  29.947  1.00  0.00    -0.259 OA
HETATM    2  C14 UNK     1      18.432   3.702  30.854  1.00  0.00     0.298 C 
ENDROOT
BRANCH   2   3
HETATM    3  O2  UNK     1      17.644   4.124  31.928  1.00  0.00    -0.275 OA
BRANCH   3   4
HETATM    4  C5  UNK     1      17.995   5.334  32.441  1.00  0.00     0.082 A 
HETATM    5  C6  UNK     1      17.050   6.350  32.544  1.00  0.00     0.075 A 
HETATM    6  C2  UNK     1      17.432   7.584  33.074  1.00  0.00     0.092 A 
HETATM    7  C1  UNK     1      18.734   7.838  33.509  1.00  0.00     0.004 A 
HETATM    8  O1  UNK     1      16.431   8.573  33.153  1.00  0.00    -0.275 OA
HETATM    9  C3  UNK     1      19.047   9.166  34.052  1.00  0.00    -0.043 A 
HETATM   10  C4  UNK     1      19.670   6.802  33.397  1.00  0.00     0.017 A 
HETATM   11  C10 UNK     1      20.437   9.472  34.527  1.00  0.00     0.049 C 
HETATM   12  C8  UNK     1      18.075  10.088  34.116  1.00  0.00     0.090 A 
HETATM   13  C11 UNK     1      16.697   9.834  33.662  1.00  0.00     0.288 A 
HETATM   14  O3  UNK     1      15.834  10.702  33.736  1.00  0.00    -0.260 OA
HETATM   15  C7  UNK     1      19.302   5.560  32.867  1.00  0.00     0.038 A 
ENDBRANCH   3   4
ENDBRANCH   2   3
BRANCH   2  16
HETATM   16  C9  UNK     1      18.739   2.252  30.951  1.00  0.00     0.044 A 
HETATM   17  C12 UNK     1      19.230   1.600  29.838  1.00  0.00     0.053 A 
HETATM   18  C16 UNK     1      19.518   0.238  29.928  1.00  0.00     0.106 A 
HETATM   19  C17 UNK     1      19.309  -0.442  31.129  1.00  0.00     0.072 A 
HETATM   20  C15 UNK     1      18.812   0.241  32.238  1.00  0.00     0.106 A 
HETATM   21  C13 UNK     1      18.524   1.603  32.149  1.00  0.00     0.053 A 
BRANCH  18  22
HETATM   22  N2  UNK     1      20.024  -0.457  28.797  1.00  0.00    -0.116 N 
HETATM   23  O6  UNK     1      21.177  -0.950  28.854  1.00  0.00    -0.532 OA
HETATM   24  O8  UNK     1      19.304  -0.561  27.775  1.00  0.00    -0.532 OA
ENDBRANCH  18  22
BRANCH  20  25
HETATM   25  N1  UNK     1      18.599  -0.451  33.460  1.00  0.00    -0.116 N 
HETATM   26  O5  UNK     1      17.554  -0.219  34.116  1.00  0.00    -0.532 OA
HETATM   27  O7  UNK     1      19.461  -1.274  33.851  1.00  0.00    -0.532 OA
ENDBRANCH  20  25
ENDBRANCH   2  16
TORSDOF 5
ENDMDL
MODEL 3
REMARK VINA RESULT:      -9.6      3.317      8.799
REMARK  5 active torsions:
REMARK  status: ('A' for Active; 'I' for Inactive)
REMARK    1  A    between atoms: C14_24  and  O2_2 
REMARK    2  A    between atoms: C5_15  and  O2_2 
REMARK    3  A    between atoms: C15_25  and  N1_9 
REMARK    4  A    between atoms: C16_26  and  N2_10 
REMARK    5  A    between atoms: C14_24  and  C9_19 
ROOT
HETATM    1  O4  UNK     1      19.685   5.200  31.553  1.00  0.00    -0.259 OA
HETATM    2  C14 UNK     1      18.491   5.230  31.807  1.00  0.00     0.298 C 
ENDROOT
BRANCH   2   3
HETATM    3  O2  UNK     1      17.606   4.156  31.683  1.00  0.00    -0.275 OA
BRANCH   3   4
HETATM    4  C5  UNK     1      18.190   2.990  31.294  1.00  0.00     0.082 A 
HETATM    5  C6  UNK     1      18.444   1.991  32.227  1.00  0.00     0.075 A 
HETATM    6  C2  UNK     1      19.044   0.802  31.807  1.00  0.00     0.092 A 
HETATM    7  C1  UNK     1      19.399   0.576  30.475  1.00  0.00     0.004 A 
HETATM    8  O1  UNK     1      19.276  -0.173  32.798  1.00  0.00    -0.275 OA
HETATM    9  C3  UNK     1      20.026  -0.704  30.122  1.00  0.00    -0.043 A 
HETATM   10  C4  UNK     1      19.133   1.595  29.550  1.00  0.00     0.017 A 
HETATM   11  C10 UNK     1      20.420  -0.977  28.700  1.00  0.00     0.049 C 
HETATM   12  C8  UNK     1      20.234  -1.613  31.085  1.00  0.00     0.090 A 
HETATM   13  C11 UNK     1      19.866  -1.389  32.494  1.00  0.00     0.288 A 
HETATM   14  O3  UNK     1      20.072  -2.244  33.348  1.00  0.00    -0.260 OA
HETATM   15  C7  UNK     1      18.533   2.792  29.958  1.00  0.00     0.038 A 
ENDBRANCH   3   4
ENDBRANCH   2   3
BRANCH   2  16
HETATM   16  C9  UNK     1      17.790   6.450  32.284  1.00  0.00     0.044 A 
HETATM   17  C12 UNK     1      16.416   6.514  32.174  1.00  0.00     0.053 A 
HETATM   18  C16 UNK     1      15.757   7.659  32.621  1.00  0.00     0.106 A 
HETATM   19  C17 UNK     1      16.486   8.715  33.170  1.00  0.00     0.072 A 
HETATM   20  C15 UNK     1      17.874   8.625  33.270  1.00  0.00     0.106 A 
HETATM   21  C13 UNK     1      18.533   7.479  32.822  1.00  0.00     0.053 A 
BRANCH  18  22
HETATM   22  N2  UNK     1      14.343   7.751  32.519  1.00  0.00    -0.116 N 
HETATM   23  O6  UNK     1      13.760   8.734  33.037  1.00  0.00    -0.532 OA
HETATM   24  O8  UNK     1      13.717   6.849  31.911  1.00  0.00    -0.532 OA
ENDBRANCH  18  22
BRANCH  20  25
HETATM   25  N1  UNK     1      18.617   9.699  33.827  1.00  0.00    -0.116 N 
HETATM   26  O5  UNK     1      19.664   9.444  34.471  1.00  0.00    -0.532 OA
HETATM   27  O7  UNK     1      18.206  10.872  33.662  1.00  0.00    -0.532 OA
ENDBRANCH  20  25
ENDBRANCH   2  16
TORSDOF 5
ENDMDL
MODEL 4
REMARK VINA RESULT:      -9.6      3.315      8.807
REMARK  5 active torsions:
REMARK  status: ('A' for Active; 'I' for Inactive)
REMARK    1  A    between atoms: C14_24  and  O2_2 
REMARK    2  A    between atoms: C5_15  and  O2_2 
REMARK    3  A    between atoms: C15_25  and  N1_9 
REMARK    4  A    between atoms: C16_26  and  N2_10 
REMARK    5  A    between atoms: C14_24  and  C9_19 
ROOT
HETATM    1  O4  UNK     1      19.662   5.194  31.499  1.00  0.00    -0.259 OA
HETATM    2  C14 UNK     1      18.473   5.213  31.775  1.00  0.00     0.298 C 
ENDROOT
BRANCH   2   3
HETATM    3  O2  UNK     1      17.598   4.127  31.676  1.00  0.00    -0.275 OA
BRANCH   3   4
HETATM    4  C5  UNK     1      18.188   2.965  31.284  1.00  0.00     0.082 A 
HETATM    5  C6  UNK     1      18.452   1.967  32.215  1.00  0.00     0.075 A 
HETATM    6  C2  UNK     1      19.057   0.782  31.791  1.00  0.00     0.092 A 
HETATM    7  C1  UNK     1      19.409   0.560  30.459  1.00  0.00     0.004 A 
HETATM    8  O1  UNK     1      19.298  -0.192  32.780  1.00  0.00    -0.275 OA
HETATM    9  C3  UNK     1      20.043  -0.716  30.102  1.00  0.00    -0.043 A 
HETATM   10  C4  UNK     1      19.135   1.579  29.536  1.00  0.00     0.017 A 
HETATM   11  C10 UNK     1      20.434  -0.985  28.678  1.00  0.00     0.049 C 
HETATM   12  C8  UNK     1      20.260  -1.624  31.063  1.00  0.00     0.090 A 
HETATM   13  C11 UNK     1      19.894  -1.405  32.473  1.00  0.00     0.288 A 
HETATM   14  O3  UNK     1      20.108  -2.260  33.325  1.00  0.00    -0.260 OA
HETATM   15  C7  UNK     1      18.529   2.772  29.946  1.00  0.00     0.038 A 
ENDBRANCH   3   4
ENDBRANCH   2   3
BRANCH   2  16
HETATM   16  C9  UNK     1      17.767   6.428  32.256  1.00  0.00     0.044 A 
HETATM   17  C12 UNK     1      18.509   7.459  32.794  1.00  0.00     0.053 A 
HETATM   18  C16 UNK     1      17.847   8.600  33.248  1.00  0.00     0.106 A 
HETATM   19  C17 UNK     1      16.457   8.686  33.152  1.00  0.00     0.072 A 
HETATM   20  C15 UNK     1      15.731   7.629  32.604  1.00  0.00     0.106 A 
HETATM   21  C13 UNK     1      16.393   6.488  32.151  1.00  0.00     0.053 A 
BRANCH  18  22
HETATM   22  N2  UNK     1      18.587   9.676  33.806  1.00  0.00    -0.116 N 
HETATM   23  O6  UNK     1      18.163  10.848  33.655  1.00  0.00    -0.532 OA
HETATM   24  O8  UNK     1      19.643   9.426  34.437  1.00  0.00    -0.532 OA
ENDBRANCH  18  22
BRANCH  20  25
HETATM   25  N1  UNK     1      14.317   7.715  32.507  1.00  0.00    -0.116 N 
HETATM   26  O5  UNK     1      13.724   8.655  33.088  1.00  0.00    -0.532 OA
HETATM   27  O7  UNK     1      13.700   6.847  31.845  1.00  0.00    -0.532 OA
ENDBRANCH  20  25
ENDBRANCH   2  16
TORSDOF 5
ENDMDL
MODEL 5
REMARK VINA RESULT:      -9.2      7.233     12.758
REMARK  5 active torsions:
REMARK  status: ('A' for Active; 'I' for Inactive)
REMARK    1  A    between atoms: C14_24  and  O2_2 
REMARK    2  A    between atoms: C5_15  and  O2_2 
REMARK    3  A    between atoms: C15_25  and  N1_9 
REMARK    4  A    between atoms: C16_26  and  N2_10 
REMARK    5  A    between atoms: C14_24  and  C9_19 
ROOT
HETATM    1  O4  UNK     1      20.539  -3.811  37.523  1.00  0.00    -0.259 OA
HETATM    2  C14 UNK     1      19.481  -3.664  36.931  1.00  0.00     0.298 C 
ENDROOT
BRANCH   2   3
HETATM    3  O2  UNK     1      18.561  -4.677  36.646  1.00  0.00    -0.275 OA
BRANCH   3   4
HETATM    4  C5  UNK     1      19.113  -5.912  36.500  1.00  0.00     0.082 A 
HETATM    5  C6  UNK     1      18.789  -6.931  37.389  1.00  0.00     0.075 A 
HETATM    6  C2  UNK     1      19.367  -8.191  37.221  1.00  0.00     0.092 A 
HETATM    7  C1  UNK     1      20.263  -8.468  36.187  1.00  0.00     0.004 A 
HETATM    8  O1  UNK     1      19.000  -9.183  38.153  1.00  0.00    -0.275 OA
HETATM    9  C3  UNK     1      20.823  -9.823  36.087  1.00  0.00    -0.043 A 
HETATM   10  C4  UNK     1      20.576  -7.428  35.302  1.00  0.00     0.017 A 
HETATM   11  C10 UNK     1      21.790 -10.152  34.986  1.00  0.00     0.049 C 
HETATM   12  C8  UNK     1      20.456 -10.746  36.986  1.00  0.00     0.090 A 
HETATM   13  C11 UNK     1      19.513 -10.469  38.082  1.00  0.00     0.288 A 
HETATM   14  O3  UNK     1      19.200 -11.339  38.887  1.00  0.00    -0.260 OA
HETATM   15  C7  UNK     1      20.005  -6.160  35.458  1.00  0.00     0.038 A 
ENDBRANCH   3   4
ENDBRANCH   2   3
BRANCH   2  16
HETATM   16  C9  UNK     1      19.016  -2.355  36.405  1.00  0.00     0.044 A 
HETATM   17  C12 UNK     1      18.478  -1.438  37.285  1.00  0.00     0.053 A 
HETATM   18  C16 UNK     1      18.040  -0.208  36.792  1.00  0.00     0.106 A 
HETATM   19  C17 UNK     1      18.151   0.078  35.431  1.00  0.00     0.072 A 
HETATM   20  C15 UNK     1      18.698  -0.867  34.563  1.00  0.00     0.106 A 
HETATM   21  C13 UNK     1      19.136  -2.096  35.055  1.00  0.00     0.053 A 
BRANCH  18  22
HETATM   22  N2  UNK     1      17.482   0.754  37.676  1.00  0.00    -0.116 N 
HETATM   23  O6  UNK     1      16.486   1.418  37.300  1.00  0.00    -0.532 OA
HETATM   24  O8  UNK     1      17.999   0.911  38.809  1.00  0.00    -0.532 OA
ENDBRANCH  18  22
BRANCH  20  25
HETATM   25  N1  UNK     1      18.810  -0.577  33.177  1.00  0.00    -0.116 N 
HETATM   26  O5  UNK     1      18.992  -1.521  32.371  1.00  0.00    -0.532 OA
HETATM   27  O7  UNK     1      18.725   0.615  32.797  1.00  0.00    -0.532 OA
ENDBRANCH  20  25
ENDBRANCH   2  16
TORSDOF 5
ENDMDL
MODEL 6
REMARK VINA RESULT:      -9.1      1.917      2.951
REMARK  5 active torsions:
REMARK  status: ('A' for Active; 'I' for Inactive)
REMARK    1  A    between atoms: C14_24  and  O2_2 
REMARK    2  A    between atoms: C5_15  and  O2_2 
REMARK    3  A    between atoms: C15_25  and  N1_9 
REMARK    4  A    between atoms: C16_26  and  N2_10 
REMARK    5  A    between atoms: C14_24  and  C9_19 
ROOT
HETATM    1  O4  UNK     1      18.313   6.589  30.856  1.00  0.00    -0.259 OA
HETATM    2  C14 UNK     1      18.492   5.854  31.816  1.00  0.00     0.298 C 
ENDROOT
BRANCH   2   3
HETATM    3  O2  UNK     1      18.764   6.273  33.121  1.00  0.00    -0.275 OA
BRANCH   3   4
HETATM    4  C5  UNK     1      18.023   7.337  33.535  1.00  0.00     0.082 A 
HETATM    5  C6  UNK     1      18.538   8.626  33.442  1.00  0.00     0.075 A 
HETATM    6  C2  UNK     1      17.761   9.703  33.871  1.00  0.00     0.092 A 
HETATM    7  C1  UNK     1      16.477   9.535  34.392  1.00  0.00     0.004 A 
HETATM    8  O1  UNK     1      18.337  10.984  33.753  1.00  0.00    -0.275 OA
HETATM    9  C3  UNK     1      15.730  10.725  34.820  1.00  0.00    -0.043 A 
HETATM   10  C4  UNK     1      15.975   8.229  34.476  1.00  0.00     0.017 A 
HETATM   11  C10 UNK     1      14.347  10.578  35.385  1.00  0.00     0.049 C 
HETATM   12  C8  UNK     1      16.303  11.931  34.696  1.00  0.00     0.090 A 
HETATM   13  C11 UNK     1      17.657  12.124  34.149  1.00  0.00     0.288 A 
HETATM   14  O3  UNK     1      18.148  13.243  34.049  1.00  0.00    -0.260 OA
HETATM   15  C7  UNK     1      16.744   7.139  34.050  1.00  0.00     0.038 A 
ENDBRANCH   3   4
ENDBRANCH   2   3
BRANCH   2  16
HETATM   16  C9  UNK     1      18.458   4.372  31.725  1.00  0.00     0.044 A 
HETATM   17  C12 UNK     1      18.244   3.640  32.875  1.00  0.00     0.053 A 
HETATM   18  C16 UNK     1      18.213   2.248  32.790  1.00  0.00     0.106 A 
HETATM   19  C17 UNK     1      18.394   1.618  31.558  1.00  0.00     0.072 A 
HETATM   20  C15 UNK     1      18.609   2.382  30.411  1.00  0.00     0.106 A 
HETATM   21  C13 UNK     1      18.640   3.774  30.495  1.00  0.00     0.053 A 
BRANCH  18  22
HETATM   22  N2  UNK     1      17.995   1.470  33.959  1.00  0.00    -0.116 N 
HETATM   23  O6  UNK     1      16.856   0.982  34.160  1.00  0.00    -0.532 OA
HETATM   24  O8  UNK     1      18.947   1.290  34.756  1.00  0.00    -0.532 OA
ENDBRANCH  18  22
BRANCH  20  25
HETATM   25  N1  UNK     1      18.794   1.743  29.157  1.00  0.00    -0.116 N 
HETATM   26  O5  UNK     1      18.119   2.128  28.172  1.00  0.00    -0.532 OA
HETATM   27  O7  UNK     1      19.628   0.810  29.068  1.00  0.00    -0.532 OA
ENDBRANCH  20  25
ENDBRANCH   2  16
TORSDOF 5
ENDMDL
MODEL 7
REMARK VINA RESULT:      -9.1      1.910      4.008
REMARK  5 active torsions:
REMARK  status: ('A' for Active; 'I' for Inactive)
REMARK    1  A    between atoms: C14_24  and  O2_2 
REMARK    2  A    between atoms: C5_15  and  O2_2 
REMARK    3  A    between atoms: C15_25  and  N1_9 
REMARK    4  A    between atoms: C16_26  and  N2_10 
REMARK    5  A    between atoms: C14_24  and  C9_19 
ROOT
HETATM    1  O4  UNK     1      18.357   6.583  30.817  1.00  0.00    -0.259 OA
HETATM    2  C14 UNK     1      18.531   5.853  31.781  1.00  0.00     0.298 C 
ENDROOT
BRANCH   2   3
HETATM    3  O2  UNK     1      18.811   6.278  33.082  1.00  0.00    -0.275 OA
BRANCH   3   4
HETATM    4  C5  UNK     1      18.056   7.328  33.505  1.00  0.00     0.082 A 
HETATM    5  C6  UNK     1      18.554   8.624  33.421  1.00  0.00     0.075 A 
HETATM    6  C2  UNK     1      17.762   9.688  33.859  1.00  0.00     0.092 A 
HETATM    7  C1  UNK     1      16.481   9.498  34.381  1.00  0.00     0.004 A 
HETATM    8  O1  UNK     1      18.320  10.977  33.748  1.00  0.00    -0.275 OA
HETATM    9  C3  UNK     1      15.719  10.675  34.819  1.00  0.00    -0.043 A 
HETATM   10  C4  UNK     1      15.998   8.185  34.457  1.00  0.00     0.017 A 
HETATM   11  C10 UNK     1      14.340  10.504  35.385  1.00  0.00     0.049 C 
HETATM   12  C8  UNK     1      16.275  11.889  34.701  1.00  0.00     0.090 A 
HETATM   13  C11 UNK     1      17.624  12.105  34.153  1.00  0.00     0.288 A 
HETATM   14  O3  UNK     1      18.100  13.231  34.061  1.00  0.00    -0.260 OA
HETATM   15  C7  UNK     1      16.781   7.109  34.022  1.00  0.00     0.038 A 
ENDBRANCH   3   4
ENDBRANCH   2   3
BRANCH   2  16
HETATM   16  C9  UNK     1      18.479   4.371  31.699  1.00  0.00     0.044 A 
HETATM   17  C12 UNK     1      18.650   3.766  30.471  1.00  0.00     0.053 A 
HETATM   18  C16 UNK     1      18.600   2.374  30.394  1.00  0.00     0.106 A 
HETATM   19  C17 UNK     1      18.382   1.618  31.546  1.00  0.00     0.072 A 
HETATM   20  C15 UNK     1      18.212   2.255  32.775  1.00  0.00     0.106 A 
HETATM   21  C13 UNK     1      18.262   3.647  32.853  1.00  0.00     0.053 A 
BRANCH  18  22
HETATM   22  N2  UNK     1      18.773   1.725  29.142  1.00  0.00    -0.116 N 
HETATM   23  O6  UNK     1      18.115   2.129  28.153  1.00  0.00    -0.532 OA
HETATM   24  O8  UNK     1      19.579   0.767  29.059  1.00  0.00    -0.532 OA
ENDBRANCH  18  22
BRANCH  20  25
HETATM   25  N1  UNK     1      17.989   1.486  33.949  1.00  0.00    -0.116 N 
HETATM   26  O5  UNK     1      18.936   1.318  34.754  1.00  0.00    -0.532 OA
HETATM   27  O7  UNK     1      16.852   0.996  34.146  1.00  0.00    -0.532 OA
ENDBRANCH  20  25
ENDBRANCH   2  16
TORSDOF 5
ENDMDL
MODEL 8
REMARK VINA RESULT:      -9.1      7.201     12.999
REMARK  5 active torsions:
REMARK  status: ('A' for Active; 'I' for Inactive)
REMARK    1  A    between atoms: C14_24  and  O2_2 
REMARK    2  A    between atoms: C5_15  and  O2_2 
REMARK    3  A    between atoms: C15_25  and  N1_9 
REMARK    4  A    between atoms: C16_26  and  N2_10 
REMARK    5  A    between atoms: C14_24  and  C9_19 
ROOT
HETATM    1  O4  UNK     1      20.498  -3.700  37.485  1.00  0.00    -0.259 OA
HETATM    2  C14 UNK     1      19.430  -3.553  36.910  1.00  0.00     0.298 C 
ENDROOT
BRANCH   2   3
HETATM    3  O2  UNK     1      18.515  -4.569  36.620  1.00  0.00    -0.275 OA
BRANCH   3   4
HETATM    4  C5  UNK     1      19.070  -5.807  36.505  1.00  0.00     0.082 A 
HETATM    5  C6  UNK     1      18.769  -6.796  37.435  1.00  0.00     0.075 A 
HETATM    6  C2  UNK     1      19.348  -8.059  37.298  1.00  0.00     0.092 A 
HETATM    7  C1  UNK     1      20.222  -8.369  36.255  1.00  0.00     0.004 A 
HETATM    8  O1  UNK     1      19.006  -9.019  38.271  1.00  0.00    -0.275 OA
HETATM    9  C3  UNK     1      20.786  -9.724  36.188  1.00  0.00    -0.043 A 
HETATM   10  C4  UNK     1      20.512  -7.359  35.327  1.00  0.00     0.017 A 
HETATM   11  C10 UNK     1      21.729 -10.088  35.079  1.00  0.00     0.049 C 
HETATM   12  C8  UNK     1      20.442 -10.617  37.127  1.00  0.00     0.090 A 
HETATM   13  C11 UNK     1      19.522 -10.305  38.234  1.00  0.00     0.288 A 
HETATM   14  O3  UNK     1      19.230 -11.148  39.074  1.00  0.00    -0.260 OA
HETATM   15  C7  UNK     1      19.939  -6.087  35.453  1.00  0.00     0.038 A 
ENDBRANCH   3   4
ENDBRANCH   2   3
BRANCH   2  16
HETATM   16  C9  UNK     1      18.946  -2.239  36.413  1.00  0.00     0.044 A 
HETATM   17  C12 UNK     1      19.007  -1.975  35.060  1.00  0.00     0.053 A 
HETATM   18  C16 UNK     1      18.554  -0.741  34.594  1.00  0.00     0.106 A 
HETATM   19  C17 UNK     1      18.050   0.202  35.490  1.00  0.00     0.072 A 
HETATM   20  C15 UNK     1      18.000  -0.090  36.853  1.00  0.00     0.106 A 
HETATM   21  C13 UNK     1      18.453  -1.324  37.320  1.00  0.00     0.053 A 
BRANCH  18  22
HETATM   22  N2  UNK     1      18.605  -0.444  33.206  1.00  0.00    -0.116 N 
HETATM   23  O6  UNK     1      18.259  -1.326  32.383  1.00  0.00    -0.532 OA
HETATM   24  O8  UNK     1      18.993   0.692  32.841  1.00  0.00    -0.532 OA
ENDBRANCH  18  22
BRANCH  20  25
HETATM   25  N1  UNK     1      17.487   0.870  37.766  1.00  0.00    -0.116 N 
HETATM   26  O5  UNK     1      16.538   1.605  37.405  1.00  0.00    -0.532 OA
HETATM   27  O7  UNK     1      17.999   0.956  38.908  1.00  0.00    -0.532 OA
ENDBRANCH  20  25
ENDBRANCH   2  16
TORSDOF 5
ENDMDL
MODEL 9
REMARK VINA RESULT:      -9.1      5.575      8.952
REMARK  5 active torsions:
REMARK  status: ('A' for Active; 'I' for Inactive)
REMARK    1  A    between atoms: C14_24  and  O2_2 
REMARK    2  A    between atoms: C5_15  and  O2_2 
REMARK    3  A    between atoms: C15_25  and  N1_9 
REMARK    4  A    between atoms: C16_26  and  N2_10 
REMARK    5  A    between atoms: C14_24  and  C9_19 
ROOT
HETATM    1  O4  UNK     1      21.352  -1.713  36.028  1.00  0.00    -0.259 OA
HETATM    2  C14 UNK     1      20.392  -2.459  35.908  1.00  0.00     0.298 C 
ENDROOT
BRANCH   2   3
HETATM    3  O2  UNK     1      19.220  -2.169  35.205  1.00  0.00    -0.275 OA
BRANCH   3   4
HETATM    4  C5  UNK     1      19.424  -1.699  33.944  1.00  0.00     0.082 A 
HETATM    5  C6  UNK     1      18.829  -0.509  33.538  1.00  0.00     0.075 A 
HETATM    6  C2  UNK     1      19.052  -0.044  32.241  1.00  0.00     0.092 A 
HETATM    7  C1  UNK     1      19.854  -0.733  31.330  1.00  0.00     0.004 A 
HETATM    8  O1  UNK     1      18.423   1.166  31.888  1.00  0.00    -0.275 OA
HETATM    9  C3  UNK     1      20.033  -0.171  29.984  1.00  0.00    -0.043 A 
HETATM   10  C4  UNK     1      20.445  -1.930  31.758  1.00  0.00     0.017 A 
HETATM   11  C10 UNK     1      20.889  -0.888  28.981  1.00  0.00     0.049 C 
HETATM   12  C8  UNK     1      19.424   0.982  29.676  1.00  0.00     0.090 A 
HETATM   13  C11 UNK     1      18.574   1.720  30.626  1.00  0.00     0.288 A 
HETATM   14  O3  UNK     1      18.032   2.773  30.309  1.00  0.00    -0.260 OA
HETATM   15  C7  UNK     1      20.230  -2.408  33.056  1.00  0.00     0.038 A 
ENDBRANCH   3   4
ENDBRANCH   2   3
BRANCH   2  16
HETATM   16  C9  UNK     1      20.330  -3.812  36.519  1.00  0.00     0.044 A 
HETATM   17  C12 UNK     1      21.368  -4.223  37.330  1.00  0.00     0.053 A 
HETATM   18  C16 UNK     1      21.311  -5.494  37.904  1.00  0.00     0.106 A 
HETATM   19  C17 UNK     1      20.218  -6.325  37.654  1.00  0.00     0.072 A 
HETATM   20  C15 UNK     1      19.183  -5.884  36.830  1.00  0.00     0.106 A 
HETATM   21  C13 UNK     1      19.239  -4.614  36.257  1.00  0.00     0.053 A 
BRANCH  18  22
HETATM   22  N2  UNK     1      22.366  -5.943  38.743  1.00  0.00    -0.116 N 
HETATM   23  O6  UNK     1      22.150  -6.892  39.534  1.00  0.00    -0.532 OA
HETATM   24  O8  UNK     1      23.485  -5.379  38.668  1.00  0.00    -0.532 OA
ENDBRANCH  18  22
BRANCH  20  25
HETATM   25  N1  UNK     1      18.070  -6.729  36.575  1.00  0.00    -0.116 N 
HETATM   26  O5  UNK     1      16.912  -6.264  36.702  1.00  0.00    -0.532 OA
HETATM   27  O7  UNK     1      18.276  -7.917  36.230  1.00  0.00    -0.532 OA
ENDBRANCH  20  25
ENDBRANCH   2  16
TORSDOF 5
ENDMDL
MODEL 10
REMARK VINA RESULT:      -9.0      3.362      8.849
REMARK  5 active torsions:
REMARK  status: ('A' for Active; 'I' for Inactive)
REMARK    1  A    between atoms: C14_24  and  O2_2 
REMARK    2  A    between atoms: C5_15  and  O2_2 
REMARK    3  A    between atoms: C15_25  and  N1_9 
REMARK    4  A    between atoms: C16_26  and  N2_10 
REMARK    5  A    between atoms: C14_24  and  C9_19 
ROOT
HETATM    1  O4  UNK     1      19.440   4.945  33.248  1.00  0.00    -0.259 OA
HETATM    2  C14 UNK     1      18.319   5.171  32.818  1.00  0.00     0.298 C 
ENDROOT
BRANCH   2   3
HETATM    3  O2  UNK     1      17.511   4.260  32.134  1.00  0.00    -0.275 OA
BRANCH   3   4
HETATM    4  C5  UNK     1      18.040   3.010  32.028  1.00  0.00     0.082 A 
HETATM    5  C6  UNK     1      18.585   2.583  30.822  1.00  0.00     0.075 A 
HETATM    6  C2  UNK     1      19.123   1.298  30.734  1.00  0.00     0.092 A 
HETATM    7  C1  UNK     1      19.136   0.420  31.819  1.00  0.00     0.004 A 
HETATM    8  O1  UNK     1      19.660   0.922  29.487  1.00  0.00    -0.275 OA
HETATM    9  C3  UNK     1      19.722  -0.915  31.637  1.00  0.00    -0.043 A 
HETATM   10  C4  UNK     1      18.583   0.869  33.026  1.00  0.00     0.017 A 
HETATM   11  C10 UNK     1      19.751  -1.882  32.784  1.00  0.00     0.049 C 
HETATM   12  C8  UNK     1      20.226  -1.244  30.440  1.00  0.00     0.090 A 
HETATM   13  C11 UNK     1      20.220  -0.329  29.286  1.00  0.00     0.288 A 
HETATM   14  O3  UNK     1      20.690  -0.666  28.205  1.00  0.00    -0.260 OA
HETATM   15  C7  UNK     1      18.039   2.155  33.128  1.00  0.00     0.038 A 
ENDBRANCH   3   4
ENDBRANCH   2   3
BRANCH   2  16
HETATM   16  C9  UNK     1      17.645   6.488  32.956  1.00  0.00     0.044 A 
HETATM   17  C12 UNK     1      16.291   6.571  32.704  1.00  0.00     0.053 A 
HETATM   18  C16 UNK     1      15.657   7.807  32.833  1.00  0.00     0.106 A 
HETATM   19  C17 UNK     1      16.391   8.932  33.211  1.00  0.00     0.072 A 
HETATM   20  C15 UNK     1      17.758   8.821  33.460  1.00  0.00     0.106 A 
HETATM   21  C13 UNK     1      18.392   7.585  33.331  1.00  0.00     0.053 A 
BRANCH  18  22
HETATM   22  N2  UNK     1      14.264   7.921  32.579  1.00  0.00    -0.116 N 
HETATM   23  O6  UNK     1      13.677   6.986  31.983  1.00  0.00    -0.532 OA
HETATM   24  O8  UNK     1      13.659   8.952  32.960  1.00  0.00    -0.532 OA
ENDBRANCH  18  22
BRANCH  20  25
HETATM   25  N1  UNK     1      18.506   9.965  33.844  1.00  0.00    -0.116 N 
HETATM   26  O5  UNK     1      18.028  11.104  33.627  1.00  0.00    -0.532 OA
HETATM   27  O7  UNK     1      19.624   9.805  34.390  1.00  0.00    -0.532 OA
ENDBRANCH  20  25
ENDBRANCH   2  16
TORSDOF 5
ENDMDL
