MODEL 1
REMARK VINA RESULT:      -9.2      0.000      0.000
REMARK  4 active torsions:
REMARK  status: ('A' for Active; 'I' for Inactive)
REMARK    1  A    between atoms: C8_14  and  S1_1 
REMARK    2  A    between atoms: N1_6  and  S1_1 
REMARK    3  A    between atoms: C1_7  and  C6_12 
REMARK    4  A    between atoms: C6_12  and  C7_13 
ROOT
HETATM    1  S1  UNK     1      18.936   7.055  33.597  1.00  0.00     0.243 S 
HETATM    2  O1  UNK     1      20.034   7.873  33.130  1.00  0.00    -0.206 OA
HETATM    3  O2  UNK     1      18.925   6.517  34.941  1.00  0.00    -0.206 OA
ENDROOT
BRANCH   1   4
HETATM    4  C8  UNK     1      17.444   7.967  33.364  1.00  0.00     0.075 A 
HETATM    5  C11 UNK     1      16.951   8.742  34.407  1.00  0.00     0.039 A 
HETATM    6  C13 UNK     1      15.771   9.464  34.225  1.00  0.00    -0.001 A 
HETATM    7  C17 UNK     1      15.117   9.388  32.997  1.00  0.00     0.089 A 
HETATM    8  C19 UNK     1      15.200  10.295  35.272  1.00  0.00     0.020 A 
HETATM    9  C14 UNK     1      15.611   8.611  31.952  1.00  0.00     0.040 A 
HETATM   10  O3  UNK     1      13.924  10.104  32.774  1.00  0.00    -0.275 OA
HETATM   11  C12 UNK     1      16.789   7.893  32.142  1.00  0.00     0.027 A 
HETATM   12  C21 UNK     1      13.360  10.905  33.762  1.00  0.00     0.288 A 
HETATM   13  C20 UNK     1      14.069  10.970  35.053  1.00  0.00     0.083 A 
HETATM   14  O4  UNK     1      12.322  11.531  33.575  1.00  0.00    -0.260 OA
ENDBRANCH   1   4
BRANCH   1  15
HETATM   15  N1  UNK     1      18.681   5.776  32.486  1.00  0.00    -0.206 NA
HETATM   16  C4  UNK     1      19.695   5.667  31.396  1.00  0.00     0.108 C 
HETATM   17  C2  UNK     1      19.174   4.739  30.303  1.00  0.00     0.020 C 
HETATM   18  C1  UNK     1      18.819   3.357  30.867  1.00  0.00    -0.008 C 
HETATM   19  C3  UNK     1      17.835   3.503  32.034  1.00  0.00     0.020 C 
HETATM   20  C5  UNK     1      18.376   4.451  33.101  1.00  0.00     0.108 C 
BRANCH  18  21
HETATM   21  C6  UNK     1      18.242   2.457  29.777  1.00  0.00     0.043 C 
BRANCH  21  22
HETATM   22  C7  UNK     1      19.003   1.164  29.664  1.00  0.00    -0.058 A 
HETATM   23  C10 UNK     1      18.984   0.462  28.466  1.00  0.00     0.007 A 
HETATM   24  C16 UNK     1      19.689  -0.737  28.361  1.00  0.00     0.001 A 
HETATM   25  C18 UNK     1      20.407  -1.223  29.454  1.00  0.00     0.000 A 
HETATM   26  C15 UNK     1      20.419  -0.509  30.653  1.00  0.00     0.001 A 
HETATM   27  C9  UNK     1      19.714   0.690  30.758  1.00  0.00     0.007 A 
ENDBRANCH  21  22
ENDBRANCH  18  21
ENDBRANCH   1  15
TORSDOF 4
ENDMDL
MODEL 2
REMARK VINA RESULT:      -8.7      3.928      8.986
REMARK  4 active torsions:
REMARK  status: ('A' for Active; 'I' for Inactive)
REMARK    1  A    between atoms: C8_14  and  S1_1 
REMARK    2  A    between atoms: N1_6  and  S1_1 
REMARK    3  A    between atoms: C1_7  and  C6_12 
REMARK    4  A    between atoms: C6_12  and  C7_13 
ROOT
HETATM    1  S1  UNK     1      18.323   2.870  31.273  1.00  0.00     0.243 S 
HETATM    2  O1  UNK     1      19.420   2.543  30.388  1.00  0.00    -0.206 OA
HETATM    3  O2  UNK     1      16.963   2.943  30.781  1.00  0.00    -0.206 OA
ENDROOT
BRANCH   1   4
HETATM    4  C8  UNK     1      18.355   1.730  32.619  1.00  0.00     0.075 A 
HETATM    5  C11 UNK     1      18.066   2.185  33.900  1.00  0.00     0.039 A 
HETATM    6  C13 UNK     1      18.091   1.285  34.967  1.00  0.00    -0.001 A 
HETATM    7  C17 UNK     1      18.406  -0.048  34.717  1.00  0.00     0.089 A 
HETATM    8  C19 UNK     1      17.798   1.692  36.331  1.00  0.00     0.020 A 
HETATM    9  C14 UNK     1      18.696  -0.503  33.433  1.00  0.00     0.040 A 
HETATM   10  O3  UNK     1      18.439  -0.987  35.768  1.00  0.00    -0.275 OA
HETATM   11  C12 UNK     1      18.670   0.401  32.374  1.00  0.00     0.027 A 
HETATM   12  C21 UNK     1      18.163  -0.620  37.081  1.00  0.00     0.288 A 
HETATM   13  C20 UNK     1      17.832   0.797  37.322  1.00  0.00     0.083 A 
HETATM   14  O4  UNK     1      18.190  -1.431  38.001  1.00  0.00    -0.260 OA
ENDBRANCH   1   4
BRANCH   1  15
HETATM   15  N1  UNK     1      18.690   4.323  32.103  1.00  0.00    -0.206 NA
HETATM   16  C4  UNK     1      19.644   5.234  31.402  1.00  0.00     0.108 C 
HETATM   17  C2  UNK     1      20.149   6.293  32.376  1.00  0.00     0.020 C 
HETATM   18  C1  UNK     1      18.987   7.081  32.997  1.00  0.00    -0.008 C 
HETATM   19  C3  UNK     1      17.986   6.116  33.643  1.00  0.00     0.020 C 
HETATM   20  C5  UNK     1      17.513   5.059  32.650  1.00  0.00     0.108 C 
BRANCH  18  21
HETATM   21  C6  UNK     1      19.501   8.096  34.014  1.00  0.00     0.043 C 
BRANCH  21  22
HETATM   22  C7  UNK     1      18.635   9.326  34.058  1.00  0.00    -0.058 A 
HETATM   23  C10 UNK     1      17.254   9.189  34.095  1.00  0.00     0.007 A 
HETATM   24  C16 UNK     1      16.451  10.329  34.136  1.00  0.00     0.001 A 
HETATM   25  C18 UNK     1      17.036  11.595  34.140  1.00  0.00     0.000 A 
HETATM   26  C15 UNK     1      18.426  11.721  34.103  1.00  0.00     0.001 A 
HETATM   27  C9  UNK     1      19.228  10.581  34.062  1.00  0.00     0.007 A 
ENDBRANCH  21  22
ENDBRANCH  18  21
ENDBRANCH   1  15
TORSDOF 4
ENDMDL
MODEL 3
REMARK VINA RESULT:      -8.3      3.049      4.342
REMARK  4 active torsions:
REMARK  status: ('A' for Active; 'I' for Inactive)
REMARK    1  A    between atoms: C8_14  and  S1_1 
REMARK    2  A    between atoms: N1_6  and  S1_1 
REMARK    3  A    between atoms: C1_7  and  C6_12 
REMARK    4  A    between atoms: C6_12  and  C7_13 
ROOT
HETATM    1  S1  UNK     1      19.212   5.901  30.878  1.00  0.00     0.243 S 
HETATM    2  O1  UNK     1      18.384   5.947  29.692  1.00  0.00    -0.206 OA
HETATM    3  O2  UNK     1      20.620   6.232  30.819  1.00  0.00    -0.206 OA
ENDROOT
BRANCH   1   4
HETATM    4  C8  UNK     1      18.462   6.927  32.101  1.00  0.00     0.075 A 
HETATM    5  C11 UNK     1      17.130   7.296  31.954  1.00  0.00     0.039 A 
HETATM    6  C13 UNK     1      16.534   8.108  32.921  1.00  0.00    -0.001 A 
HETATM    7  C17 UNK     1      17.293   8.527  34.010  1.00  0.00     0.089 A 
HETATM    8  C19 UNK     1      15.146   8.531  32.830  1.00  0.00     0.020 A 
HETATM    9  C14 UNK     1      18.629   8.157  34.157  1.00  0.00     0.040 A 
HETATM   10  O3  UNK     1      16.727   9.345  35.008  1.00  0.00    -0.275 OA
HETATM   11  C12 UNK     1      19.216   7.347  33.188  1.00  0.00     0.027 A 
HETATM   12  C21 UNK     1      15.401   9.763  34.941  1.00  0.00     0.288 A 
HETATM   13  C20 UNK     1      14.617   9.307  33.779  1.00  0.00     0.083 A 
HETATM   14  O4  UNK     1      14.901  10.475  35.806  1.00  0.00    -0.260 OA
ENDBRANCH   1   4
BRANCH   1  15
HETATM   15  N1  UNK     1      19.034   4.368  31.624  1.00  0.00    -0.206 NA
HETATM   16  C4  UNK     1      18.187   4.353  32.853  1.00  0.00     0.108 C 
HETATM   17  C2  UNK     1      18.392   3.039  33.600  1.00  0.00     0.020 C 
HETATM   18  C1  UNK     1      18.084   1.833  32.702  1.00  0.00    -0.008 C 
HETATM   19  C3  UNK     1      18.911   1.914  31.413  1.00  0.00     0.020 C 
HETATM   20  C5  UNK     1      18.698   3.246  30.700  1.00  0.00     0.108 C 
BRANCH  18  21
HETATM   21  C6  UNK     1      18.351   0.523  33.440  1.00  0.00     0.043 C 
BRANCH  21  22
HETATM   22  C7  UNK     1      17.708   0.511  34.799  1.00  0.00    -0.058 A 
HETATM   23  C10 UNK     1      16.325   0.436  34.902  1.00  0.00     0.007 A 
HETATM   24  C16 UNK     1      15.729   0.424  36.163  1.00  0.00     0.001 A 
HETATM   25  C18 UNK     1      16.520   0.487  37.310  1.00  0.00     0.000 A 
HETATM   26  C15 UNK     1      17.909   0.562  37.195  1.00  0.00     0.001 A 
HETATM   27  C9  UNK     1      18.505   0.574  35.934  1.00  0.00     0.007 A 
ENDBRANCH  21  22
ENDBRANCH  18  21
ENDBRANCH   1  15
TORSDOF 4
ENDMDL
MODEL 4
REMARK VINA RESULT:      -8.3     17.518     19.151
REMARK  4 active torsions:
REMARK  status: ('A' for Active; 'I' for Inactive)
REMARK    1  A    between atoms: C8_14  and  S1_1 
REMARK    2  A    between atoms: N1_6  and  S1_1 
REMARK    3  A    between atoms: C1_7  and  C6_12 
REMARK    4  A    between atoms: C6_12  and  C7_13 
ROOT
HETATM    1  S1  UNK     1      34.247  -6.606  34.588  1.00  0.00     0.243 S 
HETATM    2  O1  UNK     1      35.382  -5.729  34.399  1.00  0.00    -0.206 OA
HETATM    3  O2  UNK     1      34.415  -7.940  35.123  1.00  0.00    -0.206 OA
ENDROOT
BRANCH   1   4
HETATM    4  C8  UNK     1      33.071  -5.759  35.595  1.00  0.00     0.075 A 
HETATM    5  C11 UNK     1      32.249  -6.493  36.441  1.00  0.00     0.039 A 
HETATM    6  C13 UNK     1      31.317  -5.826  37.239  1.00  0.00    -0.001 A 
HETATM    7  C17 UNK     1      31.239  -4.437  37.165  1.00  0.00     0.089 A 
HETATM    8  C19 UNK     1      30.427  -6.530  38.146  1.00  0.00     0.020 A 
HETATM    9  C14 UNK     1      32.063  -3.702  36.316  1.00  0.00     0.040 A 
HETATM   10  O3  UNK     1      30.313  -3.727  37.956  1.00  0.00    -0.275 OA
HETATM   11  C12 UNK     1      32.989  -4.375  35.523  1.00  0.00     0.027 A 
HETATM   12  C21 UNK     1      29.451  -4.381  38.830  1.00  0.00     0.288 A 
HETATM   13  C20 UNK     1      29.552  -5.851  38.893  1.00  0.00     0.083 A 
HETATM   14  O4  UNK     1      28.643  -3.770  39.522  1.00  0.00    -0.260 OA
ENDBRANCH   1   4
BRANCH   1  15
HETATM   15  N1  UNK     1      33.367  -6.703  33.121  1.00  0.00    -0.206 NA
HETATM   16  C4  UNK     1      33.953  -7.606  32.086  1.00  0.00     0.108 C 
HETATM   17  C2  UNK     1      33.289  -7.339  30.739  1.00  0.00     0.020 C 
HETATM   18  C1  UNK     1      31.767  -7.509  30.823  1.00  0.00    -0.008 C 
HETATM   19  C3  UNK     1      31.201  -6.628  31.944  1.00  0.00     0.020 C 
HETATM   20  C5  UNK     1      31.897  -6.906  33.273  1.00  0.00     0.108 C 
BRANCH  18  21
HETATM   21  C6  UNK     1      31.108  -7.180  29.486  1.00  0.00     0.043 C 
BRANCH  21  22
HETATM   22  C7  UNK     1      30.038  -8.177  29.133  1.00  0.00    -0.058 A 
HETATM   23  C10 UNK     1      28.788  -8.078  29.729  1.00  0.00     0.007 A 
HETATM   24  C16 UNK     1      27.795  -9.002  29.401  1.00  0.00     0.001 A 
HETATM   25  C18 UNK     1      28.062 -10.016  28.482  1.00  0.00     0.000 A 
HETATM   26  C15 UNK     1      29.322 -10.106  27.889  1.00  0.00     0.001 A 
HETATM   27  C9  UNK     1      30.314  -9.182  28.216  1.00  0.00     0.007 A 
ENDBRANCH  21  22
ENDBRANCH  18  21
ENDBRANCH   1  15
TORSDOF 4
ENDMDL
MODEL 5
REMARK VINA RESULT:      -8.3      4.009      9.629
REMARK  4 active torsions:
REMARK  status: ('A' for Active; 'I' for Inactive)
REMARK    1  A    between atoms: C8_14  and  S1_1 
REMARK    2  A    between atoms: N1_6  and  S1_1 
REMARK    3  A    between atoms: C1_7  and  C6_12 
REMARK    4  A    between atoms: C6_12  and  C7_13 
ROOT
HETATM    1  S1  UNK     1      18.535   2.128  29.849  1.00  0.00     0.243 S 
HETATM    2  O1  UNK     1      19.339   2.168  28.647  1.00  0.00    -0.206 OA
HETATM    3  O2  UNK     1      17.094   2.021  29.781  1.00  0.00    -0.206 OA
ENDROOT
BRANCH   1   4
HETATM    4  C8  UNK     1      19.133   0.808  30.856  1.00  0.00     0.075 A 
HETATM    5  C11 UNK     1      18.613   0.640  32.134  1.00  0.00     0.039 A 
HETATM    6  C13 UNK     1      19.084  -0.403  32.933  1.00  0.00    -0.001 A 
HETATM    7  C17 UNK     1      20.066  -1.250  32.425  1.00  0.00     0.089 A 
HETATM    8  C19 UNK     1      18.585  -0.637  34.277  1.00  0.00     0.020 A 
HETATM    9  C14 UNK     1      20.587  -1.081  31.144  1.00  0.00     0.040 A 
HETATM   10  O3  UNK     1      20.566  -2.316  33.200  1.00  0.00    -0.275 OA
HETATM   11  C12 UNK     1      20.112  -0.037  30.353  1.00  0.00     0.027 A 
HETATM   12  C21 UNK     1      20.103  -2.558  34.489  1.00  0.00     0.288 A 
HETATM   13  C20 UNK     1      19.063  -1.649  35.006  1.00  0.00     0.083 A 
HETATM   14  O4  UNK     1      20.532  -3.484  35.170  1.00  0.00    -0.260 OA
ENDBRANCH   1   4
BRANCH   1  15
HETATM   15  N1  UNK     1      18.945   3.467  30.838  1.00  0.00    -0.206 NA
HETATM   16  C4  UNK     1      19.357   4.699  30.102  1.00  0.00     0.108 C 
HETATM   17  C2  UNK     1      20.018   5.676  31.070  1.00  0.00     0.020 C 
HETATM   18  C1  UNK     1      19.087   6.016  32.242  1.00  0.00    -0.008 C 
HETATM   19  C3  UNK     1      18.619   4.729  32.931  1.00  0.00     0.020 C 
HETATM   20  C5  UNK     1      17.980   3.766  31.935  1.00  0.00     0.108 C 
BRANCH  18  21
HETATM   21  C6  UNK     1      19.781   6.946  33.235  1.00  0.00     0.043 C 
BRANCH  21  22
HETATM   22  C7  UNK     1      18.954   8.169  33.521  1.00  0.00    -0.058 A 
HETATM   23  C10 UNK     1      19.550   9.274  34.114  1.00  0.00     0.007 A 
HETATM   24  C16 UNK     1      18.783  10.409  34.380  1.00  0.00     0.001 A 
HETATM   25  C18 UNK     1      17.429  10.429  34.049  1.00  0.00     0.000 A 
HETATM   26  C15 UNK     1      16.840   9.313  33.453  1.00  0.00     0.001 A 
HETATM   27  C9  UNK     1      17.606   8.178  33.188  1.00  0.00     0.007 A 
ENDBRANCH  21  22
ENDBRANCH  18  21
ENDBRANCH   1  15
TORSDOF 4
ENDMDL
MODEL 6
REMARK VINA RESULT:      -8.3     22.646     24.347
REMARK  4 active torsions:
REMARK  status: ('A' for Active; 'I' for Inactive)
REMARK    1  A    between atoms: C8_14  and  S1_1 
REMARK    2  A    between atoms: N1_6  and  S1_1 
REMARK    3  A    between atoms: C1_7  and  C6_12 
REMARK    4  A    between atoms: C6_12  and  C7_13 
ROOT
HETATM    1  S1  UNK     1      16.293   7.943  11.080  1.00  0.00     0.243 S 
HETATM    2  O1  UNK     1      17.579   7.295  10.941  1.00  0.00    -0.206 OA
HETATM    3  O2  UNK     1      15.642   8.045  12.369  1.00  0.00    -0.206 OA
ENDROOT
BRANCH   1   4
HETATM    4  C8  UNK     1      16.431   9.569  10.409  1.00  0.00     0.075 A 
HETATM    5  C11 UNK     1      17.338   9.805   9.382  1.00  0.00     0.039 A 
HETATM    6  C13 UNK     1      17.450  11.090   8.850  1.00  0.00    -0.001 A 
HETATM    7  C17 UNK     1      16.646  12.105   9.365  1.00  0.00     0.089 A 
HETATM    8  C19 UNK     1      18.375  11.407   7.776  1.00  0.00     0.020 A 
HETATM    9  C14 UNK     1      15.738  11.868  10.395  1.00  0.00     0.040 A 
HETATM   10  O3  UNK     1      16.729  13.416   8.853  1.00  0.00    -0.275 OA
HETATM   11  C12 UNK     1      15.633  10.583  10.921  1.00  0.00     0.027 A 
HETATM   12  C21 UNK     1      17.608  13.741   7.825  1.00  0.00     0.288 A 
HETATM   13  C20 UNK     1      18.448  12.652   7.296  1.00  0.00     0.083 A 
HETATM   14  O4  UNK     1      17.685  14.879   7.374  1.00  0.00    -0.260 OA
ENDBRANCH   1   4
BRANCH   1  15
HETATM   15  N1  UNK     1      15.196   7.251   9.959  1.00  0.00    -0.206 NA
HETATM   16  C4  UNK     1      15.073   5.764  10.023  1.00  0.00     0.108 C 
HETATM   17  C2  UNK     1      14.357   5.256   8.776  1.00  0.00     0.020 C 
HETATM   18  C1  UNK     1      12.982   5.918   8.613  1.00  0.00    -0.008 C 
HETATM   19  C3  UNK     1      13.130   7.444   8.627  1.00  0.00     0.020 C 
HETATM   20  C5  UNK     1      13.865   7.919   9.876  1.00  0.00     0.108 C 
BRANCH  18  21
HETATM   21  C6  UNK     1      12.301   5.447   7.330  1.00  0.00     0.043 C 
BRANCH  21  22
HETATM   22  C7  UNK     1      10.846   5.827   7.302  1.00  0.00    -0.058 A 
HETATM   23  C10 UNK     1      10.257   6.193   6.099  1.00  0.00     0.007 A 
HETATM   24  C16 UNK     1       8.907   6.544   6.074  1.00  0.00     0.001 A 
HETATM   25  C18 UNK     1       8.159   6.526   7.250  1.00  0.00     0.000 A 
HETATM   26  C15 UNK     1       8.760   6.156   8.454  1.00  0.00     0.001 A 
HETATM   27  C9  UNK     1      10.110   5.804   8.479  1.00  0.00     0.007 A 
ENDBRANCH  21  22
ENDBRANCH  18  21
ENDBRANCH   1  15
TORSDOF 4
ENDMDL
MODEL 7
REMARK VINA RESULT:      -8.2     18.086     19.609
REMARK  4 active torsions:
REMARK  status: ('A' for Active; 'I' for Inactive)
REMARK    1  A    between atoms: C8_14  and  S1_1 
REMARK    2  A    between atoms: N1_6  and  S1_1 
REMARK    3  A    between atoms: C1_7  and  C6_12 
REMARK    4  A    between atoms: C6_12  and  C7_13 
ROOT
HETATM    1  S1  UNK     1      32.483  -6.911  35.625  1.00  0.00     0.243 S 
HETATM    2  O1  UNK     1      32.607  -5.590  36.202  1.00  0.00    -0.206 OA
HETATM    3  O2  UNK     1      33.654  -7.700  35.307  1.00  0.00    -0.206 OA
ENDROOT
BRANCH   1   4
HETATM    4  C8  UNK     1      31.452  -7.871  36.688  1.00  0.00     0.075 A 
HETATM    5  C11 UNK     1      30.293  -7.303  37.203  1.00  0.00     0.039 A 
HETATM    6  C13 UNK     1      29.475  -8.060  38.044  1.00  0.00    -0.001 A 
HETATM    7  C17 UNK     1      29.845  -9.369  38.345  1.00  0.00     0.089 A 
HETATM    8  C19 UNK     1      28.249  -7.530  38.617  1.00  0.00     0.020 A 
HETATM    9  C14 UNK     1      31.008  -9.937  37.828  1.00  0.00     0.040 A 
HETATM   10  O3  UNK     1      29.045 -10.165  39.188  1.00  0.00    -0.275 OA
HETATM   11  C12 UNK     1      31.818  -9.175  36.990  1.00  0.00     0.027 A 
HETATM   12  C21 UNK     1      27.868  -9.678  39.748  1.00  0.00     0.288 A 
HETATM   13  C20 UNK     1      27.496  -8.291  39.416  1.00  0.00     0.083 A 
HETATM   14  O4  UNK     1      27.167 -10.365  40.483  1.00  0.00    -0.260 OA
ENDBRANCH   1   4
BRANCH   1  15
HETATM   15  N1  UNK     1      31.480  -6.823  34.238  1.00  0.00    -0.206 NA
HETATM   16  C4  UNK     1      31.454  -5.496  33.555  1.00  0.00     0.108 C 
HETATM   17  C2  UNK     1      30.287  -5.448  32.574  1.00  0.00     0.020 C 
HETATM   18  C1  UNK     1      30.366  -6.592  31.555  1.00  0.00    -0.008 C 
HETATM   19  C3  UNK     1      30.468  -7.937  32.285  1.00  0.00     0.020 C 
HETATM   20  C5  UNK     1      31.633  -7.948  33.270  1.00  0.00     0.108 C 
BRANCH  18  21
HETATM   21  C6  UNK     1      29.161  -6.570  30.618  1.00  0.00     0.043 C 
BRANCH  21  22
HETATM   22  C7  UNK     1      29.122  -7.788  29.735  1.00  0.00    -0.058 A 
HETATM   23  C10 UNK     1      30.224  -8.100  28.951  1.00  0.00     0.007 A 
HETATM   24  C16 UNK     1      30.188  -9.230  28.133  1.00  0.00     0.001 A 
HETATM   25  C18 UNK     1      29.050 -10.036  28.106  1.00  0.00     0.000 A 
HETATM   26  C15 UNK     1      27.947  -9.712  28.898  1.00  0.00     0.001 A 
HETATM   27  C9  UNK     1      27.984  -8.583  29.716  1.00  0.00     0.007 A 
ENDBRANCH  21  22
ENDBRANCH  18  21
ENDBRANCH   1  15
TORSDOF 4
ENDMDL
MODEL 8
REMARK VINA RESULT:      -8.2     22.796     24.337
REMARK  4 active torsions:
REMARK  status: ('A' for Active; 'I' for Inactive)
REMARK    1  A    between atoms: C8_14  and  S1_1 
REMARK    2  A    between atoms: N1_6  and  S1_1 
REMARK    3  A    between atoms: C1_7  and  C6_12 
REMARK    4  A    between atoms: C6_12  and  C7_13 
ROOT
HETATM    1  S1  UNK     1      16.336   8.371  10.630  1.00  0.00     0.243 S 
HETATM    2  O1  UNK     1      17.656   8.183  10.068  1.00  0.00    -0.206 OA
HETATM    3  O2  UNK     1      16.088   8.163  12.041  1.00  0.00    -0.206 OA
ENDROOT
BRANCH   1   4
HETATM    4  C8  UNK     1      15.799  10.001  10.218  1.00  0.00     0.075 A 
HETATM    5  C11 UNK     1      15.941  10.452   8.911  1.00  0.00     0.039 A 
HETATM    6  C13 UNK     1      15.518  11.741   8.582  1.00  0.00    -0.001 A 
HETATM    7  C17 UNK     1      14.962  12.541   9.577  1.00  0.00     0.089 A 
HETATM    8  C19 UNK     1      15.635  12.276   7.236  1.00  0.00     0.020 A 
HETATM    9  C14 UNK     1      14.820  12.089  10.886  1.00  0.00     0.040 A 
HETATM   10  O3  UNK     1      14.520  13.848   9.283  1.00  0.00    -0.275 OA
HETATM   11  C12 UNK     1      15.246  10.802  11.207  1.00  0.00     0.027 A 
HETATM   12  C21 UNK     1      14.624  14.380   8.002  1.00  0.00     0.288 A 
HETATM   13  C20 UNK     1      15.215  13.515   6.966  1.00  0.00     0.083 A 
HETATM   14  O4  UNK     1      14.242  15.516   7.740  1.00  0.00    -0.260 OA
ENDBRANCH   1   4
BRANCH   1  15
HETATM   15  N1  UNK     1      15.209   7.449   9.727  1.00  0.00    -0.206 NA
HETATM   16  C4  UNK     1      15.236   5.979   9.986  1.00  0.00     0.108 C 
HETATM   17  C2  UNK     1      14.456   5.252   8.895  1.00  0.00     0.020 C 
HETATM   18  C1  UNK     1      13.014   5.770   8.800  1.00  0.00    -0.008 C 
HETATM   19  C3  UNK     1      13.015   7.292   8.610  1.00  0.00     0.020 C 
HETATM   20  C5  UNK     1      13.818   7.988   9.706  1.00  0.00     0.108 C 
BRANCH  18  21
HETATM   21  C6  UNK     1      12.262   5.079   7.665  1.00  0.00     0.043 C 
BRANCH  21  22
HETATM   22  C7  UNK     1      10.876   5.640   7.496  1.00  0.00    -0.058 A 
HETATM   23  C10 UNK     1      10.442   6.019   6.233  1.00  0.00     0.007 A 
HETATM   24  C16 UNK     1       9.156   6.538   6.076  1.00  0.00     0.001 A 
HETATM   25  C18 UNK     1       8.318   6.673   7.182  1.00  0.00     0.000 A 
HETATM   26  C15 UNK     1       8.765   6.288   8.447  1.00  0.00     0.001 A 
HETATM   27  C9  UNK     1      10.050   5.769   8.604  1.00  0.00     0.007 A 
ENDBRANCH  21  22
ENDBRANCH  18  21
ENDBRANCH   1  15
TORSDOF 4
ENDMDL
MODEL 9
REMARK VINA RESULT:      -8.1      6.294      8.577
REMARK  4 active torsions:
REMARK  status: ('A' for Active; 'I' for Inactive)
REMARK    1  A    between atoms: C8_14  and  S1_1 
REMARK    2  A    between atoms: N1_6  and  S1_1 
REMARK    3  A    between atoms: C1_7  and  C6_12 
REMARK    4  A    between atoms: C6_12  and  C7_13 
ROOT
HETATM    1  S1  UNK     1      17.718   1.013  36.489  1.00  0.00     0.243 S 
HETATM    2  O1  UNK     1      18.586   1.722  37.404  1.00  0.00    -0.206 OA
HETATM    3  O2  UNK     1      16.287   0.966  36.702  1.00  0.00    -0.206 OA
ENDROOT
BRANCH   1   4
HETATM    4  C8  UNK     1      18.007   1.648  34.868  1.00  0.00     0.075 A 
HETATM    5  C11 UNK     1      18.085   3.023  34.682  1.00  0.00     0.039 A 
HETATM    6  C13 UNK     1      18.314   3.528  33.400  1.00  0.00    -0.001 A 
HETATM    7  C17 UNK     1      18.458   2.636  32.341  1.00  0.00     0.089 A 
HETATM    8  C19 UNK     1      18.408   4.953  33.134  1.00  0.00     0.020 A 
HETATM    9  C14 UNK     1      18.378   1.258  32.528  1.00  0.00     0.040 A 
HETATM   10  O3  UNK     1      18.691   3.107  31.033  1.00  0.00    -0.275 OA
HETATM   11  C12 UNK     1      18.150   0.762  33.810  1.00  0.00     0.027 A 
HETATM   12  C21 UNK     1      18.784   4.467  30.755  1.00  0.00     0.288 A 
HETATM   13  C20 UNK     1      18.629   5.392  31.892  1.00  0.00     0.083 A 
HETATM   14  O4  UNK     1      18.988   4.884  29.619  1.00  0.00    -0.260 OA
ENDBRANCH   1   4
BRANCH   1  15
HETATM   15  N1  UNK     1      18.302  -0.586  36.291  1.00  0.00    -0.206 NA
HETATM   16  C4  UNK     1      19.777  -0.705  36.092  1.00  0.00     0.108 C 
HETATM   17  C2  UNK     1      20.113  -2.105  35.589  1.00  0.00     0.020 C 
HETATM   18  C1  UNK     1      19.596  -3.184  36.550  1.00  0.00    -0.008 C 
HETATM   19  C3  UNK     1      18.095  -2.991  36.796  1.00  0.00     0.020 C 
HETATM   20  C5  UNK     1      17.789  -1.577  37.281  1.00  0.00     0.108 C 
BRANCH  18  21
HETATM   21  C6  UNK     1      19.885  -4.581  36.006  1.00  0.00     0.043 C 
BRANCH  21  22
HETATM   22  C7  UNK     1      19.851  -5.619  37.094  1.00  0.00    -0.058 A 
HETATM   23  C10 UNK     1      18.899  -6.629  37.047  1.00  0.00     0.007 A 
HETATM   24  C16 UNK     1      18.868  -7.592  38.056  1.00  0.00     0.001 A 
HETATM   25  C18 UNK     1      19.788  -7.536  39.102  1.00  0.00     0.000 A 
HETATM   26  C15 UNK     1      20.740  -6.516  39.140  1.00  0.00     0.001 A 
HETATM   27  C9  UNK     1      20.771  -5.554  38.131  1.00  0.00     0.007 A 
ENDBRANCH  21  22
ENDBRANCH  18  21
ENDBRANCH   1  15
TORSDOF 4
ENDMDL
MODEL 10
REMARK VINA RESULT:      -8.1     19.447     21.706
REMARK  4 active torsions:
REMARK  status: ('A' for Active; 'I' for Inactive)
REMARK    1  A    between atoms: C8_14  and  S1_1 
REMARK    2  A    between atoms: N1_6  and  S1_1 
REMARK    3  A    between atoms: C1_7  and  C6_12 
REMARK    4  A    between atoms: C6_12  and  C7_13 
ROOT
HETATM    1  S1  UNK     1      35.119  -7.449  30.001  1.00  0.00     0.243 S 
HETATM    2  O1  UNK     1      35.897  -8.592  29.576  1.00  0.00    -0.206 OA
HETATM    3  O2  UNK     1      35.436  -6.115  29.536  1.00  0.00    -0.206 OA
ENDROOT
BRANCH   1   4
HETATM    4  C8  UNK     1      33.428  -7.772  29.617  1.00  0.00     0.075 A 
HETATM    5  C11 UNK     1      32.971  -9.085  29.617  1.00  0.00     0.039 A 
HETATM    6  C13 UNK     1      31.633  -9.344  29.314  1.00  0.00    -0.001 A 
HETATM    7  C17 UNK     1      30.790  -8.275  29.018  1.00  0.00     0.089 A 
HETATM    8  C19 UNK     1      31.088 -10.691  29.296  1.00  0.00     0.020 A 
HETATM    9  C14 UNK     1      31.249  -6.960  29.018  1.00  0.00     0.040 A 
HETATM   10  O3  UNK     1      29.433  -8.496  28.709  1.00  0.00    -0.275 OA
HETATM   11  C12 UNK     1      32.585  -6.710  29.321  1.00  0.00     0.027 A 
HETATM   12  C21 UNK     1      28.891  -9.776  28.686  1.00  0.00     0.288 A 
HETATM   13  C20 UNK     1      29.801 -10.892  29.002  1.00  0.00     0.083 A 
HETATM   14  O4  UNK     1      27.710  -9.976  28.418  1.00  0.00    -0.260 OA
ENDBRANCH   1   4
BRANCH   1  15
HETATM   15  N1  UNK     1      35.039  -7.434  31.713  1.00  0.00    -0.206 NA
HETATM   16  C4  UNK     1      36.029  -6.544  32.389  1.00  0.00     0.108 C 
HETATM   17  C2  UNK     1      36.088  -6.882  33.876  1.00  0.00     0.020 C 
HETATM   18  C1  UNK     1      34.704  -6.767  34.530  1.00  0.00    -0.008 C 
HETATM   19  C3  UNK     1      33.691  -7.631  33.769  1.00  0.00     0.020 C 
HETATM   20  C5  UNK     1      33.668  -7.283  32.284  1.00  0.00     0.108 C 
BRANCH  18  21
HETATM   21  C6  UNK     1      34.764  -7.166  36.002  1.00  0.00     0.043 C 
BRANCH  21  22
HETATM   22  C7  UNK     1      33.618  -6.582  36.783  1.00  0.00    -0.058 A 
HETATM   23  C10 UNK     1      32.909  -7.388  37.663  1.00  0.00     0.007 A 
HETATM   24  C16 UNK     1      31.847  -6.847  38.387  1.00  0.00     0.001 A 
HETATM   25  C18 UNK     1      31.504  -5.505  38.226  1.00  0.00     0.000 A 
HETATM   26  C15 UNK     1      32.224  -4.703  37.338  1.00  0.00     0.001 A 
HETATM   27  C9  UNK     1      33.286  -5.245  36.614  1.00  0.00     0.007 A 
ENDBRANCH  21  22
ENDBRANCH  18  21
ENDBRANCH   1  15
TORSDOF 4
ENDMDL
