MODEL 1
REMARK VINA RESULT:      -7.4      0.000      0.000
REMARK  9 active torsions:
REMARK  status: ('A' for Active; 'I' for Inactive)
REMARK    1  A    between atoms: C1_6  and  O1_2 
REMARK    2  A    between atoms: C5_10  and  O1_2 
REMARK    3  A    between atoms: C13_18  and  O2_3 
REMARK    4  A    between atoms: C2_7  and  O2_3 
REMARK    5  A    between atoms: C10_15  and  O3_4 
REMARK    6  A    between atoms: C8_13  and  O3_4 
REMARK    7  A    between atoms: C3_8  and  C9_14 
REMARK    8  A    between atoms: C5_10  and  C8_13 
REMARK    9  A    between atoms: C11_16  and  C12_17 
ROOT
HETATM    1  N1  UNK     1      30.208  -2.943  30.368  1.00  0.00    -0.191 NA
HETATM    2  C9  UNK     1      30.416  -5.208  32.958  1.00  0.00     0.035 C 
HETATM    3  C11 UNK     1      29.846  -5.130  31.726  1.00  0.00     0.055 C 
HETATM    4  C26 UNK     1      30.052  -3.915  30.981  1.00  0.00     0.100 C 
ENDROOT
BRANCH   3   5
HETATM    5  C12 UNK     1      29.059  -6.197  31.129  1.00  0.00    -0.015 A 
HETATM    6  C19 UNK     1      29.664  -7.113  30.267  1.00  0.00     0.013 A 
HETATM    7  C23 UNK     1      28.909  -8.135  29.695  1.00  0.00     0.001 A 
HETATM    8  C25 UNK     1      27.548  -8.244  29.983  1.00  0.00     0.000 A 
HETATM    9  C24 UNK     1      26.943  -7.329  30.845  1.00  0.00     0.001 A 
HETATM   10  C20 UNK     1      27.698  -6.305  31.418  1.00  0.00     0.013 A 
ENDBRANCH   3   5
BRANCH   2  11
HETATM   11  C3  UNK     1      30.307  -6.348  33.882  1.00  0.00    -0.031 A 
HETATM   12  C4  UNK     1      29.309  -6.362  34.855  1.00  0.00     0.051 A 
HETATM   13  C2  UNK     1      29.205  -7.442  35.732  1.00  0.00     0.104 A 
HETATM   14  C1  UNK     1      30.101  -8.507  35.635  1.00  0.00     0.119 A 
HETATM   15  C6  UNK     1      31.099  -8.493  34.661  1.00  0.00     0.048 A 
HETATM   16 Br1  UNK     1      32.335  -9.921  34.500  1.00  0.00    -0.048 Br
HETATM   17  C7  UNK     1      31.203  -7.413  33.785  1.00  0.00     0.033 A 
BRANCH  13  18
HETATM   18  O2  UNK     1      28.225  -7.443  36.678  1.00  0.00    -0.349 OA
BRANCH  18  19
HETATM   19  C13 UNK     1      28.089  -6.266  37.472  1.00  0.00     0.171 C 
HETATM   20  C21 UNK     1      28.113  -6.653  38.935  1.00  0.00     0.034 C 
ENDBRANCH  18  19
ENDBRANCH  13  18
BRANCH  14  21
HETATM   21  O1  UNK     1      29.983  -9.554  36.502  1.00  0.00    -0.345 OA
BRANCH  21  22
HETATM   22  C5  UNK     1      30.237  -9.285  37.878  1.00  0.00     0.202 C 
BRANCH  22  23
HETATM   23  C8  UNK     1      31.735  -9.202  38.098  1.00  0.00     0.202 C 
BRANCH  23  24
HETATM   24  O3  UNK     1      32.055  -7.925  38.637  1.00  0.00    -0.349 OA
BRANCH  24  25
HETATM   25  C10 UNK     1      32.483  -6.971  37.752  1.00  0.00     0.068 A 
HETATM   26  C15 UNK     1      31.795  -5.764  37.640  1.00  0.00     0.037 A 
HETATM   27  C17 UNK     1      32.232  -4.792  36.740  1.00  0.00     0.009 A 
HETATM   28  C14 UNK     1      33.357  -5.029  35.950  1.00  0.00    -0.062 A 
HETATM   29  C18 UNK     1      34.046  -6.237  36.062  1.00  0.00     0.009 A 
HETATM   30  C22 UNK     1      33.822  -3.991  34.986  1.00  0.00     0.048 C 
HETATM   31  C16 UNK     1      33.609  -7.208  36.963  1.00  0.00     0.037 A 
ENDBRANCH  24  25
ENDBRANCH  23  24
ENDBRANCH  22  23
ENDBRANCH  21  22
ENDBRANCH  14  21
ENDBRANCH   2  11
TORSDOF 9
ENDMDL
MODEL 2
REMARK VINA RESULT:      -7.3      1.434      2.855
REMARK  9 active torsions:
REMARK  status: ('A' for Active; 'I' for Inactive)
REMARK    1  A    between atoms: C1_6  and  O1_2 
REMARK    2  A    between atoms: C5_10  and  O1_2 
REMARK    3  A    between atoms: C13_18  and  O2_3 
REMARK    4  A    between atoms: C2_7  and  O2_3 
REMARK    5  A    between atoms: C10_15  and  O3_4 
REMARK    6  A    between atoms: C8_13  and  O3_4 
REMARK    7  A    between atoms: C3_8  and  C9_14 
REMARK    8  A    between atoms: C5_10  and  C8_13 
REMARK    9  A    between atoms: C11_16  and  C12_17 
ROOT
HETATM    1  N1  UNK     1      30.163  -3.139  29.953  1.00  0.00    -0.191 NA
HETATM    2  C9  UNK     1      30.491  -5.218  32.684  1.00  0.00     0.035 C 
HETATM    3  C11 UNK     1      29.878  -5.231  31.470  1.00  0.00     0.055 C 
HETATM    4  C26 UNK     1      30.041  -4.068  30.637  1.00  0.00     0.100 C 
ENDROOT
BRANCH   3   5
HETATM    5  C12 UNK     1      29.085  -6.345  30.976  1.00  0.00    -0.015 A 
HETATM    6  C19 UNK     1      27.700  -6.343  31.138  1.00  0.00     0.013 A 
HETATM    7  C23 UNK     1      26.941  -7.412  30.663  1.00  0.00     0.001 A 
HETATM    8  C25 UNK     1      27.567  -8.484  30.027  1.00  0.00     0.000 A 
HETATM    9  C24 UNK     1      28.952  -8.487  29.865  1.00  0.00     0.001 A 
HETATM   10  C20 UNK     1      29.712  -7.417  30.339  1.00  0.00     0.013 A 
ENDBRANCH   3   5
BRANCH   2  11
HETATM   11  C3  UNK     1      30.430  -6.292  33.687  1.00  0.00    -0.031 A 
HETATM   12  C4  UNK     1      31.467  -7.219  33.778  1.00  0.00     0.051 A 
HETATM   13  C2  UNK     1      31.410  -8.238  34.729  1.00  0.00     0.104 A 
HETATM   14  C1  UNK     1      30.315  -8.329  35.588  1.00  0.00     0.119 A 
HETATM   15  C6  UNK     1      29.277  -7.402  35.497  1.00  0.00     0.048 A 
HETATM   16 Br1  UNK     1      27.772  -7.495  36.646  1.00  0.00    -0.048 Br
HETATM   17  C7  UNK     1      29.335  -6.383  34.546  1.00  0.00     0.033 A 
BRANCH  13  18
HETATM   18  O2  UNK     1      32.431  -9.137  34.807  1.00  0.00    -0.349 OA
BRANCH  18  19
HETATM   19  C13 UNK     1      33.161  -9.394  33.609  1.00  0.00     0.171 C 
HETATM   20  C21 UNK     1      34.603  -8.982  33.814  1.00  0.00     0.034 C 
ENDBRANCH  18  19
ENDBRANCH  13  18
BRANCH  14  21
HETATM   21  O1  UNK     1      30.278  -9.334  36.511  1.00  0.00    -0.345 OA
BRANCH  21  22
HETATM   22  C5  UNK     1      30.387  -8.956  37.881  1.00  0.00     0.202 C 
BRANCH  22  23
HETATM   23  C8  UNK     1      31.844  -8.688  38.206  1.00  0.00     0.202 C 
BRANCH  23  24
HETATM   24  O3  UNK     1      31.994  -7.321  38.571  1.00  0.00    -0.349 OA
BRANCH  24  25
HETATM   25  C10 UNK     1      32.558  -6.492  37.637  1.00  0.00     0.068 A 
HETATM   26  C15 UNK     1      33.792  -6.814  37.072  1.00  0.00     0.037 A 
HETATM   27  C17 UNK     1      34.365  -5.971  36.120  1.00  0.00     0.009 A 
HETATM   28  C14 UNK     1      33.704  -4.804  35.735  1.00  0.00    -0.062 A 
HETATM   29  C18 UNK     1      32.470  -4.482  36.299  1.00  0.00     0.009 A 
HETATM   30  C22 UNK     1      34.319  -3.902  34.718  1.00  0.00     0.048 C 
HETATM   31  C16 UNK     1      31.897  -5.326  37.251  1.00  0.00     0.037 A 
ENDBRANCH  24  25
ENDBRANCH  23  24
ENDBRANCH  22  23
ENDBRANCH  21  22
ENDBRANCH  14  21
ENDBRANCH   2  11
TORSDOF 9
ENDMDL
MODEL 3
REMARK VINA RESULT:      -6.9      2.997      6.695
REMARK  9 active torsions:
REMARK  status: ('A' for Active; 'I' for Inactive)
REMARK    1  A    between atoms: C1_6  and  O1_2 
REMARK    2  A    between atoms: C5_10  and  O1_2 
REMARK    3  A    between atoms: C13_18  and  O2_3 
REMARK    4  A    between atoms: C2_7  and  O2_3 
REMARK    5  A    between atoms: C10_15  and  O3_4 
REMARK    6  A    between atoms: C8_13  and  O3_4 
REMARK    7  A    between atoms: C3_8  and  C9_14 
REMARK    8  A    between atoms: C5_10  and  C8_13 
REMARK    9  A    between atoms: C11_16  and  C12_17 
ROOT
HETATM    1  N1  UNK     1      29.475  -3.689  39.923  1.00  0.00    -0.191 NA
HETATM    2  C9  UNK     1      31.207  -4.577  37.077  1.00  0.00     0.035 C 
HETATM    3  C11 UNK     1      30.305  -5.135  37.929  1.00  0.00     0.055 C 
HETATM    4  C26 UNK     1      29.851  -4.327  39.030  1.00  0.00     0.100 C 
ENDROOT
BRANCH   3   5
HETATM    5  C12 UNK     1      29.779  -6.483  37.781  1.00  0.00    -0.015 A 
HETATM    6  C19 UNK     1      28.524  -6.683  37.207  1.00  0.00     0.013 A 
HETATM    7  C23 UNK     1      28.020  -7.976  37.066  1.00  0.00     0.001 A 
HETATM    8  C25 UNK     1      28.771  -9.069  37.498  1.00  0.00     0.000 A 
HETATM    9  C24 UNK     1      30.027  -8.869  38.071  1.00  0.00     0.001 A 
HETATM   10  C20 UNK     1      30.531  -7.576  38.213  1.00  0.00     0.013 A 
ENDBRANCH   3   5
BRANCH   2  11
HETATM   11  C3  UNK     1      31.808  -5.240  35.910  1.00  0.00    -0.031 A 
HETATM   12  C4  UNK     1      31.080  -5.358  34.726  1.00  0.00     0.051 A 
HETATM   13  C2  UNK     1      31.650  -5.987  33.618  1.00  0.00     0.104 A 
HETATM   14  C1  UNK     1      32.946  -6.496  33.695  1.00  0.00     0.119 A 
HETATM   15  C6  UNK     1      33.673  -6.378  34.879  1.00  0.00     0.048 A 
HETATM   16 Br1  UNK     1      35.436  -7.060  35.023  1.00  0.00    -0.048 Br
HETATM   17  C7  UNK     1      33.104  -5.749  35.987  1.00  0.00     0.033 A 
BRANCH  13  18
HETATM   18  O2  UNK     1      30.928  -6.095  32.467  1.00  0.00    -0.349 OA
BRANCH  18  19
HETATM   19  C13 UNK     1      29.741  -5.311  32.371  1.00  0.00     0.171 C 
HETATM   20  C21 UNK     1      29.829  -4.431  31.142  1.00  0.00     0.034 C 
ENDBRANCH  18  19
ENDBRANCH  13  18
BRANCH  14  21
HETATM   21  O1  UNK     1      33.485  -7.108  32.601  1.00  0.00    -0.345 OA
BRANCH  21  22
HETATM   22  C5  UNK     1      33.188  -8.490  32.421  1.00  0.00     0.202 C 
BRANCH  22  23
HETATM   23  C8  UNK     1      32.899  -8.748  30.954  1.00  0.00     0.202 C 
BRANCH  23  24
HETATM   24  O3  UNK     1      31.783  -9.623  30.847  1.00  0.00    -0.349 OA
BRANCH  24  25
HETATM   25  C10 UNK     1      30.550  -9.038  30.721  1.00  0.00     0.068 A 
HETATM   26  C15 UNK     1      29.562  -9.281  31.674  1.00  0.00     0.037 A 
HETATM   27  C17 UNK     1      28.308  -8.684  31.546  1.00  0.00     0.009 A 
HETATM   28  C14 UNK     1      28.042  -7.846  30.463  1.00  0.00    -0.062 A 
HETATM   29  C18 UNK     1      29.030  -7.603  29.509  1.00  0.00     0.009 A 
HETATM   30  C22 UNK     1      26.699  -7.210  30.325  1.00  0.00     0.048 C 
HETATM   31  C16 UNK     1      30.285  -8.201  29.638  1.00  0.00     0.037 A 
ENDBRANCH  24  25
ENDBRANCH  23  24
ENDBRANCH  22  23
ENDBRANCH  21  22
ENDBRANCH  14  21
ENDBRANCH   2  11
TORSDOF 9
ENDMDL
MODEL 4
REMARK VINA RESULT:      -6.8      3.026      6.656
REMARK  9 active torsions:
REMARK  status: ('A' for Active; 'I' for Inactive)
REMARK    1  A    between atoms: C1_6  and  O1_2 
REMARK    2  A    between atoms: C5_10  and  O1_2 
REMARK    3  A    between atoms: C13_18  and  O2_3 
REMARK    4  A    between atoms: C2_7  and  O2_3 
REMARK    5  A    between atoms: C10_15  and  O3_4 
REMARK    6  A    between atoms: C8_13  and  O3_4 
REMARK    7  A    between atoms: C3_8  and  C9_14 
REMARK    8  A    between atoms: C5_10  and  C8_13 
REMARK    9  A    between atoms: C11_16  and  C12_17 
ROOT
HETATM    1  N1  UNK     1      35.581  -5.738  36.465  1.00  0.00    -0.191 NA
HETATM    2  C9  UNK     1      32.864  -6.449  34.467  1.00  0.00     0.035 C 
HETATM    3  C11 UNK     1      33.103  -5.987  35.723  1.00  0.00     0.055 C 
HETATM    4  C26 UNK     1      34.479  -5.852  36.125  1.00  0.00     0.100 C 
ENDROOT
BRANCH   3   5
HETATM    5  C12 UNK     1      32.055  -5.620  36.663  1.00  0.00    -0.015 A 
HETATM    6  C19 UNK     1      31.569  -4.313  36.690  1.00  0.00     0.013 A 
HETATM    7  C23 UNK     1      30.565  -3.961  37.592  1.00  0.00     0.001 A 
HETATM    8  C25 UNK     1      30.047  -4.916  38.466  1.00  0.00     0.000 A 
HETATM    9  C24 UNK     1      30.533  -6.223  38.439  1.00  0.00     0.001 A 
HETATM   10  C20 UNK     1      31.537  -6.576  37.537  1.00  0.00     0.013 A 
ENDBRANCH   3   5
BRANCH   2  11
HETATM   11  C3  UNK     1      31.537  -6.678  33.875  1.00  0.00    -0.031 A 
HETATM   12  C4  UNK     1      30.931  -5.676  33.118  1.00  0.00     0.051 A 
HETATM   13  C2  UNK     1      29.672  -5.892  32.556  1.00  0.00     0.104 A 
HETATM   14  C1  UNK     1      29.021  -7.110  32.752  1.00  0.00     0.119 A 
HETATM   15  C6  UNK     1      29.627  -8.112  33.509  1.00  0.00     0.048 A 
HETATM   16 Br1  UNK     1      28.772  -9.778  33.799  1.00  0.00    -0.048 Br
HETATM   17  C7  UNK     1      30.886  -7.895  34.071  1.00  0.00     0.033 A 
BRANCH  13  18
HETATM   18  O2  UNK     1      29.092  -4.904  31.818  1.00  0.00    -0.349 OA
BRANCH  18  19
HETATM   19  C13 UNK     1      29.899  -4.279  30.823  1.00  0.00     0.171 C 
HETATM   20  C21 UNK     1      30.032  -2.807  31.148  1.00  0.00     0.034 C 
ENDBRANCH  18  19
ENDBRANCH  13  18
BRANCH  14  21
HETATM   21  O1  UNK     1      27.790  -7.301  32.194  1.00  0.00    -0.345 OA
BRANCH  21  22
HETATM   22  C5  UNK     1      27.724  -7.338  30.771  1.00  0.00     0.202 C 
BRANCH  22  23
HETATM   23  C8  UNK     1      28.145  -8.714  30.291  1.00  0.00     0.202 C 
BRANCH  23  24
HETATM   24  O3  UNK     1      29.127  -8.570  29.271  1.00  0.00    -0.349 OA
BRANCH  24  25
HETATM   25  C10 UNK     1      30.411  -8.327  29.681  1.00  0.00     0.068 A 
HETATM   26  C15 UNK     1      31.064  -7.163  29.277  1.00  0.00     0.037 A 
HETATM   27  C17 UNK     1      32.371  -6.914  29.695  1.00  0.00     0.009 A 
HETATM   28  C14 UNK     1      33.026  -7.832  30.517  1.00  0.00    -0.062 A 
HETATM   29  C18 UNK     1      32.373  -8.996  30.922  1.00  0.00     0.009 A 
HETATM   30  C22 UNK     1      34.425  -7.567  30.962  1.00  0.00     0.048 C 
HETATM   31  C16 UNK     1      31.065  -9.244  30.503  1.00  0.00     0.037 A 
ENDBRANCH  24  25
ENDBRANCH  23  24
ENDBRANCH  22  23
ENDBRANCH  21  22
ENDBRANCH  14  21
ENDBRANCH   2  11
TORSDOF 9
ENDMDL
MODEL 5
REMARK VINA RESULT:      -6.7      3.067      6.419
REMARK  9 active torsions:
REMARK  status: ('A' for Active; 'I' for Inactive)
REMARK    1  A    between atoms: C1_6  and  O1_2 
REMARK    2  A    between atoms: C5_10  and  O1_2 
REMARK    3  A    between atoms: C13_18  and  O2_3 
REMARK    4  A    between atoms: C2_7  and  O2_3 
REMARK    5  A    between atoms: C10_15  and  O3_4 
REMARK    6  A    between atoms: C8_13  and  O3_4 
REMARK    7  A    between atoms: C3_8  and  C9_14 
REMARK    8  A    between atoms: C5_10  and  C8_13 
REMARK    9  A    between atoms: C11_16  and  C12_17 
ROOT
HETATM    1  N1  UNK     1      29.386  -3.912  39.834  1.00  0.00    -0.191 NA
HETATM    2  C9  UNK     1      30.788  -4.707  36.787  1.00  0.00     0.035 C 
HETATM    3  C11 UNK     1      30.390  -5.351  37.916  1.00  0.00     0.055 C 
HETATM    4  C26 UNK     1      29.835  -4.546  38.973  1.00  0.00     0.100 C 
ENDROOT
BRANCH   3   5
HETATM    5  C12 UNK     1      30.486  -6.790  38.104  1.00  0.00    -0.015 A 
HETATM    6  C19 UNK     1      29.328  -7.556  38.234  1.00  0.00     0.013 A 
HETATM    7  C23 UNK     1      29.422  -8.936  38.414  1.00  0.00     0.001 A 
HETATM    8  C25 UNK     1      30.673  -9.550  38.465  1.00  0.00     0.000 A 
HETATM    9  C24 UNK     1      31.831  -8.784  38.335  1.00  0.00     0.001 A 
HETATM   10  C20 UNK     1      31.739  -7.404  38.154  1.00  0.00     0.013 A 
ENDBRANCH   3   5
BRANCH   2  11
HETATM   11  C3  UNK     1      31.398  -5.341  35.608  1.00  0.00    -0.031 A 
HETATM   12  C4  UNK     1      30.586  -5.903  34.623  1.00  0.00     0.051 A 
HETATM   13  C2  UNK     1      31.163  -6.505  33.505  1.00  0.00     0.104 A 
HETATM   14  C1  UNK     1      32.551  -6.543  33.372  1.00  0.00     0.119 A 
HETATM   15  C6  UNK     1      33.363  -5.981  34.356  1.00  0.00     0.048 A 
HETATM   16 Br1  UNK     1      35.252  -6.015  34.212  1.00  0.00    -0.048 Br
HETATM   17  C7  UNK     1      32.786  -5.379  35.475  1.00  0.00     0.033 A 
BRANCH  13  18
HETATM   18  O2  UNK     1      30.359  -7.051  32.550  1.00  0.00    -0.349 OA
BRANCH  18  19
HETATM   19  C13 UNK     1      29.344  -6.212  32.001  1.00  0.00     0.171 C 
HETATM   20  C21 UNK     1      27.996  -6.868  32.208  1.00  0.00     0.034 C 
ENDBRANCH  18  19
ENDBRANCH  13  18
BRANCH  14  21
HETATM   21  O1  UNK     1      33.096  -7.137  32.270  1.00  0.00    -0.345 OA
BRANCH  21  22
HETATM   22  C5  UNK     1      33.604  -8.458  32.433  1.00  0.00     0.202 C 
BRANCH  22  23
HETATM   23  C8  UNK     1      32.882  -9.388  31.475  1.00  0.00     0.202 C 
BRANCH  23  24
HETATM   24  O3  UNK     1      32.406 -10.518  32.196  1.00  0.00    -0.349 OA
BRANCH  24  25
HETATM   25  C10 UNK     1      31.289 -10.331  32.968  1.00  0.00     0.068 A 
HETATM   26  C15 UNK     1      30.021 -10.424  32.394  1.00  0.00     0.037 A 
HETATM   27  C17 UNK     1      28.884 -10.236  33.180  1.00  0.00     0.009 A 
HETATM   28  C14 UNK     1      29.016  -9.953  34.540  1.00  0.00    -0.062 A 
HETATM   29  C18 UNK     1      30.284  -9.861  35.114  1.00  0.00     0.009 A 
HETATM   30  C22 UNK     1      27.800  -9.750  35.380  1.00  0.00     0.048 C 
HETATM   31  C16 UNK     1      31.421 -10.049  34.327  1.00  0.00     0.037 A 
ENDBRANCH  24  25
ENDBRANCH  23  24
ENDBRANCH  22  23
ENDBRANCH  21  22
ENDBRANCH  14  21
ENDBRANCH   2  11
TORSDOF 9
ENDMDL
MODEL 6
REMARK VINA RESULT:      -6.7      2.784      5.769
REMARK  9 active torsions:
REMARK  status: ('A' for Active; 'I' for Inactive)
REMARK    1  A    between atoms: C1_6  and  O1_2 
REMARK    2  A    between atoms: C5_10  and  O1_2 
REMARK    3  A    between atoms: C13_18  and  O2_3 
REMARK    4  A    between atoms: C2_7  and  O2_3 
REMARK    5  A    between atoms: C10_15  and  O3_4 
REMARK    6  A    between atoms: C8_13  and  O3_4 
REMARK    7  A    between atoms: C3_8  and  C9_14 
REMARK    8  A    between atoms: C5_10  and  C8_13 
REMARK    9  A    between atoms: C11_16  and  C12_17 
ROOT
HETATM    1  N1  UNK     1      29.393  -3.852  39.869  1.00  0.00    -0.191 NA
HETATM    2  C9  UNK     1      29.695  -5.842  37.070  1.00  0.00     0.035 C 
HETATM    3  C11 UNK     1      29.010  -5.846  38.244  1.00  0.00     0.055 C 
HETATM    4  C26 UNK     1      29.228  -4.738  39.138  1.00  0.00     0.100 C 
ENDROOT
BRANCH   3   5
HETATM    5  C12 UNK     1      28.076  -6.891  38.634  1.00  0.00    -0.015 A 
HETATM    6  C19 UNK     1      28.543  -8.043  39.267  1.00  0.00     0.013 A 
HETATM    7  C23 UNK     1      27.647  -9.044  39.640  1.00  0.00     0.001 A 
HETATM    8  C25 UNK     1      26.285  -8.894  39.381  1.00  0.00     0.000 A 
HETATM    9  C24 UNK     1      25.818  -7.742  38.749  1.00  0.00     0.001 A 
HETATM   10  C20 UNK     1      26.713  -6.740  38.375  1.00  0.00     0.013 A 
ENDBRANCH   3   5
BRANCH   2  11
HETATM   11  C3  UNK     1      29.629  -6.887  36.036  1.00  0.00    -0.031 A 
HETATM   12  C4  UNK     1      28.759  -6.744  34.956  1.00  0.00     0.051 A 
HETATM   13  C2  UNK     1      28.696  -7.734  33.976  1.00  0.00     0.104 A 
HETATM   14  C1  UNK     1      29.504  -8.867  34.076  1.00  0.00     0.119 A 
HETATM   15  C6  UNK     1      30.374  -9.010  35.156  1.00  0.00     0.048 A 
HETATM   16 Br1  UNK     1      31.485 -10.536  35.328  1.00  0.00    -0.048 Br
HETATM   17  C7  UNK     1      30.437  -8.020  36.137  1.00  0.00     0.033 A 
BRANCH  13  18
HETATM   18  O2  UNK     1      27.842  -7.581  32.925  1.00  0.00    -0.349 OA
BRANCH  18  19
HETATM   19  C13 UNK     1      27.694  -6.265  32.397  1.00  0.00     0.171 C 
HETATM   20  C21 UNK     1      28.119  -6.266  30.944  1.00  0.00     0.034 C 
ENDBRANCH  18  19
ENDBRANCH  13  18
BRANCH  14  21
HETATM   21  O1  UNK     1      29.428  -9.824  33.107  1.00  0.00    -0.345 OA
BRANCH  21  22
HETATM   22  C5  UNK     1      29.864  -9.457  31.800  1.00  0.00     0.202 C 
BRANCH  22  23
HETATM   23  C8  UNK     1      31.362  -9.222  31.827  1.00  0.00     0.202 C 
BRANCH  23  24
HETATM   24  O3  UNK     1      31.623  -7.857  31.518  1.00  0.00    -0.349 OA
BRANCH  24  25
HETATM   25  C10 UNK     1      32.029  -7.058  32.554  1.00  0.00     0.068 A 
HETATM   26  C15 UNK     1      33.092  -7.453  33.365  1.00  0.00     0.037 A 
HETATM   27  C17 UNK     1      33.507  -6.638  34.418  1.00  0.00     0.009 A 
HETATM   28  C14 UNK     1      32.857  -5.427  34.660  1.00  0.00    -0.062 A 
HETATM   29  C18 UNK     1      31.794  -5.031  33.849  1.00  0.00     0.009 A 
HETATM   30  C22 UNK     1      33.299  -4.557  35.788  1.00  0.00     0.048 C 
HETATM   31  C16 UNK     1      31.380  -5.847  32.795  1.00  0.00     0.037 A 
ENDBRANCH  24  25
ENDBRANCH  23  24
ENDBRANCH  22  23
ENDBRANCH  21  22
ENDBRANCH  14  21
ENDBRANCH   2  11
TORSDOF 9
ENDMDL
MODEL 7
REMARK VINA RESULT:      -6.7      2.340      4.039
REMARK  9 active torsions:
REMARK  status: ('A' for Active; 'I' for Inactive)
REMARK    1  A    between atoms: C1_6  and  O1_2 
REMARK    2  A    between atoms: C5_10  and  O1_2 
REMARK    3  A    between atoms: C13_18  and  O2_3 
REMARK    4  A    between atoms: C2_7  and  O2_3 
REMARK    5  A    between atoms: C10_15  and  O3_4 
REMARK    6  A    between atoms: C8_13  and  O3_4 
REMARK    7  A    between atoms: C3_8  and  C9_14 
REMARK    8  A    between atoms: C5_10  and  C8_13 
REMARK    9  A    between atoms: C11_16  and  C12_17 
ROOT
HETATM    1  N1  UNK     1      31.897  -9.660  28.835  1.00  0.00    -0.191 NA
HETATM    2  C9  UNK     1      31.686  -8.072  31.887  1.00  0.00     0.035 C 
HETATM    3  C11 UNK     1      30.910  -8.254  30.785  1.00  0.00     0.055 C 
HETATM    4  C26 UNK     1      31.465  -9.034  29.710  1.00  0.00     0.100 C 
ENDROOT
BRANCH   3   5
HETATM    5  C12 UNK     1      29.566  -7.716  30.644  1.00  0.00    -0.015 A 
HETATM    6  C19 UNK     1      29.377  -6.345  30.468  1.00  0.00     0.013 A 
HETATM    7  C23 UNK     1      28.089  -5.831  30.333  1.00  0.00     0.001 A 
HETATM    8  C25 UNK     1      26.987  -6.686  30.373  1.00  0.00     0.000 A 
HETATM    9  C24 UNK     1      27.176  -8.057  30.549  1.00  0.00     0.001 A 
HETATM   10  C20 UNK     1      28.465  -8.573  30.684  1.00  0.00     0.013 A 
ENDBRANCH   3   5
BRANCH   2  11
HETATM   11  C3  UNK     1      31.314  -7.293  33.078  1.00  0.00    -0.031 A 
HETATM   12  C4  UNK     1      32.111  -6.225  33.487  1.00  0.00     0.051 A 
HETATM   13  C2  UNK     1      31.760  -5.486  34.617  1.00  0.00     0.104 A 
HETATM   14  C1  UNK     1      30.611  -5.816  35.337  1.00  0.00     0.119 A 
HETATM   15  C6  UNK     1      29.814  -6.885  34.928  1.00  0.00     0.048 A 
HETATM   16 Br1  UNK     1      28.249  -7.365  35.882  1.00  0.00    -0.048 Br
HETATM   17  C7  UNK     1      30.166  -7.624  33.798  1.00  0.00     0.033 A 
BRANCH  13  18
HETATM   18  O2  UNK     1      32.547  -4.444  35.005  1.00  0.00    -0.349 OA
BRANCH  18  19
HETATM   19  C13 UNK     1      33.926  -4.505  34.647  1.00  0.00     0.171 C 
HETATM   20  C21 UNK     1      34.712  -5.082  35.804  1.00  0.00     0.034 C 
ENDBRANCH  18  19
ENDBRANCH  13  18
BRANCH  14  21
HETATM   21  O1  UNK     1      30.285  -5.081  36.440  1.00  0.00    -0.345 OA
BRANCH  21  22
HETATM   22  C5  UNK     1      30.370  -5.736  37.702  1.00  0.00     0.202 C 
BRANCH  22  23
HETATM   23  C8  UNK     1      31.830  -5.884  38.086  1.00  0.00     0.202 C 
BRANCH  23  24
HETATM   24  O3  UNK     1      32.057  -7.211  38.547  1.00  0.00    -0.349 OA
BRANCH  24  25
HETATM   25  C10 UNK     1      31.990  -8.209  37.611  1.00  0.00     0.068 A 
HETATM   26  C15 UNK     1      31.007  -9.194  37.711  1.00  0.00     0.037 A 
HETATM   27  C17 UNK     1      30.936 -10.209  36.758  1.00  0.00     0.009 A 
HETATM   28  C14 UNK     1      31.852 -10.241  35.705  1.00  0.00    -0.062 A 
HETATM   29  C18 UNK     1      32.835  -9.257  35.605  1.00  0.00     0.009 A 
HETATM   30  C22 UNK     1      31.778 -11.329  34.687  1.00  0.00     0.048 C 
HETATM   31  C16 UNK     1      32.904  -8.241  36.559  1.00  0.00     0.037 A 
ENDBRANCH  24  25
ENDBRANCH  23  24
ENDBRANCH  22  23
ENDBRANCH  21  22
ENDBRANCH  14  21
ENDBRANCH   2  11
TORSDOF 9
ENDMDL
MODEL 8
REMARK VINA RESULT:      -6.7      2.912      6.878
REMARK  9 active torsions:
REMARK  status: ('A' for Active; 'I' for Inactive)
REMARK    1  A    between atoms: C1_6  and  O1_2 
REMARK    2  A    between atoms: C5_10  and  O1_2 
REMARK    3  A    between atoms: C13_18  and  O2_3 
REMARK    4  A    between atoms: C2_7  and  O2_3 
REMARK    5  A    between atoms: C10_15  and  O3_4 
REMARK    6  A    between atoms: C8_13  and  O3_4 
REMARK    7  A    between atoms: C3_8  and  C9_14 
REMARK    8  A    between atoms: C5_10  and  C8_13 
REMARK    9  A    between atoms: C11_16  and  C12_17 
ROOT
HETATM    1  N1  UNK     1      29.503  -3.604  39.904  1.00  0.00    -0.191 NA
HETATM    2  C9  UNK     1      30.697  -5.059  37.016  1.00  0.00     0.035 C 
HETATM    3  C11 UNK     1      30.002  -5.432  38.124  1.00  0.00     0.055 C 
HETATM    4  C26 UNK     1      29.730  -4.413  39.104  1.00  0.00     0.100 C 
ENDROOT
BRANCH   3   5
HETATM    5  C12 UNK     1      29.520  -6.783  38.361  1.00  0.00    -0.015 A 
HETATM    6  C19 UNK     1      28.171  -7.005  38.638  1.00  0.00     0.013 A 
HETATM    7  C23 UNK     1      27.711  -8.301  38.865  1.00  0.00     0.001 A 
HETATM    8  C25 UNK     1      28.598  -9.376  38.816  1.00  0.00     0.000 A 
HETATM    9  C24 UNK     1      29.946  -9.155  38.538  1.00  0.00     0.001 A 
HETATM   10  C20 UNK     1      30.409  -7.859  38.311  1.00  0.00     0.013 A 
ENDBRANCH   3   5
BRANCH   2  11
HETATM   11  C3  UNK     1      31.094  -5.948  35.913  1.00  0.00    -0.031 A 
HETATM   12  C4  UNK     1      30.131  -6.429  35.027  1.00  0.00     0.051 A 
HETATM   13  C2  UNK     1      30.506  -7.273  33.981  1.00  0.00     0.104 A 
HETATM   14  C1  UNK     1      31.844  -7.635  33.823  1.00  0.00     0.119 A 
HETATM   15  C6  UNK     1      32.807  -7.154  34.710  1.00  0.00     0.048 A 
HETATM   16 Br1  UNK     1      34.633  -7.626  34.529  1.00  0.00    -0.048 Br
HETATM   17  C7  UNK     1      32.431  -6.311  35.756  1.00  0.00     0.033 A 
BRANCH  13  18
HETATM   18  O2  UNK     1      29.555  -7.735  33.121  1.00  0.00    -0.349 OA
BRANCH  18  19
HETATM   19  C13 UNK     1      28.595  -8.648  33.647  1.00  0.00     0.171 C 
HETATM   20  C21 UNK     1      28.959 -10.052  33.212  1.00  0.00     0.034 C 
ENDBRANCH  18  19
ENDBRANCH  13  18
BRANCH  14  21
HETATM   21  O1  UNK     1      32.191  -8.461  32.793  1.00  0.00    -0.345 OA
BRANCH  21  22
HETATM   22  C5  UNK     1      32.674  -7.844  31.603  1.00  0.00     0.202 C 
BRANCH  22  23
HETATM   23  C8  UNK     1      32.128  -8.590  30.401  1.00  0.00     0.202 C 
BRANCH  23  24
HETATM   24  O3  UNK     1      31.469  -7.668  29.542  1.00  0.00    -0.349 OA
BRANCH  24  25
HETATM   25  C10 UNK     1      30.139  -7.443  29.782  1.00  0.00     0.068 A 
HETATM   26  C15 UNK     1      29.699  -6.166  30.131  1.00  0.00     0.037 A 
HETATM   27  C17 UNK     1      28.345  -5.936  30.373  1.00  0.00     0.009 A 
HETATM   28  C14 UNK     1      27.430  -6.985  30.268  1.00  0.00    -0.062 A 
HETATM   29  C18 UNK     1      27.870  -8.262  29.919  1.00  0.00     0.009 A 
HETATM   30  C22 UNK     1      25.983  -6.740  30.531  1.00  0.00     0.048 C 
HETATM   31  C16 UNK     1      29.225  -8.491  29.676  1.00  0.00     0.037 A 
ENDBRANCH  24  25
ENDBRANCH  23  24
ENDBRANCH  22  23
ENDBRANCH  21  22
ENDBRANCH  14  21
ENDBRANCH   2  11
TORSDOF 9
ENDMDL
MODEL 9
REMARK VINA RESULT:      -6.7      2.527      3.488
REMARK  9 active torsions:
REMARK  status: ('A' for Active; 'I' for Inactive)
REMARK    1  A    between atoms: C1_6  and  O1_2 
REMARK    2  A    between atoms: C5_10  and  O1_2 
REMARK    3  A    between atoms: C13_18  and  O2_3 
REMARK    4  A    between atoms: C2_7  and  O2_3 
REMARK    5  A    between atoms: C10_15  and  O3_4 
REMARK    6  A    between atoms: C8_13  and  O3_4 
REMARK    7  A    between atoms: C3_8  and  C9_14 
REMARK    8  A    between atoms: C5_10  and  C8_13 
REMARK    9  A    between atoms: C11_16  and  C12_17 
ROOT
HETATM    1  N1  UNK     1      30.101 -10.755  29.731  1.00  0.00    -0.191 NA
HETATM    2  C9  UNK     1      29.754 -10.324  33.134  1.00  0.00     0.035 C 
HETATM    3  C11 UNK     1      29.710  -9.563  32.008  1.00  0.00     0.055 C 
HETATM    4  C26 UNK     1      29.928 -10.232  30.752  1.00  0.00     0.100 C 
ENDROOT
BRANCH   3   5
HETATM    5  C12 UNK     1      29.451  -8.132  32.009  1.00  0.00    -0.015 A 
HETATM    6  C19 UNK     1      30.488  -7.235  31.750  1.00  0.00     0.013 A 
HETATM    7  C23 UNK     1      30.238  -5.863  31.751  1.00  0.00     0.001 A 
HETATM    8  C25 UNK     1      28.953  -5.387  32.010  1.00  0.00     0.000 A 
HETATM    9  C24 UNK     1      27.917  -6.284  32.268  1.00  0.00     0.001 A 
HETATM   10  C20 UNK     1      28.165  -7.656  32.268  1.00  0.00     0.013 A 
ENDBRANCH   3   5
BRANCH   2  11
HETATM   11  C3  UNK     1      29.580  -9.832  34.509  1.00  0.00    -0.031 A 
HETATM   12  C4  UNK     1      28.299  -9.703  35.046  1.00  0.00     0.051 A 
HETATM   13  C2  UNK     1      28.134  -9.236  36.350  1.00  0.00     0.104 A 
HETATM   14  C1  UNK     1      29.249  -8.899  37.117  1.00  0.00     0.119 A 
HETATM   15  C6  UNK     1      30.530  -9.028  36.580  1.00  0.00     0.048 A 
HETATM   16 Br1  UNK     1      32.069  -8.577  37.590  1.00  0.00    -0.048 Br
HETATM   17  C7  UNK     1      30.696  -9.495  35.276  1.00  0.00     0.033 A 
BRANCH  13  18
HETATM   18  O2  UNK     1      26.877  -9.116  36.862  1.00  0.00    -0.349 OA
BRANCH  18  19
HETATM   19  C13 UNK     1      26.311 -10.275  37.469  1.00  0.00     0.171 C 
HETATM   20  C21 UNK     1      25.690 -11.142  36.394  1.00  0.00     0.034 C 
ENDBRANCH  18  19
ENDBRANCH  13  18
BRANCH  14  21
HETATM   21  O1  UNK     1      29.066  -8.444  38.390  1.00  0.00    -0.345 OA
BRANCH  21  22
HETATM   22  C5  UNK     1      28.395  -7.196  38.540  1.00  0.00     0.202 C 
BRANCH  22  23
HETATM   23  C8  UNK     1      29.426  -6.091  38.668  1.00  0.00     0.202 C 
BRANCH  23  24
HETATM   24  O3  UNK     1      29.436  -5.323  37.470  1.00  0.00    -0.349 OA
BRANCH  24  25
HETATM   25  C10 UNK     1      30.626  -5.245  36.797  1.00  0.00     0.068 A 
HETATM   26  C15 UNK     1      30.704  -5.665  35.469  1.00  0.00     0.037 A 
HETATM   27  C17 UNK     1      31.916  -5.584  34.782  1.00  0.00     0.009 A 
HETATM   28  C14 UNK     1      33.050  -5.085  35.425  1.00  0.00    -0.062 A 
HETATM   29  C18 UNK     1      32.971  -4.666  36.753  1.00  0.00     0.009 A 
HETATM   30  C22 UNK     1      34.345  -5.001  34.691  1.00  0.00     0.048 C 
HETATM   31  C16 UNK     1      31.759  -4.746  37.439  1.00  0.00     0.037 A 
ENDBRANCH  24  25
ENDBRANCH  23  24
ENDBRANCH  22  23
ENDBRANCH  21  22
ENDBRANCH  14  21
ENDBRANCH   2  11
TORSDOF 9
ENDMDL
MODEL 10
REMARK VINA RESULT:      -6.6      2.433      4.398
REMARK  9 active torsions:
REMARK  status: ('A' for Active; 'I' for Inactive)
REMARK    1  A    between atoms: C1_6  and  O1_2 
REMARK    2  A    between atoms: C5_10  and  O1_2 
REMARK    3  A    between atoms: C13_18  and  O2_3 
REMARK    4  A    between atoms: C2_7  and  O2_3 
REMARK    5  A    between atoms: C10_15  and  O3_4 
REMARK    6  A    between atoms: C8_13  and  O3_4 
REMARK    7  A    between atoms: C3_8  and  C9_14 
REMARK    8  A    between atoms: C5_10  and  C8_13 
REMARK    9  A    between atoms: C11_16  and  C12_17 
ROOT
HETATM    1  N1  UNK     1      31.056  -9.720  27.382  1.00  0.00    -0.191 NA
HETATM    2  C9  UNK     1      31.799  -8.749  30.605  1.00  0.00     0.035 C 
HETATM    3  C11 UNK     1      30.765  -8.640  29.729  1.00  0.00     0.055 C 
HETATM    4  C26 UNK     1      30.935  -9.241  28.431  1.00  0.00     0.100 C 
ENDROOT
BRANCH   3   5
HETATM    5  C12 UNK     1      29.514  -7.965  30.033  1.00  0.00    -0.015 A 
HETATM    6  C19 UNK     1      29.475  -6.573  30.123  1.00  0.00     0.013 A 
HETATM    7  C23 UNK     1      28.275  -5.927  30.415  1.00  0.00     0.001 A 
HETATM    8  C25 UNK     1      27.112  -6.671  30.618  1.00  0.00     0.000 A 
HETATM    9  C24 UNK     1      27.151  -8.063  30.528  1.00  0.00     0.001 A 
HETATM   10  C20 UNK     1      28.351  -8.710  30.236  1.00  0.00     0.013 A 
ENDBRANCH   3   5
BRANCH   2  11
HETATM   11  C3  UNK     1      31.833  -8.189  31.965  1.00  0.00    -0.031 A 
HETATM   12  C4  UNK     1      30.825  -8.507  32.874  1.00  0.00     0.051 A 
HETATM   13  C2  UNK     1      30.857  -7.976  34.164  1.00  0.00     0.104 A 
HETATM   14  C1  UNK     1      31.897  -7.127  34.543  1.00  0.00     0.119 A 
HETATM   15  C6  UNK     1      32.905  -6.809  33.633  1.00  0.00     0.048 A 
HETATM   16 Br1  UNK     1      34.332  -5.657  34.111  1.00  0.00    -0.048 Br
HETATM   17  C7  UNK     1      32.873  -7.340  32.344  1.00  0.00     0.033 A 
BRANCH  13  18
HETATM   18  O2  UNK     1      29.866  -8.296  35.042  1.00  0.00    -0.349 OA
BRANCH  18  19
HETATM   19  C13 UNK     1      29.264  -9.581  34.901  1.00  0.00     0.171 C 
HETATM   20  C21 UNK     1      27.850  -9.525  35.439  1.00  0.00     0.034 C 
ENDBRANCH  18  19
ENDBRANCH  13  18
BRANCH  14  21
HETATM   21  O1  UNK     1      31.909  -6.618  35.809  1.00  0.00    -0.345 OA
BRANCH  21  22
HETATM   22  C5  UNK     1      31.368  -5.311  35.985  1.00  0.00     0.202 C 
BRANCH  22  23
HETATM   23  C8  UNK     1      30.220  -5.380  36.974  1.00  0.00     0.202 C 
BRANCH  23  24
HETATM   24  O3  UNK     1      30.618  -6.162  38.094  1.00  0.00    -0.349 OA
BRANCH  24  25
HETATM   25  C10 UNK     1      29.760  -7.152  38.493  1.00  0.00     0.068 A 
HETATM   26  C15 UNK     1      28.527  -6.822  39.055  1.00  0.00     0.037 A 
HETATM   27  C17 UNK     1      27.652  -7.830  39.458  1.00  0.00     0.009 A 
HETATM   28  C14 UNK     1      28.011  -9.170  39.301  1.00  0.00    -0.062 A 
HETATM   29  C18 UNK     1      29.244  -9.500  38.739  1.00  0.00     0.009 A 
HETATM   30  C22 UNK     1      27.076 -10.247  39.735  1.00  0.00     0.048 C 
HETATM   31  C16 UNK     1      30.119  -8.491  38.335  1.00  0.00     0.037 A 
ENDBRANCH  24  25
ENDBRANCH  23  24
ENDBRANCH  22  23
ENDBRANCH  21  22
ENDBRANCH  14  21
ENDBRANCH   2  11
TORSDOF 9
ENDMDL
