MODEL 1
REMARK VINA RESULT:      -9.2      0.000      0.000
REMARK  2 active torsions:
REMARK  status: ('A' for Active; 'I' for Inactive)
REMARK    1  A    between atoms: C8_13  and  O3_4 
REMARK    2  A    between atoms: C1_6  and  C2_7 
ROOT
HETATM    1 Cl1  UNK     1      14.541  11.468   9.402  1.00  0.00    -0.084 Cl
HETATM    2  O2  UNK     1      16.316   5.888  10.071  1.00  0.00    -0.275 OA
HETATM    3  O4  UNK     1      15.925   3.643   9.893  1.00  0.00    -0.260 OA
HETATM    4  C1  UNK     1      13.713   6.320   9.017  1.00  0.00     0.017 A 
HETATM    5  C4  UNK     1      14.579   7.455   9.380  1.00  0.00     0.013 A 
HETATM    6  C7  UNK     1      15.850   7.204   9.894  1.00  0.00     0.090 A 
HETATM    7  C9  UNK     1      14.190   5.077   9.201  1.00  0.00     0.097 A 
HETATM    8  C11 UNK     1      14.184   8.791   9.232  1.00  0.00     0.039 A 
HETATM    9  C13 UNK     1      16.721   8.232  10.258  1.00  0.00     0.040 A 
HETATM   10  C15 UNK     1      15.531   4.794   9.743  1.00  0.00     0.289 A 
HETATM   11  C16 UNK     1      15.046   9.833   9.592  1.00  0.00     0.035 A 
HETATM   12  C17 UNK     1      16.313   9.554  10.104  1.00  0.00     0.026 A 
ENDROOT
BRANCH   4  13
HETATM   13  C2  UNK     1      12.408   6.417   8.488  1.00  0.00     0.088 A 
HETATM   14  C6  UNK     1      12.007   6.139   7.200  1.00  0.00     0.052 A 
HETATM   15  C3  UNK     1      10.610   6.384   7.152  1.00  0.00     0.003 A 
HETATM   16  C10 UNK     1       9.607   6.302   6.170  1.00  0.00     0.014 A 
HETATM   17  C5  UNK     1      10.254   6.799   8.431  1.00  0.00     0.119 A 
HETATM   18  C14 UNK     1       8.292   6.640   6.520  1.00  0.00     0.004 A 
HETATM   19  C12 UNK     1       7.976   7.053   7.817  1.00  0.00     0.040 A 
HETATM   20  C8  UNK     1       8.957   7.143   8.810  1.00  0.00     0.102 A 
HETATM   21  O1  UNK     1      11.349   6.818   9.242  1.00  0.00    -0.306 OA
BRANCH  20  22
HETATM   22  O3  UNK     1       8.645   7.545  10.074  1.00  0.00    -0.353 OA
HETATM   23  C18 UNK     1       8.411   8.938  10.269  1.00  0.00     0.210 C 
ENDBRANCH  20  22
ENDBRANCH   4  13
TORSDOF 2
ENDMDL
MODEL 2
REMARK VINA RESULT:      -9.1     24.326     26.450
REMARK  2 active torsions:
REMARK  status: ('A' for Active; 'I' for Inactive)
REMARK    1  A    between atoms: C8_13  and  O3_4 
REMARK    2  A    between atoms: C1_6  and  C2_7 
ROOT
HETATM    1 Cl1  UNK     1      21.000  -3.579  31.422  1.00  0.00    -0.084 Cl
HETATM    2  O2  UNK     1      19.306   1.626  29.236  1.00  0.00    -0.275 OA
HETATM    3  O4  UNK     1      18.349   3.682  29.516  1.00  0.00    -0.260 OA
HETATM    4  C1  UNK     1      18.825   1.140  31.995  1.00  0.00     0.017 A 
HETATM    5  C4  UNK     1      19.474   0.123  31.150  1.00  0.00     0.013 A 
HETATM    6  C7  UNK     1      19.694   0.396  29.801  1.00  0.00     0.090 A 
HETATM    7  C9  UNK     1      18.467   2.303  31.421  1.00  0.00     0.097 A 
HETATM    8  C11 UNK     1      19.887  -1.123  31.642  1.00  0.00     0.039 A 
HETATM    9  C13 UNK     1      20.304  -0.523  28.946  1.00  0.00     0.040 A 
HETATM   10  C15 UNK     1      18.692   2.608  29.997  1.00  0.00     0.289 A 
HETATM   11  C16 UNK     1      20.500  -2.055  30.797  1.00  0.00     0.035 A 
HETATM   12  C17 UNK     1      20.708  -1.755  29.451  1.00  0.00     0.026 A 
ENDROOT
BRANCH   4  13
HETATM   13  C2  UNK     1      18.537   1.008  33.370  1.00  0.00     0.088 A 
HETATM   14  C6  UNK     1      18.070   1.983  34.222  1.00  0.00     0.052 A 
HETATM   15  C3  UNK     1      17.936   1.374  35.497  1.00  0.00     0.003 A 
HETATM   16  C10 UNK     1      17.523   1.792  36.774  1.00  0.00     0.014 A 
HETATM   17  C5  UNK     1      18.338   0.053  35.329  1.00  0.00     0.119 A 
HETATM   18  C14 UNK     1      17.530   0.861  37.822  1.00  0.00     0.004 A 
HETATM   19  C12 UNK     1      17.942  -0.458  37.612  1.00  0.00     0.040 A 
HETATM   20  C8  UNK     1      18.359  -0.895  36.351  1.00  0.00     0.102 A 
HETATM   21  O1  UNK     1      18.703  -0.167  34.034  1.00  0.00    -0.306 OA
BRANCH  20  22
HETATM   22  O3  UNK     1      18.759  -2.182  36.148  1.00  0.00    -0.353 OA
HETATM   23  C18 UNK     1      20.136  -2.474  36.374  1.00  0.00     0.210 C 
ENDBRANCH  20  22
ENDBRANCH   4  13
TORSDOF 2
ENDMDL
MODEL 3
REMARK VINA RESULT:      -9.0     25.265     27.272
REMARK  2 active torsions:
REMARK  status: ('A' for Active; 'I' for Inactive)
REMARK    1  A    between atoms: C8_13  and  O3_4 
REMARK    2  A    between atoms: C1_6  and  C2_7 
ROOT
HETATM    1 Cl1  UNK     1      17.167   2.074  36.293  1.00  0.00    -0.084 Cl
HETATM    2  O2  UNK     1      19.507  -3.261  37.190  1.00  0.00    -0.275 OA
HETATM    3  O4  UNK     1      20.598  -5.110  36.406  1.00  0.00    -0.260 OA
HETATM    4  C1  UNK     1      19.663  -2.183  34.565  1.00  0.00     0.017 A 
HETATM    5  C4  UNK     1      19.019  -1.429  35.655  1.00  0.00     0.013 A 
HETATM    6  C7  UNK     1      18.961  -1.990  36.930  1.00  0.00     0.090 A 
HETATM    7  C9  UNK     1      20.172  -3.394  34.850  1.00  0.00     0.097 A 
HETATM    8  C11 UNK     1      18.454  -0.159  35.471  1.00  0.00     0.039 A 
HETATM    9  C13 UNK     1      18.367  -1.330  38.006  1.00  0.00     0.040 A 
HETATM   10  C15 UNK     1      20.119  -4.002  36.192  1.00  0.00     0.289 A 
HETATM   11  C16 UNK     1      17.854   0.515  36.540  1.00  0.00     0.035 A 
HETATM   12  C17 UNK     1      17.811  -0.069  37.806  1.00  0.00     0.026 A 
ENDROOT
BRANCH   4  13
HETATM   13  C2  UNK     1      19.796  -1.748  33.230  1.00  0.00     0.088 A 
HETATM   14  C6  UNK     1      20.438  -2.399  32.200  1.00  0.00     0.052 A 
HETATM   15  C3  UNK     1      20.304  -1.572  31.054  1.00  0.00     0.003 A 
HETATM   16  C10 UNK     1      20.715  -1.638  29.711  1.00  0.00     0.014 A 
HETATM   17  C5  UNK     1      19.581  -0.460  31.473  1.00  0.00     0.119 A 
HETATM   18  C14 UNK     1      20.377  -0.584  28.851  1.00  0.00     0.004 A 
HETATM   19  C12 UNK     1      19.650   0.517  29.312  1.00  0.00     0.040 A 
HETATM   20  C8  UNK     1      19.232   0.605  30.644  1.00  0.00     0.102 A 
HETATM   21  O1  UNK     1      19.273  -0.569  32.797  1.00  0.00    -0.306 OA
BRANCH  20  22
HETATM   22  O3  UNK     1      18.522   1.679  31.089  1.00  0.00    -0.353 OA
HETATM   23  C18 UNK     1      18.405   2.789  30.202  1.00  0.00     0.210 C 
ENDBRANCH  20  22
ENDBRANCH   4  13
TORSDOF 2
ENDMDL
MODEL 4
REMARK VINA RESULT:      -9.0     23.432     25.239
REMARK  2 active torsions:
REMARK  status: ('A' for Active; 'I' for Inactive)
REMARK    1  A    between atoms: C8_13  and  O3_4 
REMARK    2  A    between atoms: C1_6  and  C2_7 
ROOT
HETATM    1 Cl1  UNK     1      17.837   1.487  37.265  1.00  0.00    -0.084 Cl
HETATM    2  O2  UNK     1      18.726   0.539  31.516  1.00  0.00    -0.275 OA
HETATM    3  O4  UNK     1      18.924   1.326  29.380  1.00  0.00    -0.260 OA
HETATM    4  C1  UNK     1      18.304   3.221  32.355  1.00  0.00     0.017 A 
HETATM    5  C4  UNK     1      18.298   2.115  33.329  1.00  0.00     0.013 A 
HETATM    6  C7  UNK     1      18.509   0.812  32.880  1.00  0.00     0.090 A 
HETATM    7  C9  UNK     1      18.512   2.923  31.061  1.00  0.00     0.097 A 
HETATM    8  C11 UNK     1      18.089   2.310  34.701  1.00  0.00     0.039 A 
HETATM    9  C13 UNK     1      18.517  -0.280  33.748  1.00  0.00     0.040 A 
HETATM   10  C15 UNK     1      18.736   1.551  30.570  1.00  0.00     0.289 A 
HETATM   11  C16 UNK     1      18.094   1.225  35.583  1.00  0.00     0.035 A 
HETATM   12  C17 UNK     1      18.308  -0.069  35.108  1.00  0.00     0.026 A 
ENDROOT
BRANCH   4  13
HETATM   13  C2  UNK     1      18.105   4.585  32.658  1.00  0.00     0.088 A 
HETATM   14  C6  UNK     1      18.882   5.381  33.470  1.00  0.00     0.052 A 
HETATM   15  C3  UNK     1      18.284   6.669  33.463  1.00  0.00     0.003 A 
HETATM   16  C10 UNK     1      18.560   7.909  34.064  1.00  0.00     0.014 A 
HETATM   17  C5  UNK     1      17.170   6.564  32.637  1.00  0.00     0.119 A 
HETATM   18  C14 UNK     1      17.702   8.988  33.805  1.00  0.00     0.004 A 
HETATM   19  C12 UNK     1      16.592   8.841  32.969  1.00  0.00     0.040 A 
HETATM   20  C8  UNK     1      16.298   7.616  32.361  1.00  0.00     0.102 A 
HETATM   21  O1  UNK     1      17.063   5.295  32.149  1.00  0.00    -0.306 OA
BRANCH  20  22
HETATM   22  O3  UNK     1      15.215   7.476  31.546  1.00  0.00    -0.353 OA
HETATM   23  C18 UNK     1      13.966   7.195  32.173  1.00  0.00     0.210 C 
ENDBRANCH  20  22
ENDBRANCH   4  13
TORSDOF 2
ENDMDL
MODEL 5
REMARK VINA RESULT:      -8.6     24.427     26.394
REMARK  2 active torsions:
REMARK  status: ('A' for Active; 'I' for Inactive)
REMARK    1  A    between atoms: C8_13  and  O3_4 
REMARK    2  A    between atoms: C1_6  and  C2_7 
ROOT
HETATM    1 Cl1  UNK     1      18.231   2.300  29.042  1.00  0.00    -0.084 Cl
HETATM    2  O2  UNK     1      20.995  -2.594  30.817  1.00  0.00    -0.275 OA
HETATM    3  O4  UNK     1      21.462  -4.135  32.438  1.00  0.00    -0.260 OA
HETATM    4  C1  UNK     1      19.340  -1.262  32.704  1.00  0.00     0.017 A 
HETATM    5  C4  UNK     1      19.495  -0.741  31.336  1.00  0.00     0.013 A 
HETATM    6  C7  UNK     1      20.316  -1.421  30.437  1.00  0.00     0.090 A 
HETATM    7  C9  UNK     1      20.004  -2.384  33.033  1.00  0.00     0.097 A 
HETATM    8  C11 UNK     1      18.851   0.420  30.886  1.00  0.00     0.039 A 
HETATM    9  C13 UNK     1      20.507  -0.982  29.126  1.00  0.00     0.040 A 
HETATM   10  C15 UNK     1      20.876  -3.115  32.095  1.00  0.00     0.289 A 
HETATM   11  C16 UNK     1      19.033   0.873  29.575  1.00  0.00     0.035 A 
HETATM   12  C17 UNK     1      19.859   0.173  28.696  1.00  0.00     0.026 A 
ENDROOT
BRANCH   4  13
HETATM   13  C2  UNK     1      18.548  -0.686  33.720  1.00  0.00     0.088 A 
HETATM   14  C6  UNK     1      17.205  -0.890  33.948  1.00  0.00     0.052 A 
HETATM   15  C3  UNK     1      16.862  -0.097  35.074  1.00  0.00     0.003 A 
HETATM   16  C10 UNK     1      15.691   0.153  35.811  1.00  0.00     0.014 A 
HETATM   17  C5  UNK     1      18.037   0.543  35.458  1.00  0.00     0.119 A 
HETATM   18  C14 UNK     1      15.756   1.033  36.901  1.00  0.00     0.004 A 
HETATM   19  C12 UNK     1      16.956   1.657  37.253  1.00  0.00     0.040 A 
HETATM   20  C8  UNK     1      18.133   1.424  36.533  1.00  0.00     0.102 A 
HETATM   21  O1  UNK     1      19.060   0.183  34.632  1.00  0.00    -0.306 OA
BRANCH  20  22
HETATM   22  O3  UNK     1      19.302   2.033  36.880  1.00  0.00    -0.353 OA
HETATM   23  C18 UNK     1      19.765   3.076  36.025  1.00  0.00     0.210 C 
ENDBRANCH  20  22
ENDBRANCH   4  13
TORSDOF 2
ENDMDL
MODEL 6
REMARK VINA RESULT:      -8.4     24.303     26.292
REMARK  2 active torsions:
REMARK  status: ('A' for Active; 'I' for Inactive)
REMARK    1  A    between atoms: C8_13  and  O3_4 
REMARK    2  A    between atoms: C1_6  and  C2_7 
ROOT
HETATM    1 Cl1  UNK     1      18.372   7.523  34.587  1.00  0.00    -0.084 Cl
HETATM    2  O2  UNK     1      18.729   3.880  29.968  1.00  0.00    -0.275 OA
HETATM    3  O4  UNK     1      18.750   1.764  29.103  1.00  0.00    -0.260 OA
HETATM    4  C1  UNK     1      18.424   2.712  32.541  1.00  0.00     0.017 A 
HETATM    5  C4  UNK     1      18.490   4.175  32.378  1.00  0.00     0.013 A 
HETATM    6  C7  UNK     1      18.640   4.711  31.100  1.00  0.00     0.090 A 
HETATM    7  C9  UNK     1      18.514   1.949  31.439  1.00  0.00     0.097 A 
HETATM    8  C11 UNK     1      18.408   5.065  33.457  1.00  0.00     0.039 A 
HETATM    9  C13 UNK     1      18.708   6.087  30.875  1.00  0.00     0.040 A 
HETATM   10  C15 UNK     1      18.673   2.500  30.080  1.00  0.00     0.289 A 
HETATM   11  C16 UNK     1      18.475   6.447  33.248  1.00  0.00     0.035 A 
HETATM   12  C17 UNK     1      18.625   6.957  31.958  1.00  0.00     0.026 A 
ENDROOT
BRANCH   4  13
HETATM   13  C2  UNK     1      18.275   2.026  33.766  1.00  0.00     0.088 A 
HETATM   14  C6  UNK     1      17.698   2.500  34.923  1.00  0.00     0.052 A 
HETATM   15  C3  UNK     1      17.783   1.451  35.875  1.00  0.00     0.003 A 
HETATM   16  C10 UNK     1      17.398   1.274  37.215  1.00  0.00     0.014 A 
HETATM   17  C5  UNK     1      18.416   0.398  35.221  1.00  0.00     0.119 A 
HETATM   18  C14 UNK     1      17.666   0.046  37.836  1.00  0.00     0.004 A 
HETATM   19  C12 UNK     1      18.305  -0.987  37.144  1.00  0.00     0.040 A 
HETATM   20  C8  UNK     1      18.698  -0.833  35.811  1.00  0.00     0.102 A 
HETATM   21  O1  UNK     1      18.714   0.751  33.939  1.00  0.00    -0.306 OA
BRANCH  20  22
HETATM   22  O3  UNK     1      19.319  -1.843  35.139  1.00  0.00    -0.353 OA
HETATM   23  C18 UNK     1      20.557  -2.308  35.673  1.00  0.00     0.210 C 
ENDBRANCH  20  22
ENDBRANCH   4  13
TORSDOF 2
ENDMDL
MODEL 7
REMARK VINA RESULT:      -8.2     23.243     25.166
REMARK  2 active torsions:
REMARK  status: ('A' for Active; 'I' for Inactive)
REMARK    1  A    between atoms: C8_13  and  O3_4 
REMARK    2  A    between atoms: C1_6  and  C2_7 
ROOT
HETATM    1 Cl1  UNK     1      20.891  -0.505  28.781  1.00  0.00    -0.084 Cl
HETATM    2  O2  UNK     1      18.451  -1.243  34.096  1.00  0.00    -0.275 OA
HETATM    3  O4  UNK     1      17.366  -0.394  35.919  1.00  0.00    -0.260 OA
HETATM    4  C1  UNK     1      18.408   1.372  32.982  1.00  0.00     0.017 A 
HETATM    5  C4  UNK     1      19.020   0.249  32.251  1.00  0.00     0.013 A 
HETATM    6  C7  UNK     1      19.022  -1.020  32.829  1.00  0.00     0.090 A 
HETATM    7  C9  UNK     1      17.872   1.122  34.190  1.00  0.00     0.097 A 
HETATM    8  C11 UNK     1      19.607   0.394  30.987  1.00  0.00     0.039 A 
HETATM    9  C13 UNK     1      19.584  -2.126  32.190  1.00  0.00     0.040 A 
HETATM   10  C15 UNK     1      17.867  -0.213  34.815  1.00  0.00     0.289 A 
HETATM   11  C16 UNK     1      20.175  -0.705  30.334  1.00  0.00     0.035 A 
HETATM   12  C17 UNK     1      20.164  -1.964  30.935  1.00  0.00     0.026 A 
ENDROOT
BRANCH   4  13
HETATM   13  C2  UNK     1      18.330   2.706  32.528  1.00  0.00     0.088 A 
HETATM   14  C6  UNK     1      18.654   3.181  31.276  1.00  0.00     0.052 A 
HETATM   15  C3  UNK     1      18.411   4.579  31.302  1.00  0.00     0.003 A 
HETATM   16  C10 UNK     1      18.531   5.638  30.384  1.00  0.00     0.014 A 
HETATM   17  C5  UNK     1      17.952   4.860  32.584  1.00  0.00     0.119 A 
HETATM   18  C14 UNK     1      18.180   6.931  30.800  1.00  0.00     0.004 A 
HETATM   19  C12 UNK     1      17.723   7.171  32.098  1.00  0.00     0.040 A 
HETATM   20  C8  UNK     1      17.597   6.134  33.027  1.00  0.00     0.102 A 
HETATM   21  O1  UNK     1      17.904   3.719  33.328  1.00  0.00    -0.306 OA
BRANCH  20  22
HETATM   22  O3  UNK     1      17.150   6.372  34.292  1.00  0.00    -0.353 OA
HETATM   23  C18 UNK     1      17.298   7.700  34.791  1.00  0.00     0.210 C 
ENDBRANCH  20  22
ENDBRANCH   4  13
TORSDOF 2
ENDMDL
MODEL 8
REMARK VINA RESULT:      -8.2     23.535     25.494
REMARK  2 active torsions:
REMARK  status: ('A' for Active; 'I' for Inactive)
REMARK    1  A    between atoms: C8_13  and  O3_4 
REMARK    2  A    between atoms: C1_6  and  C2_7 
ROOT
HETATM    1 Cl1  UNK     1      17.906   1.944  37.052  1.00  0.00    -0.084 Cl
HETATM    2  O2  UNK     1      18.713   1.225  31.257  1.00  0.00    -0.275 OA
HETATM    3  O4  UNK     1      18.824   2.088  29.144  1.00  0.00    -0.260 OA
HETATM    4  C1  UNK     1      18.175   3.854  32.192  1.00  0.00     0.017 A 
HETATM    5  C4  UNK     1      18.247   2.719  33.129  1.00  0.00     0.013 A 
HETATM    6  C7  UNK     1      18.513   1.443  32.633  1.00  0.00     0.090 A 
HETATM    7  C9  UNK     1      18.370   3.608  30.885  1.00  0.00     0.097 A 
HETATM    8  C11 UNK     1      18.060   2.860  34.510  1.00  0.00     0.039 A 
HETATM    9  C13 UNK     1      18.596   0.326  33.465  1.00  0.00     0.040 A 
HETATM   10  C15 UNK     1      18.652   2.265  30.345  1.00  0.00     0.289 A 
HETATM   11  C16 UNK     1      18.139   1.749  35.357  1.00  0.00     0.035 A 
HETATM   12  C17 UNK     1      18.407   0.484  34.835  1.00  0.00     0.026 A 
ENDROOT
BRANCH   4  13
HETATM   13  C2  UNK     1      17.915   5.196  32.543  1.00  0.00     0.088 A 
HETATM   14  C6  UNK     1      16.723   5.874  32.419  1.00  0.00     0.052 A 
HETATM   15  C3  UNK     1      16.956   7.189  32.901  1.00  0.00     0.003 A 
HETATM   16  C10 UNK     1      16.188   8.357  33.051  1.00  0.00     0.014 A 
HETATM   17  C5  UNK     1      18.291   7.218  33.289  1.00  0.00     0.119 A 
HETATM   18  C14 UNK     1      16.798   9.500  33.586  1.00  0.00     0.004 A 
HETATM   19  C12 UNK     1      18.144   9.488  33.964  1.00  0.00     0.040 A 
HETATM   20  C8  UNK     1      18.927   8.338  33.823  1.00  0.00     0.102 A 
HETATM   21  O1  UNK     1      18.872   6.005  33.070  1.00  0.00    -0.306 OA
BRANCH  20  22
HETATM   22  O3  UNK     1      20.238   8.330  34.193  1.00  0.00    -0.353 OA
HETATM   23  C18 UNK     1      20.825   9.588  34.521  1.00  0.00     0.210 C 
ENDBRANCH  20  22
ENDBRANCH   4  13
TORSDOF 2
ENDMDL
MODEL 9
REMARK VINA RESULT:      -8.1     24.557     26.716
REMARK  2 active torsions:
REMARK  status: ('A' for Active; 'I' for Inactive)
REMARK    1  A    between atoms: C8_13  and  O3_4 
REMARK    2  A    between atoms: C1_6  and  C2_7 
ROOT
HETATM    1 Cl1  UNK     1      17.645   4.490  32.137  1.00  0.00    -0.084 Cl
HETATM    2  O2  UNK     1      19.824  -0.217  29.338  1.00  0.00    -0.275 OA
HETATM    3  O4  UNK     1      20.516  -2.395  29.354  1.00  0.00    -0.260 OA
HETATM    4  C1  UNK     1      19.239  -0.489  32.105  1.00  0.00     0.017 A 
HETATM    5  C4  UNK     1      19.003   0.785  31.405  1.00  0.00     0.013 A 
HETATM    6  C7  UNK     1      19.303   0.881  30.047  1.00  0.00     0.090 A 
HETATM    7  C9  UNK     1      19.739  -1.517  31.397  1.00  0.00     0.097 A 
HETATM    8  C11 UNK     1      18.486   1.920  32.044  1.00  0.00     0.039 A 
HETATM    9  C13 UNK     1      19.103   2.058  29.324  1.00  0.00     0.040 A 
HETATM   10  C15 UNK     1      20.061  -1.432  29.961  1.00  0.00     0.289 A 
HETATM   11  C16 UNK     1      18.281   3.107  31.333  1.00  0.00     0.035 A 
HETATM   12  C17 UNK     1      18.589   3.176  29.974  1.00  0.00     0.026 A 
ENDROOT
BRANCH   4  13
HETATM   13  C2  UNK     1      18.986  -0.737  33.471  1.00  0.00     0.088 A 
HETATM   14  C6  UNK     1      18.016  -0.159  34.259  1.00  0.00     0.052 A 
HETATM   15  C3  UNK     1      18.156  -0.725  35.553  1.00  0.00     0.003 A 
HETATM   16  C10 UNK     1      17.506  -0.580  36.791  1.00  0.00     0.014 A 
HETATM   17  C5  UNK     1      19.217  -1.621  35.460  1.00  0.00     0.119 A 
HETATM   18  C14 UNK     1      17.953  -1.344  37.879  1.00  0.00     0.004 A 
HETATM   19  C12 UNK     1      19.023  -2.232  37.745  1.00  0.00     0.040 A 
HETATM   20  C8  UNK     1      19.685  -2.392  36.523  1.00  0.00     0.102 A 
HETATM   21  O1  UNK     1      19.720  -1.626  34.193  1.00  0.00    -0.306 OA
BRANCH  20  22
HETATM   22  O3  UNK     1      20.727  -3.260  36.395  1.00  0.00    -0.353 OA
HETATM   23  C18 UNK     1      20.797  -4.328  37.338  1.00  0.00     0.210 C 
ENDBRANCH  20  22
ENDBRANCH   4  13
TORSDOF 2
ENDMDL
MODEL 10
REMARK VINA RESULT:      -8.1      4.366      8.267
REMARK  2 active torsions:
REMARK  status: ('A' for Active; 'I' for Inactive)
REMARK    1  A    between atoms: C8_13  and  O3_4 
REMARK    2  A    between atoms: C1_6  and  C2_7 
ROOT
HETATM    1 Cl1  UNK     1       5.391   1.317   9.851  1.00  0.00    -0.084 Cl
HETATM    2  O2  UNK     1       5.230   6.536  12.587  1.00  0.00    -0.275 OA
HETATM    3  O4  UNK     1       5.987   8.679  12.825  1.00  0.00    -0.260 OA
HETATM    4  C1  UNK     1       7.075   6.231  10.447  1.00  0.00     0.017 A 
HETATM    5  C4  UNK     1       6.196   5.120  10.851  1.00  0.00     0.013 A 
HETATM    6  C7  UNK     1       5.303   5.306  11.906  1.00  0.00     0.090 A 
HETATM    7  C9  UNK     1       6.979   7.390  11.122  1.00  0.00     0.097 A 
HETATM    8  C11 UNK     1       6.212   3.869  10.219  1.00  0.00     0.039 A 
HETATM    9  C13 UNK     1       4.443   4.297  12.337  1.00  0.00     0.040 A 
HETATM   10  C15 UNK     1       6.041   7.604  12.239  1.00  0.00     0.289 A 
HETATM   11  C16 UNK     1       5.355   2.847  10.642  1.00  0.00     0.035 A 
HETATM   12  C17 UNK     1       4.472   3.060  11.699  1.00  0.00     0.026 A 
ENDROOT
BRANCH   4  13
HETATM   13  C2  UNK     1       8.025   6.192   9.405  1.00  0.00     0.088 A 
HETATM   14  C6  UNK     1       7.814   6.472   8.073  1.00  0.00     0.052 A 
HETATM   15  C3  UNK     1       9.062   6.296   7.421  1.00  0.00     0.003 A 
HETATM   16  C10 UNK     1       9.535   6.414   6.102  1.00  0.00     0.014 A 
HETATM   17  C5  UNK     1       9.958   5.916   8.416  1.00  0.00     0.119 A 
HETATM   18  C14 UNK     1      10.887   6.146   5.845  1.00  0.00     0.004 A 
HETATM   19  C12 UNK     1      11.754   5.766   6.873  1.00  0.00     0.040 A 
HETATM   20  C8  UNK     1      11.306   5.642   8.192  1.00  0.00     0.102 A 
HETATM   21  O1  UNK     1       9.324   5.854   9.621  1.00  0.00    -0.306 OA
BRANCH  20  22
HETATM   22  O3  UNK     1      12.155   5.272   9.192  1.00  0.00    -0.353 OA
HETATM   23  C18 UNK     1      13.034   6.276   9.696  1.00  0.00     0.210 C 
ENDBRANCH  20  22
ENDBRANCH   4  13
TORSDOF 2
ENDMDL
