MODEL 1
REMARK VINA RESULT:      -8.7      0.000      0.000
REMARK  6 active torsions:
REMARK  status: ('A' for Active; 'I' for Inactive)
REMARK    1  A    between atoms: C6_10  and  O1_1 
REMARK    2  A    between atoms: C9_13  and  O2_2 
REMARK    3  A    between atoms: C3_7  and  N1_4 
REMARK       I    between atoms: C4_8  and  N1_4 
REMARK    4  A    between atoms: C1_5  and  C2_6 
REMARK    5  A    between atoms: C1_5  and  C4_8 
REMARK    6  A    between atoms: C5_9  and  C7_11 
ROOT
HETATM    1  C1  UNK     1      19.378  -2.904  36.566  1.00  0.00     0.043 C 
HETATM    2  C5  UNK     1      18.300  -2.410  37.229  1.00  0.00     0.029 C 
ENDROOT
BRANCH   1   3
HETATM    3  C2  UNK     1      19.951  -4.229  36.879  1.00  0.00    -0.021 A 
HETATM    4  C10 UNK     1      21.051  -4.308  37.715  1.00  0.00     0.012 A 
HETATM    5  C16 UNK     1      21.592  -5.560  38.010  1.00  0.00     0.001 A 
HETATM    6  C18 UNK     1      21.023  -6.711  37.465  1.00  0.00     0.000 A 
HETATM    7  C17 UNK     1      19.914  -6.611  36.625  1.00  0.00     0.001 A 
HETATM    8  C11 UNK     1      19.373  -5.361  36.329  1.00  0.00     0.012 A 
ENDBRANCH   1   3
BRANCH   1   9
HETATM    9  C4  UNK     1      19.943  -2.038  35.463  1.00  0.00     0.257 C 
HETATM   10  O3  UNK     1      20.835  -1.229  35.704  1.00  0.00    -0.267 OA
HETATM   11  N1  UNK     1      19.354  -2.279  34.228  1.00  0.00    -0.320 N 
HETATM   12  H2  UNK     1      18.622  -2.985  34.186  1.00  0.00     0.169 HD
BRANCH  11  13
HETATM   13  C3  UNK     1      19.647  -1.646  32.995  1.00  0.00     0.071 A 
HETATM   14  C6  UNK     1      20.621  -2.172  32.162  1.00  0.00     0.095 A 
HETATM   15  C12 UNK     1      20.898  -1.539  30.951  1.00  0.00     0.042 A 
HETATM   16  C13 UNK     1      20.198  -0.389  30.589  1.00  0.00     0.039 A 
HETATM   17  C9  UNK     1      19.220   0.128  31.439  1.00  0.00     0.070 A 
HETATM   18  C8  UNK     1      18.942  -0.505  32.650  1.00  0.00     0.069 A 
BRANCH  14  19
HETATM   19  O1  UNK     1      21.317  -3.294  32.498  1.00  0.00    -0.354 OA
HETATM   20  C22 UNK     1      21.575  -4.233  31.456  1.00  0.00     0.210 C 
ENDBRANCH  14  19
BRANCH  17  21
HETATM   21  O2  UNK     1      18.536   1.251  31.086  1.00  0.00    -0.356 OA
HETATM   22  C23 UNK     1      18.588   1.639  29.714  1.00  0.00     0.210 C 
ENDBRANCH  17  21
ENDBRANCH  11  13
ENDBRANCH   1   9
BRANCH   2  23
HETATM   23  C7  UNK     1      17.658  -1.125  37.004  1.00  0.00    -0.035 A 
HETATM   24  C14 UNK     1      17.939  -0.047  37.844  1.00  0.00     0.011 A 
HETATM   25  C19 UNK     1      17.324   1.185  37.629  1.00  0.00     0.001 A 
HETATM   26  C21 UNK     1      16.425   1.341  36.572  1.00  0.00     0.000 A 
HETATM   27  C20 UNK     1      16.143   0.264  35.733  1.00  0.00     0.001 A 
HETATM   28  C15 UNK     1      16.759  -0.969  35.948  1.00  0.00     0.011 A 
ENDBRANCH   2  23
TORSDOF 6
ENDMDL
MODEL 2
REMARK VINA RESULT:      -8.0      1.265      2.504
REMARK  6 active torsions:
REMARK  status: ('A' for Active; 'I' for Inactive)
REMARK    1  A    between atoms: C6_10  and  O1_1 
REMARK    2  A    between atoms: C9_13  and  O2_2 
REMARK    3  A    between atoms: C3_7  and  N1_4 
REMARK       I    between atoms: C4_8  and  N1_4 
REMARK    4  A    between atoms: C1_5  and  C2_6 
REMARK    5  A    between atoms: C1_5  and  C4_8 
REMARK    6  A    between atoms: C5_9  and  C7_11 
ROOT
HETATM    1  C1  UNK     1      19.199  -2.745  36.573  1.00  0.00     0.043 C 
HETATM    2  C5  UNK     1      18.182  -2.300  37.355  1.00  0.00     0.029 C 
ENDROOT
BRANCH   1   3
HETATM    3  C2  UNK     1      19.775  -4.097  36.730  1.00  0.00    -0.021 A 
HETATM    4  C10 UNK     1      19.227  -5.150  36.019  1.00  0.00     0.012 A 
HETATM    5  C16 UNK     1      19.770  -6.427  36.168  1.00  0.00     0.001 A 
HETATM    6  C18 UNK     1      20.852  -6.628  37.025  1.00  0.00     0.000 A 
HETATM    7  C17 UNK     1      21.392  -5.554  37.732  1.00  0.00     0.001 A 
HETATM    8  C11 UNK     1      20.849  -4.278  37.584  1.00  0.00     0.012 A 
ENDBRANCH   1   3
BRANCH   1   9
HETATM    9  C4  UNK     1      19.691  -1.795  35.504  1.00  0.00     0.257 C 
HETATM   10  O3  UNK     1      20.680  -1.095  35.704  1.00  0.00    -0.267 OA
HETATM   11  N1  UNK     1      18.921  -1.833  34.348  1.00  0.00    -0.320 N 
HETATM   12  H2  UNK     1      18.127  -2.469  34.333  1.00  0.00     0.169 HD
BRANCH  11  13
HETATM   13  C3  UNK     1      19.106  -1.076  33.165  1.00  0.00     0.071 A 
HETATM   14  C6  UNK     1      18.711   0.250  33.124  1.00  0.00     0.095 A 
HETATM   15  C12 UNK     1      18.900   0.983  31.952  1.00  0.00     0.042 A 
HETATM   16  C13 UNK     1      19.480   0.379  30.837  1.00  0.00     0.039 A 
HETATM   17  C9  UNK     1      19.872  -0.959  30.895  1.00  0.00     0.070 A 
HETATM   18  C8  UNK     1      19.684  -1.692  32.067  1.00  0.00     0.069 A 
BRANCH  14  19
HETATM   19  O1  UNK     1      18.140   0.859  34.201  1.00  0.00    -0.354 OA
HETATM   20  C22 UNK     1      18.316   2.270  34.316  1.00  0.00     0.210 C 
ENDBRANCH  14  19
BRANCH  17  21
HETATM   21  O2  UNK     1      20.439  -1.549  29.807  1.00  0.00    -0.356 OA
HETATM   22  C23 UNK     1      20.241  -0.913  28.546  1.00  0.00     0.210 C 
ENDBRANCH  17  21
ENDBRANCH  11  13
ENDBRANCH   1   9
BRANCH   2  23
HETATM   23  C7  UNK     1      17.544  -0.995  37.288  1.00  0.00    -0.035 A 
HETATM   24  C14 UNK     1      18.045   0.067  38.041  1.00  0.00     0.011 A 
HETATM   25  C19 UNK     1      17.432   1.318  37.977  1.00  0.00     0.001 A 
HETATM   26  C21 UNK     1      16.318   1.508  37.158  1.00  0.00     0.000 A 
HETATM   27  C20 UNK     1      15.817   0.446  36.406  1.00  0.00     0.001 A 
HETATM   28  C15 UNK     1      16.429  -0.805  36.471  1.00  0.00     0.011 A 
ENDBRANCH   2  23
TORSDOF 6
ENDMDL
MODEL 3
REMARK VINA RESULT:      -7.6      3.012      6.888
REMARK  6 active torsions:
REMARK  status: ('A' for Active; 'I' for Inactive)
REMARK    1  A    between atoms: C6_10  and  O1_1 
REMARK    2  A    between atoms: C9_13  and  O2_2 
REMARK    3  A    between atoms: C3_7  and  N1_4 
REMARK       I    between atoms: C4_8  and  N1_4 
REMARK    4  A    between atoms: C1_5  and  C2_6 
REMARK    5  A    between atoms: C1_5  and  C4_8 
REMARK    6  A    between atoms: C5_9  and  C7_11 
ROOT
HETATM    1  C1  UNK     1      18.337   2.955  33.824  1.00  0.00     0.043 C 
HETATM    2  C5  UNK     1      18.298   2.709  35.159  1.00  0.00     0.029 C 
ENDROOT
BRANCH   1   3
HETATM    3  C2  UNK     1      18.486   4.322  33.283  1.00  0.00    -0.021 A 
HETATM    4  C10 UNK     1      19.195   5.261  34.011  1.00  0.00     0.012 A 
HETATM    5  C16 UNK     1      19.336   6.552  33.501  1.00  0.00     0.001 A 
HETATM    6  C18 UNK     1      18.766   6.881  32.271  1.00  0.00     0.000 A 
HETATM    7  C17 UNK     1      18.055   5.921  31.552  1.00  0.00     0.001 A 
HETATM    8  C11 UNK     1      17.914   4.631  32.061  1.00  0.00     0.012 A 
ENDBRANCH   1   3
BRANCH   1   9
HETATM    9  C4  UNK     1      18.254   1.749  32.915  1.00  0.00     0.257 C 
HETATM   10  O3  UNK     1      17.276   1.008  32.956  1.00  0.00    -0.267 OA
HETATM   11  N1  UNK     1      19.361   1.618  32.086  1.00  0.00    -0.320 N 
HETATM   12  H2  UNK     1      20.096   2.316  32.170  1.00  0.00     0.169 HD
BRANCH  11  13
HETATM   13  C3  UNK     1      19.601   0.607  31.123  1.00  0.00     0.071 A 
HETATM   14  C6  UNK     1      19.392   0.869  29.779  1.00  0.00     0.095 A 
HETATM   15  C12 UNK     1      19.633  -0.135  28.842  1.00  0.00     0.042 A 
HETATM   16  C13 UNK     1      20.080  -1.388  29.261  1.00  0.00     0.039 A 
HETATM   17  C9  UNK     1      20.285  -1.636  30.619  1.00  0.00     0.070 A 
HETATM   18  C8  UNK     1      20.044  -0.631  31.556  1.00  0.00     0.069 A 
BRANCH  14  19
HETATM   19  O1  UNK     1      18.954   2.086  29.349  1.00  0.00    -0.354 OA
HETATM   20  C22 UNK     1      17.784   2.101  28.532  1.00  0.00     0.210 C 
ENDBRANCH  14  19
BRANCH  17  21
HETATM   21  O2  UNK     1      20.722  -2.858  31.029  1.00  0.00    -0.356 OA
HETATM   22  C23 UNK     1      20.988  -3.019  32.421  1.00  0.00     0.210 C 
ENDBRANCH  17  21
ENDBRANCH  11  13
ENDBRANCH   1   9
BRANCH   2  23
HETATM   23  C7  UNK     1      18.154   1.411  35.798  1.00  0.00    -0.035 A 
HETATM   24  C14 UNK     1      17.024   1.132  36.568  1.00  0.00     0.011 A 
HETATM   25  C19 UNK     1      16.886  -0.113  37.180  1.00  0.00     0.001 A 
HETATM   26  C21 UNK     1      17.879  -1.081  37.023  1.00  0.00     0.000 A 
HETATM   27  C20 UNK     1      19.009  -0.803  36.255  1.00  0.00     0.001 A 
HETATM   28  C15 UNK     1      19.147   0.442  35.642  1.00  0.00     0.011 A 
ENDBRANCH   2  23
TORSDOF 6
ENDMDL
MODEL 4
REMARK VINA RESULT:      -7.5      9.996     12.578
REMARK  6 active torsions:
REMARK  status: ('A' for Active; 'I' for Inactive)
REMARK    1  A    between atoms: C6_10  and  O1_1 
REMARK    2  A    between atoms: C9_13  and  O2_2 
REMARK    3  A    between atoms: C3_7  and  N1_4 
REMARK       I    between atoms: C4_8  and  N1_4 
REMARK    4  A    between atoms: C1_5  and  C2_6 
REMARK    5  A    between atoms: C1_5  and  C4_8 
REMARK    6  A    between atoms: C5_9  and  C7_11 
ROOT
HETATM    1  C1  UNK     1      29.921  -7.759  37.798  1.00  0.00     0.043 C 
HETATM    2  C5  UNK     1      31.202  -8.009  38.174  1.00  0.00     0.029 C 
ENDROOT
BRANCH   1   3
HETATM    3  C2  UNK     1      28.770  -8.398  38.468  1.00  0.00    -0.021 A 
HETATM    4  C10 UNK     1      28.914  -9.671  38.989  1.00  0.00     0.012 A 
HETATM    5  C16 UNK     1      27.827 -10.275  39.621  1.00  0.00     0.001 A 
HETATM    6  C18 UNK     1      26.613  -9.595  39.721  1.00  0.00     0.000 A 
HETATM    7  C17 UNK     1      26.487  -8.312  39.189  1.00  0.00     0.001 A 
HETATM    8  C11 UNK     1      27.573  -7.708  38.557  1.00  0.00     0.012 A 
ENDBRANCH   1   3
BRANCH   1   9
HETATM    9  C4  UNK     1      29.731  -6.762  36.677  1.00  0.00     0.257 C 
HETATM   10  O3  UNK     1      29.665  -5.560  36.920  1.00  0.00    -0.267 OA
HETATM   11  N1  UNK     1      29.654  -7.361  35.426  1.00  0.00    -0.320 N 
HETATM   12  H2  UNK     1      29.725  -8.375  35.385  1.00  0.00     0.169 HD
BRANCH  11  13
HETATM   13  C3  UNK     1      29.478  -6.721  34.174  1.00  0.00     0.071 A 
HETATM   14  C6  UNK     1      30.513  -5.986  33.622  1.00  0.00     0.095 A 
HETATM   15  C12 UNK     1      30.326  -5.362  32.388  1.00  0.00     0.042 A 
HETATM   16  C13 UNK     1      29.107  -5.484  31.723  1.00  0.00     0.039 A 
HETATM   17  C9  UNK     1      28.074  -6.229  32.293  1.00  0.00     0.070 A 
HETATM   18  C8  UNK     1      28.261  -6.852  33.527  1.00  0.00     0.069 A 
BRANCH  14  19
HETATM   19  O1  UNK     1      31.712  -5.853  34.257  1.00  0.00    -0.354 OA
HETATM   20  C22 UNK     1      32.173  -4.525  34.500  1.00  0.00     0.210 C 
ENDBRANCH  14  19
BRANCH  17  21
HETATM   21  O2  UNK     1      26.883  -6.348  31.644  1.00  0.00    -0.356 OA
HETATM   22  C23 UNK     1      26.857  -7.177  30.483  1.00  0.00     0.210 C 
ENDBRANCH  17  21
ENDBRANCH  11  13
ENDBRANCH   1   9
BRANCH   2  23
HETATM   23  C7  UNK     1      32.405  -7.438  37.588  1.00  0.00    -0.035 A 
HETATM   24  C14 UNK     1      32.897  -6.219  38.053  1.00  0.00     0.011 A 
HETATM   25  C19 UNK     1      34.050  -5.671  37.491  1.00  0.00     0.001 A 
HETATM   26  C21 UNK     1      34.712  -6.344  36.463  1.00  0.00     0.000 A 
HETATM   27  C20 UNK     1      34.220  -7.563  35.998  1.00  0.00     0.001 A 
HETATM   28  C15 UNK     1      33.067  -8.110  36.559  1.00  0.00     0.011 A 
ENDBRANCH   2  23
TORSDOF 6
ENDMDL
MODEL 5
REMARK VINA RESULT:      -7.5     10.361     13.301
REMARK  6 active torsions:
REMARK  status: ('A' for Active; 'I' for Inactive)
REMARK    1  A    between atoms: C6_10  and  O1_1 
REMARK    2  A    between atoms: C9_13  and  O2_2 
REMARK    3  A    between atoms: C3_7  and  N1_4 
REMARK       I    between atoms: C4_8  and  N1_4 
REMARK    4  A    between atoms: C1_5  and  C2_6 
REMARK    5  A    between atoms: C1_5  and  C4_8 
REMARK    6  A    between atoms: C5_9  and  C7_11 
ROOT
HETATM    1  C1  UNK     1      29.926  -6.928  33.187  1.00  0.00     0.043 C 
HETATM    2  C5  UNK     1      31.022  -6.184  32.886  1.00  0.00     0.029 C 
ENDROOT
BRANCH   1   3
HETATM    3  C2  UNK     1      28.907  -7.267  32.172  1.00  0.00    -0.021 A 
HETATM    4  C10 UNK     1      28.992  -8.479  31.510  1.00  0.00     0.012 A 
HETATM    5  C16 UNK     1      28.030  -8.800  30.551  1.00  0.00     0.001 A 
HETATM    6  C18 UNK     1      27.000  -7.902  30.271  1.00  0.00     0.000 A 
HETATM    7  C17 UNK     1      26.931  -6.686  30.949  1.00  0.00     0.001 A 
HETATM    8  C11 UNK     1      27.891  -6.365  31.906  1.00  0.00     0.012 A 
ENDBRANCH   1   3
BRANCH   1   9
HETATM    9  C4  UNK     1      29.818  -7.422  34.612  1.00  0.00     0.257 C 
HETATM   10  O3  UNK     1      30.480  -8.386  34.986  1.00  0.00    -0.267 OA
HETATM   11  N1  UNK     1      28.930  -6.677  35.379  1.00  0.00    -0.320 N 
HETATM   12  H2  UNK     1      28.452  -5.902  34.924  1.00  0.00     0.169 HD
BRANCH  11  13
HETATM   13  C3  UNK     1      28.597  -6.870  36.742  1.00  0.00     0.071 A 
HETATM   14  C6  UNK     1      29.103  -6.015  37.705  1.00  0.00     0.095 A 
HETATM   15  C12 UNK     1      28.765  -6.216  39.044  1.00  0.00     0.042 A 
HETATM   16  C13 UNK     1      27.926  -7.272  39.400  1.00  0.00     0.039 A 
HETATM   17  C9  UNK     1      27.425  -8.126  38.417  1.00  0.00     0.070 A 
HETATM   18  C8  UNK     1      27.763  -7.924  37.078  1.00  0.00     0.069 A 
BRANCH  14  19
HETATM   19  O1  UNK     1      29.925  -4.978  37.379  1.00  0.00    -0.354 OA
HETATM   20  C22 UNK     1      30.028  -3.912  38.320  1.00  0.00     0.210 C 
ENDBRANCH  14  19
BRANCH  17  21
HETATM   21  O2  UNK     1      26.606  -9.156  38.764  1.00  0.00    -0.356 OA
HETATM   22  C23 UNK     1      27.127 -10.120  39.677  1.00  0.00     0.210 C 
ENDBRANCH  17  21
ENDBRANCH  11  13
ENDBRANCH   1   9
BRANCH   2  23
HETATM   23  C7  UNK     1      32.082  -5.793  33.802  1.00  0.00    -0.035 A 
HETATM   24  C14 UNK     1      33.239  -6.566  33.902  1.00  0.00     0.011 A 
HETATM   25  C19 UNK     1      34.255  -6.191  34.779  1.00  0.00     0.001 A 
HETATM   26  C21 UNK     1      34.115  -5.042  35.559  1.00  0.00     0.000 A 
HETATM   27  C20 UNK     1      32.958  -4.270  35.460  1.00  0.00     0.001 A 
HETATM   28  C15 UNK     1      31.942  -4.645  34.582  1.00  0.00     0.011 A 
ENDBRANCH   2  23
TORSDOF 6
ENDMDL
MODEL 6
REMARK VINA RESULT:      -7.5      4.367      6.957
REMARK  6 active torsions:
REMARK  status: ('A' for Active; 'I' for Inactive)
REMARK    1  A    between atoms: C6_10  and  O1_1 
REMARK    2  A    between atoms: C9_13  and  O2_2 
REMARK    3  A    between atoms: C3_7  and  N1_4 
REMARK       I    between atoms: C4_8  and  N1_4 
REMARK    4  A    between atoms: C1_5  and  C2_6 
REMARK    5  A    between atoms: C1_5  and  C4_8 
REMARK    6  A    between atoms: C5_9  and  C7_11 
ROOT
HETATM    1  C1  UNK     1      18.698   0.805  32.348  1.00  0.00     0.043 C 
HETATM    2  C5  UNK     1      18.579   0.176  33.546  1.00  0.00     0.029 C 
ENDROOT
BRANCH   1   3
HETATM    3  C2  UNK     1      19.376   0.174  31.196  1.00  0.00    -0.021 A 
HETATM    4  C10 UNK     1      19.464   0.869  30.003  1.00  0.00     0.012 A 
HETATM    5  C16 UNK     1      20.104   0.274  28.915  1.00  0.00     0.001 A 
HETATM    6  C18 UNK     1      20.644  -1.006  29.039  1.00  0.00     0.000 A 
HETATM    7  C17 UNK     1      20.546  -1.691  30.250  1.00  0.00     0.001 A 
HETATM    8  C11 UNK     1      19.906  -1.096  31.337  1.00  0.00     0.012 A 
ENDBRANCH   1   3
BRANCH   1   9
HETATM    9  C4  UNK     1      18.069   2.175  32.242  1.00  0.00     0.257 C 
HETATM   10  O3  UNK     1      16.972   2.315  31.708  1.00  0.00    -0.267 OA
HETATM   11  N1  UNK     1      18.853   3.177  32.801  1.00  0.00    -0.320 N 
HETATM   12  H2  UNK     1      19.745   2.903  33.209  1.00  0.00     0.169 HD
BRANCH  11  13
HETATM   13  C3  UNK     1      18.562   4.562  32.870  1.00  0.00     0.071 A 
HETATM   14  C6  UNK     1      19.029   5.417  31.886  1.00  0.00     0.095 A 
HETATM   15  C12 UNK     1      18.733   6.778  31.967  1.00  0.00     0.042 A 
HETATM   16  C13 UNK     1      17.976   7.264  33.032  1.00  0.00     0.039 A 
HETATM   17  C9  UNK     1      17.513   6.390  34.015  1.00  0.00     0.070 A 
HETATM   18  C8  UNK     1      17.808   5.029  33.934  1.00  0.00     0.069 A 
BRANCH  14  19
HETATM   19  O1  UNK     1      19.772   4.961  30.838  1.00  0.00    -0.354 OA
HETATM   20  C22 UNK     1      20.106   5.906  29.823  1.00  0.00     0.210 C 
ENDBRANCH  14  19
BRANCH  17  21
HETATM   21  O2  UNK     1      16.773   6.864  35.055  1.00  0.00    -0.356 OA
HETATM   22  C23 UNK     1      16.448   8.253  35.039  1.00  0.00     0.210 C 
ENDBRANCH  17  21
ENDBRANCH  11  13
ENDBRANCH   1   9
BRANCH   2  23
HETATM   23  C7  UNK     1      17.935   0.700  34.740  1.00  0.00    -0.035 A 
HETATM   24  C14 UNK     1      16.585   0.441  34.976  1.00  0.00     0.011 A 
HETATM   25  C19 UNK     1      15.968   0.943  36.121  1.00  0.00     0.001 A 
HETATM   26  C21 UNK     1      16.701   1.705  37.032  1.00  0.00     0.000 A 
HETATM   27  C20 UNK     1      18.051   1.965  36.795  1.00  0.00     0.001 A 
HETATM   28  C15 UNK     1      18.668   1.463  35.650  1.00  0.00     0.011 A 
ENDBRANCH   2  23
TORSDOF 6
ENDMDL
MODEL 7
REMARK VINA RESULT:      -7.4     10.166     12.584
REMARK  6 active torsions:
REMARK  status: ('A' for Active; 'I' for Inactive)
REMARK    1  A    between atoms: C6_10  and  O1_1 
REMARK    2  A    between atoms: C9_13  and  O2_2 
REMARK    3  A    between atoms: C3_7  and  N1_4 
REMARK       I    between atoms: C4_8  and  N1_4 
REMARK    4  A    between atoms: C1_5  and  C2_6 
REMARK    5  A    between atoms: C1_5  and  C4_8 
REMARK    6  A    between atoms: C5_9  and  C7_11 
ROOT
HETATM    1  C1  UNK     1      30.482  -7.286  37.337  1.00  0.00     0.043 C 
HETATM    2  C5  UNK     1      31.509  -6.540  37.820  1.00  0.00     0.029 C 
ENDROOT
BRANCH   1   3
HETATM    3  C2  UNK     1      29.462  -7.882  38.224  1.00  0.00    -0.021 A 
HETATM    4  C10 UNK     1      29.397  -9.259  38.347  1.00  0.00     0.012 A 
HETATM    5  C16 UNK     1      28.433  -9.822  39.184  1.00  0.00     0.001 A 
HETATM    6  C18 UNK     1      27.550  -8.999  39.884  1.00  0.00     0.000 A 
HETATM    7  C17 UNK     1      27.632  -7.613  39.747  1.00  0.00     0.001 A 
HETATM    8  C11 UNK     1      28.595  -7.050  38.910  1.00  0.00     0.012 A 
ENDBRANCH   1   3
BRANCH   1   9
HETATM    9  C4  UNK     1      30.417  -7.448  35.835  1.00  0.00     0.257 C 
HETATM   10  O3  UNK     1      30.938  -8.418  35.292  1.00  0.00    -0.267 OA
HETATM   11  N1  UNK     1      29.727  -6.418  35.208  1.00  0.00    -0.320 N 
HETATM   12  H2  UNK     1      29.350  -5.678  35.796  1.00  0.00     0.169 HD
BRANCH  11  13
HETATM   13  C3  UNK     1      29.484  -6.263  33.821  1.00  0.00     0.071 A 
HETATM   14  C6  UNK     1      30.527  -5.953  32.966  1.00  0.00     0.095 A 
HETATM   15  C12 UNK     1      30.272  -5.805  31.602  1.00  0.00     0.042 A 
HETATM   16  C13 UNK     1      28.976  -5.969  31.113  1.00  0.00     0.039 A 
HETATM   17  C9  UNK     1      27.936  -6.282  31.988  1.00  0.00     0.070 A 
HETATM   18  C8  UNK     1      28.191  -6.430  33.352  1.00  0.00     0.069 A 
BRANCH  14  19
HETATM   19  O1  UNK     1      31.800  -5.786  33.423  1.00  0.00    -0.354 OA
HETATM   20  C22 UNK     1      32.776  -6.727  32.979  1.00  0.00     0.210 C 
ENDBRANCH  14  19
BRANCH  17  21
HETATM   21  O2  UNK     1      26.671  -6.442  31.512  1.00  0.00    -0.356 OA
HETATM   22  C23 UNK     1      26.537  -6.891  30.164  1.00  0.00     0.210 C 
ENDBRANCH  17  21
ENDBRANCH  11  13
ENDBRANCH   1   9
BRANCH   2  23
HETATM   23  C7  UNK     1      32.564  -5.910  37.043  1.00  0.00    -0.035 A 
HETATM   24  C14 UNK     1      33.736  -6.611  36.759  1.00  0.00     0.011 A 
HETATM   25  C19 UNK     1      34.748  -6.007  36.013  1.00  0.00     0.001 A 
HETATM   26  C21 UNK     1      34.588  -4.700  35.550  1.00  0.00     0.000 A 
HETATM   27  C20 UNK     1      33.416  -3.999  35.835  1.00  0.00     0.001 A 
HETATM   28  C15 UNK     1      32.405  -4.603  36.580  1.00  0.00     0.011 A 
ENDBRANCH   2  23
TORSDOF 6
ENDMDL
MODEL 8
REMARK VINA RESULT:      -7.4     10.771     13.640
REMARK  6 active torsions:
REMARK  status: ('A' for Active; 'I' for Inactive)
REMARK    1  A    between atoms: C6_10  and  O1_1 
REMARK    2  A    between atoms: C9_13  and  O2_2 
REMARK    3  A    between atoms: C3_7  and  N1_4 
REMARK       I    between atoms: C4_8  and  N1_4 
REMARK    4  A    between atoms: C1_5  and  C2_6 
REMARK    5  A    between atoms: C1_5  and  C4_8 
REMARK    6  A    between atoms: C5_9  and  C7_11 
ROOT
HETATM    1  C1  UNK     1      29.897  -6.235  34.597  1.00  0.00     0.043 C 
HETATM    2  C5  UNK     1      28.715  -6.819  34.269  1.00  0.00     0.029 C 
ENDROOT
BRANCH   1   3
HETATM    3  C2  UNK     1      30.223  -5.853  35.987  1.00  0.00    -0.021 A 
HETATM    4  C10 UNK     1      31.325  -5.051  36.225  1.00  0.00     0.012 A 
HETATM    5  C16 UNK     1      31.633  -4.691  37.538  1.00  0.00     0.001 A 
HETATM    6  C18 UNK     1      30.834  -5.140  38.589  1.00  0.00     0.000 A 
HETATM    7  C17 UNK     1      29.727  -5.947  38.329  1.00  0.00     0.001 A 
HETATM    8  C11 UNK     1      29.419  -6.307  37.018  1.00  0.00     0.012 A 
ENDBRANCH   1   3
BRANCH   1   9
HETATM    9  C4  UNK     1      30.881  -6.026  33.468  1.00  0.00     0.257 C 
HETATM   10  O3  UNK     1      30.824  -5.015  32.775  1.00  0.00    -0.267 OA
HETATM   11  N1  UNK     1      31.794  -7.066  33.344  1.00  0.00    -0.320 N 
HETATM   12  H2  UNK     1      31.714  -7.842  33.998  1.00  0.00     0.169 HD
BRANCH  11  13
HETATM   13  C3  UNK     1      32.841  -7.186  32.398  1.00  0.00     0.071 A 
HETATM   14  C6  UNK     1      32.547  -7.432  31.068  1.00  0.00     0.095 A 
HETATM   15  C12 UNK     1      33.589  -7.546  30.147  1.00  0.00     0.042 A 
HETATM   16  C13 UNK     1      34.911  -7.412  30.571  1.00  0.00     0.039 A 
HETATM   17  C9  UNK     1      35.191  -7.164  31.914  1.00  0.00     0.070 A 
HETATM   18  C8  UNK     1      34.149  -7.050  32.835  1.00  0.00     0.069 A 
BRANCH  14  19
HETATM   19  O1  UNK     1      31.262  -7.568  30.634  1.00  0.00    -0.354 OA
HETATM   20  C22 UNK     1      30.821  -6.664  29.623  1.00  0.00     0.210 C 
ENDBRANCH  14  19
BRANCH  17  21
HETATM   21  O2  UNK     1      36.481  -7.032  32.328  1.00  0.00    -0.356 OA
HETATM   22  C23 UNK     1      36.738  -7.209  33.720  1.00  0.00     0.210 C 
ENDBRANCH  17  21
ENDBRANCH  11  13
ENDBRANCH   1   9
BRANCH   2  23
HETATM   23  C7  UNK     1      28.293  -7.233  32.940  1.00  0.00    -0.035 A 
HETATM   24  C14 UNK     1      27.592  -6.346  32.123  1.00  0.00     0.011 A 
HETATM   25  C19 UNK     1      27.186  -6.742  30.849  1.00  0.00     0.001 A 
HETATM   26  C21 UNK     1      27.481  -8.027  30.391  1.00  0.00     0.000 A 
HETATM   27  C20 UNK     1      28.181  -8.914  31.209  1.00  0.00     0.001 A 
HETATM   28  C15 UNK     1      28.587  -8.518  32.483  1.00  0.00     0.011 A 
ENDBRANCH   2  23
TORSDOF 6
ENDMDL
MODEL 9
REMARK VINA RESULT:      -7.3     10.837     12.596
REMARK  6 active torsions:
REMARK  status: ('A' for Active; 'I' for Inactive)
REMARK    1  A    between atoms: C6_10  and  O1_1 
REMARK    2  A    between atoms: C9_13  and  O2_2 
REMARK    3  A    between atoms: C3_7  and  N1_4 
REMARK       I    between atoms: C4_8  and  N1_4 
REMARK    4  A    between atoms: C1_5  and  C2_6 
REMARK    5  A    between atoms: C1_5  and  C4_8 
REMARK    6  A    between atoms: C5_9  and  C7_11 
ROOT
HETATM    1  C1  UNK     1      30.670  -7.009  37.056  1.00  0.00     0.043 C 
HETATM    2  C5  UNK     1      31.655  -6.198  37.521  1.00  0.00     0.029 C 
ENDROOT
BRANCH   1   3
HETATM    3  C2  UNK     1      29.647  -7.592  37.949  1.00  0.00    -0.021 A 
HETATM    4  C10 UNK     1      28.862  -6.749  38.715  1.00  0.00     0.012 A 
HETATM    5  C16 UNK     1      27.896  -7.299  39.559  1.00  0.00     0.001 A 
HETATM    6  C18 UNK     1      27.733  -8.682  39.622  1.00  0.00     0.000 A 
HETATM    7  C17 UNK     1      28.533  -9.516  38.842  1.00  0.00     0.001 A 
HETATM    8  C11 UNK     1      29.498  -8.967  37.999  1.00  0.00     0.012 A 
ENDBRANCH   1   3
BRANCH   1   9
HETATM    9  C4  UNK     1      30.652  -7.259  35.565  1.00  0.00     0.257 C 
HETATM   10  O3  UNK     1      31.426  -8.069  35.063  1.00  0.00    -0.267 OA
HETATM   11  N1  UNK     1      29.700  -6.499  34.898  1.00  0.00    -0.320 N 
HETATM   12  H2  UNK     1      29.129  -5.867  35.455  1.00  0.00     0.169 HD
BRANCH  11  13
HETATM   13  C3  UNK     1      29.422  -6.490  33.509  1.00  0.00     0.071 A 
HETATM   14  C6  UNK     1      28.734  -7.545  32.934  1.00  0.00     0.095 A 
HETATM   15  C12 UNK     1      28.467  -7.522  31.565  1.00  0.00     0.042 A 
HETATM   16  C13 UNK     1      28.892  -6.444  30.790  1.00  0.00     0.039 A 
HETATM   17  C9  UNK     1      29.584  -5.389  31.384  1.00  0.00     0.070 A 
HETATM   18  C8  UNK     1      29.852  -5.412  32.753  1.00  0.00     0.069 A 
BRANCH  14  19
HETATM   19  O1  UNK     1      28.311  -8.609  33.674  1.00  0.00    -0.354 OA
HETATM   20  C22 UNK     1      28.899  -9.876  33.382  1.00  0.00     0.210 C 
ENDBRANCH  14  19
BRANCH  17  21
HETATM   21  O2  UNK     1      30.000  -4.336  30.628  1.00  0.00    -0.356 OA
HETATM   22  C23 UNK     1      30.084  -3.066  31.273  1.00  0.00     0.210 C 
ENDBRANCH  17  21
ENDBRANCH  11  13
ENDBRANCH   1   9
BRANCH   2  23
HETATM   23  C7  UNK     1      32.707  -5.573  36.736  1.00  0.00    -0.035 A 
HETATM   24  C14 UNK     1      32.443  -4.407  36.017  1.00  0.00     0.011 A 
HETATM   25  C19 UNK     1      33.452  -3.808  35.263  1.00  0.00     0.001 A 
HETATM   26  C21 UNK     1      34.727  -4.375  35.228  1.00  0.00     0.000 A 
HETATM   27  C20 UNK     1      34.991  -5.541  35.947  1.00  0.00     0.001 A 
HETATM   28  C15 UNK     1      33.982  -6.140  36.700  1.00  0.00     0.011 A 
ENDBRANCH   2  23
TORSDOF 6
ENDMDL
MODEL 10
REMARK VINA RESULT:      -7.3     11.342     14.189
REMARK  6 active torsions:
REMARK  status: ('A' for Active; 'I' for Inactive)
REMARK    1  A    between atoms: C6_10  and  O1_1 
REMARK    2  A    between atoms: C9_13  and  O2_2 
REMARK    3  A    between atoms: C3_7  and  N1_4 
REMARK       I    between atoms: C4_8  and  N1_4 
REMARK    4  A    between atoms: C1_5  and  C2_6 
REMARK    5  A    between atoms: C1_5  and  C4_8 
REMARK    6  A    between atoms: C5_9  and  C7_11 
ROOT
HETATM    1  C1  UNK     1      30.168  -5.965  35.216  1.00  0.00     0.043 C 
HETATM    2  C5  UNK     1      29.324  -6.234  34.186  1.00  0.00     0.029 C 
ENDROOT
BRANCH   1   3
HETATM    3  C2  UNK     1      29.720  -5.994  36.624  1.00  0.00    -0.021 A 
HETATM    4  C10 UNK     1      29.957  -4.895  37.430  1.00  0.00     0.012 A 
HETATM    5  C16 UNK     1      29.535  -4.922  38.759  1.00  0.00     0.001 A 
HETATM    6  C18 UNK     1      28.882  -6.049  39.260  1.00  0.00     0.000 A 
HETATM    7  C17 UNK     1      28.651  -7.147  38.432  1.00  0.00     0.001 A 
HETATM    8  C11 UNK     1      29.073  -7.120  37.103  1.00  0.00     0.012 A 
ENDBRANCH   1   3
BRANCH   1   9
HETATM    9  C4  UNK     1      31.604  -5.667  34.848  1.00  0.00     0.257 C 
HETATM   10  O3  UNK     1      31.979  -4.507  34.703  1.00  0.00    -0.267 OA
HETATM   11  N1  UNK     1      32.379  -6.813  34.716  1.00  0.00    -0.320 N 
HETATM   12  H2  UNK     1      31.922  -7.710  34.869  1.00  0.00     0.169 HD
BRANCH  11  13
HETATM   13  C3  UNK     1      33.754  -6.889  34.383  1.00  0.00     0.071 A 
HETATM   14  C6  UNK     1      34.696  -7.096  35.376  1.00  0.00     0.095 A 
HETATM   15  C12 UNK     1      36.046  -7.170  35.032  1.00  0.00     0.042 A 
HETATM   16  C13 UNK     1      36.434  -7.037  33.700  1.00  0.00     0.039 A 
HETATM   17  C9  UNK     1      35.473  -6.829  32.711  1.00  0.00     0.070 A 
HETATM   18  C8  UNK     1      34.123  -6.754  33.054  1.00  0.00     0.069 A 
BRANCH  14  19
HETATM   19  O1  UNK     1      34.337  -7.228  36.684  1.00  0.00    -0.354 OA
HETATM   20  C22 UNK     1      34.448  -6.067  37.506  1.00  0.00     0.210 C 
ENDBRANCH  14  19
BRANCH  17  21
HETATM   21  O2  UNK     1      35.852  -6.698  31.410  1.00  0.00    -0.356 OA
HETATM   22  C23 UNK     1      34.948  -7.183  30.419  1.00  0.00     0.210 C 
ENDBRANCH  17  21
ENDBRANCH  11  13
ENDBRANCH   1   9
BRANCH   2  23
HETATM   23  C7  UNK     1      29.656  -6.234  32.770  1.00  0.00    -0.035 A 
HETATM   24  C14 UNK     1      30.071  -7.413  32.150  1.00  0.00     0.011 A 
HETATM   25  C19 UNK     1      30.389  -7.413  30.793  1.00  0.00     0.001 A 
HETATM   26  C21 UNK     1      30.293  -6.233  30.053  1.00  0.00     0.000 A 
HETATM   27  C20 UNK     1      29.879  -5.054  30.673  1.00  0.00     0.001 A 
HETATM   28  C15 UNK     1      29.561  -5.054  32.031  1.00  0.00     0.011 A 
ENDBRANCH   2  23
TORSDOF 6
ENDMDL
