MODEL 1
REMARK VINA RESULT:      -8.7      0.000      0.000
REMARK  8 active torsions:
REMARK  status: ('A' for Active; 'I' for Inactive)
REMARK    1  A    between atoms: C11_18  and  O1_2 
REMARK    2  A    between atoms: C2_9  and  O1_2 
REMARK    3  A    between atoms: C3_10  and  O2_3 
REMARK    4  A    between atoms: C9_16  and  O3_4 
REMARK    5  A    between atoms: C10_17  and  O4_5 
REMARK    6  A    between atoms: C1_8  and  C8_15 
REMARK    7  A    between atoms: C11_18  and  C4_11 
REMARK    8  A    between atoms: C12_19  and  C13_20 
ROOT
HETATM    1  N1  UNK     1      13.840   6.800  31.938  1.00  0.00    -0.191 NA
HETATM    2  C8  UNK     1      16.643   8.135  33.440  1.00  0.00     0.035 C 
HETATM    3  C12 UNK     1      15.339   8.472  33.250  1.00  0.00     0.055 C 
HETATM    4  C23 UNK     1      14.518   7.540  32.522  1.00  0.00     0.100 C 
ENDROOT
BRANCH   3   5
HETATM    5  C13 UNK     1      14.741   9.702  33.742  1.00  0.00    -0.015 A 
HETATM    6  C17 UNK     1      14.744   9.982  35.108  1.00  0.00     0.014 A 
HETATM    7  C19 UNK     1      14.171  11.163  35.581  1.00  0.00     0.024 A 
HETATM    8  C21 UNK     1      13.592  12.064  34.686  1.00  0.00     0.034 A 
HETATM    9  C20 UNK     1      13.589  11.784  33.320  1.00  0.00     0.024 A 
HETATM   10 Cl1  UNK     1      12.884  13.520  35.268  1.00  0.00    -0.084 Cl
HETATM   11  C18 UNK     1      14.163  10.604  32.847  1.00  0.00     0.014 A 
ENDBRANCH   3   5
BRANCH   2  12
HETATM   12  C1  UNK     1      17.287   6.902  32.966  1.00  0.00    -0.032 A 
HETATM   13  C5  UNK     1      17.786   6.846  31.674  1.00  0.00     0.051 A 
HETATM   14  C3  UNK     1      18.397   5.676  31.224  1.00  0.00     0.102 A 
HETATM   15  C2  UNK     1      18.502   4.574  32.073  1.00  0.00     0.112 A 
HETATM   16  C7  UNK     1      17.996   4.641  33.371  1.00  0.00     0.041 A 
HETATM   17  C6  UNK     1      17.385   5.813  33.820  1.00  0.00     0.014 A 
BRANCH  14  18
HETATM   18  O2  UNK     1      18.887   5.620  29.954  1.00  0.00    -0.353 OA
HETATM   19  C22 UNK     1      20.252   5.991  29.770  1.00  0.00     0.210 C 
ENDBRANCH  14  18
BRANCH  15  20
HETATM   20  O1  UNK     1      19.098   3.425  31.646  1.00  0.00    -0.272 OA
BRANCH  20  21
HETATM   21  C11 UNK     1      18.205   2.427  31.253  1.00  0.00     0.304 C 
HETATM   22  O5  UNK     1      17.178   2.600  30.612  1.00  0.00    -0.259 OA
BRANCH  21  23
HETATM   23  C4  UNK     1      18.649   1.093  31.731  1.00  0.00     0.106 A 
HETATM   24  C10 UNK     1      19.440   0.315  30.908  1.00  0.00     0.087 A 
HETATM   25  C15 UNK     1      19.857  -0.938  31.357  1.00  0.00     0.038 A 
HETATM   26  C16 UNK     1      19.476  -1.389  32.621  1.00  0.00     0.006 A 
HETATM   27  C14 UNK     1      18.676  -0.586  33.436  1.00  0.00     0.038 A 
HETATM   28  C9  UNK     1      18.259   0.666  32.986  1.00  0.00     0.087 A 
BRANCH  24  29
HETATM   29  O4  UNK     1      19.825   0.735  29.670  1.00  0.00    -0.355 OA
HETATM   30  C25 UNK     1      19.912  -0.254  28.648  1.00  0.00     0.210 C 
ENDBRANCH  24  29
BRANCH  28  31
HETATM   31  O3  UNK     1      17.478   1.434  33.797  1.00  0.00    -0.355 OA
HETATM   32  C24 UNK     1      17.184   0.915  35.092  1.00  0.00     0.210 C 
ENDBRANCH  28  31
ENDBRANCH  21  23
ENDBRANCH  20  21
ENDBRANCH  15  20
ENDBRANCH   2  12
TORSDOF 8
ENDMDL
MODEL 2
REMARK VINA RESULT:      -8.6      0.153      2.461
REMARK  8 active torsions:
REMARK  status: ('A' for Active; 'I' for Inactive)
REMARK    1  A    between atoms: C11_18  and  O1_2 
REMARK    2  A    between atoms: C2_9  and  O1_2 
REMARK    3  A    between atoms: C3_10  and  O2_3 
REMARK    4  A    between atoms: C9_16  and  O3_4 
REMARK    5  A    between atoms: C10_17  and  O4_5 
REMARK    6  A    between atoms: C1_8  and  C8_15 
REMARK    7  A    between atoms: C11_18  and  C4_11 
REMARK    8  A    between atoms: C12_19  and  C13_20 
ROOT
HETATM    1  N1  UNK     1      13.778   6.847  31.950  1.00  0.00    -0.191 NA
HETATM    2  C8  UNK     1      16.547   8.185  33.511  1.00  0.00     0.035 C 
HETATM    3  C12 UNK     1      15.242   8.510  33.312  1.00  0.00     0.055 C 
HETATM    4  C23 UNK     1      14.440   7.583  32.557  1.00  0.00     0.100 C 
ENDROOT
BRANCH   3   5
HETATM    5  C13 UNK     1      14.624   9.724  33.820  1.00  0.00    -0.015 A 
HETATM    6  C17 UNK     1      13.954  10.584  32.951  1.00  0.00     0.014 A 
HETATM    7  C19 UNK     1      13.361  11.748  33.439  1.00  0.00     0.024 A 
HETATM    8  C21 UNK     1      13.437  12.053  34.799  1.00  0.00     0.034 A 
HETATM    9  C20 UNK     1      14.107  11.193  35.668  1.00  0.00     0.024 A 
HETATM   10 Cl1  UNK     1      12.705  13.489  35.401  1.00  0.00    -0.084 Cl
HETATM   11  C18 UNK     1      14.700  10.028  35.180  1.00  0.00     0.014 A 
ENDBRANCH   3   5
BRANCH   2  12
HETATM   12  C1  UNK     1      17.211   6.968  33.021  1.00  0.00    -0.032 A 
HETATM   13  C5  UNK     1      17.721   6.941  31.732  1.00  0.00     0.051 A 
HETATM   14  C3  UNK     1      18.351   5.787  31.268  1.00  0.00     0.102 A 
HETATM   15  C2  UNK     1      18.464   4.672  32.098  1.00  0.00     0.112 A 
HETATM   16  C7  UNK     1      17.946   4.711  33.393  1.00  0.00     0.041 A 
HETATM   17  C6  UNK     1      17.317   5.866  33.857  1.00  0.00     0.014 A 
BRANCH  14  18
HETATM   18  O2  UNK     1      18.852   5.760  30.001  1.00  0.00    -0.353 OA
HETATM   19  C22 UNK     1      20.254   5.979  29.854  1.00  0.00     0.210 C 
ENDBRANCH  14  18
BRANCH  15  20
HETATM   20  O1  UNK     1      19.079   3.538  31.657  1.00  0.00    -0.272 OA
BRANCH  20  21
HETATM   21  C11 UNK     1      18.202   2.534  31.243  1.00  0.00     0.304 C 
HETATM   22  O5  UNK     1      17.193   2.699  30.571  1.00  0.00    -0.259 OA
BRANCH  21  23
HETATM   23  C4  UNK     1      18.637   1.205  31.741  1.00  0.00     0.106 A 
HETATM   24  C10 UNK     1      18.244   0.799  33.002  1.00  0.00     0.087 A 
HETATM   25  C15 UNK     1      18.653  -0.449  33.470  1.00  0.00     0.038 A 
HETATM   26  C16 UNK     1      19.447  -1.269  32.667  1.00  0.00     0.006 A 
HETATM   27  C14 UNK     1      19.832  -0.840  31.397  1.00  0.00     0.038 A 
HETATM   28  C9  UNK     1      19.424   0.410  30.930  1.00  0.00     0.087 A 
BRANCH  24  29
HETATM   29  O4  UNK     1      17.468   1.584  33.802  1.00  0.00    -0.355 OA
HETATM   30  C25 UNK     1      16.879   0.964  34.942  1.00  0.00     0.210 C 
ENDBRANCH  24  29
BRANCH  28  31
HETATM   31  O3  UNK     1      19.812   0.810  29.687  1.00  0.00    -0.355 OA
HETATM   32  C24 UNK     1      20.151  -0.213  28.753  1.00  0.00     0.210 C 
ENDBRANCH  28  31
ENDBRANCH  21  23
ENDBRANCH  20  21
ENDBRANCH  15  20
ENDBRANCH   2  12
TORSDOF 8
ENDMDL
MODEL 3
REMARK VINA RESULT:      -8.2      1.759      2.016
REMARK  8 active torsions:
REMARK  status: ('A' for Active; 'I' for Inactive)
REMARK    1  A    between atoms: C11_18  and  O1_2 
REMARK    2  A    between atoms: C2_9  and  O1_2 
REMARK    3  A    between atoms: C3_10  and  O2_3 
REMARK    4  A    between atoms: C9_16  and  O3_4 
REMARK    5  A    between atoms: C10_17  and  O4_5 
REMARK    6  A    between atoms: C1_8  and  C8_15 
REMARK    7  A    between atoms: C11_18  and  C4_11 
REMARK    8  A    between atoms: C12_19  and  C13_20 
ROOT
HETATM    1  N1  UNK     1      20.013   9.027  34.399  1.00  0.00    -0.191 NA
HETATM    2  C8  UNK     1      16.807   8.283  33.369  1.00  0.00     0.035 C 
HETATM    3  C12 UNK     1      17.464   9.311  33.970  1.00  0.00     0.055 C 
HETATM    4  C23 UNK     1      18.875   9.145  34.204  1.00  0.00     0.100 C 
ENDROOT
BRANCH   3   5
HETATM    5  C13 UNK     1      16.825  10.553  34.376  1.00  0.00    -0.015 A 
HETATM    6  C17 UNK     1      17.516  11.760  34.273  1.00  0.00     0.014 A 
HETATM    7  C19 UNK     1      16.904  12.951  34.662  1.00  0.00     0.024 A 
HETATM    8  C21 UNK     1      15.598  12.935  35.156  1.00  0.00     0.034 A 
HETATM    9  C20 UNK     1      14.907  11.728  35.259  1.00  0.00     0.024 A 
HETATM   10 Cl1  UNK     1      14.842  14.404  35.636  1.00  0.00    -0.084 Cl
HETATM   11  C18 UNK     1      15.520  10.537  34.870  1.00  0.00     0.014 A 
ENDBRANCH   3   5
BRANCH   2  12
HETATM   12  C1  UNK     1      17.413   7.015  32.938  1.00  0.00    -0.032 A 
HETATM   13  C5  UNK     1      17.893   6.894  31.643  1.00  0.00     0.051 A 
HETATM   14  C3  UNK     1      18.469   5.692  31.233  1.00  0.00     0.102 A 
HETATM   15  C2  UNK     1      18.557   4.623  32.125  1.00  0.00     0.112 A 
HETATM   16  C7  UNK     1      18.070   4.756  33.425  1.00  0.00     0.041 A 
HETATM   17  C6  UNK     1      17.495   5.960  33.834  1.00  0.00     0.014 A 
BRANCH  14  18
HETATM   18  O2  UNK     1      18.940   5.572  29.961  1.00  0.00    -0.353 OA
HETATM   19  C22 UNK     1      20.308   5.910  29.743  1.00  0.00     0.210 C 
ENDBRANCH  14  18
BRANCH  15  20
HETATM   20  O1  UNK     1      19.118   3.442  31.738  1.00  0.00    -0.272 OA
BRANCH  20  21
HETATM   21  C11 UNK     1      18.195   2.461  31.374  1.00  0.00     0.304 C 
HETATM   22  O5  UNK     1      17.154   2.652  30.763  1.00  0.00    -0.259 OA
BRANCH  21  23
HETATM   23  C4  UNK     1      18.628   1.120  31.842  1.00  0.00     0.106 A 
HETATM   24  C10 UNK     1      19.424   0.346  31.020  1.00  0.00     0.087 A 
HETATM   25  C15 UNK     1      19.830  -0.914  31.460  1.00  0.00     0.038 A 
HETATM   26  C16 UNK     1      19.434  -1.375  32.715  1.00  0.00     0.006 A 
HETATM   27  C14 UNK     1      18.630  -0.577  33.530  1.00  0.00     0.038 A 
HETATM   28  C9  UNK     1      18.223   0.682  33.089  1.00  0.00     0.087 A 
BRANCH  24  29
HETATM   29  O4  UNK     1      19.823   0.777  29.790  1.00  0.00    -0.355 OA
HETATM   30  C25 UNK     1      20.402  -0.191  28.920  1.00  0.00     0.210 C 
ENDBRANCH  24  29
BRANCH  28  31
HETATM   31  O3  UNK     1      17.438   1.445  33.900  1.00  0.00    -0.355 OA
HETATM   32  C24 UNK     1      16.626   0.757  34.850  1.00  0.00     0.210 C 
ENDBRANCH  28  31
ENDBRANCH  21  23
ENDBRANCH  20  21
ENDBRANCH  15  20
ENDBRANCH   2  12
TORSDOF 8
ENDMDL
MODEL 4
REMARK VINA RESULT:      -8.2      1.871      3.091
REMARK  8 active torsions:
REMARK  status: ('A' for Active; 'I' for Inactive)
REMARK    1  A    between atoms: C11_18  and  O1_2 
REMARK    2  A    between atoms: C2_9  and  O1_2 
REMARK    3  A    between atoms: C3_10  and  O2_3 
REMARK    4  A    between atoms: C9_16  and  O3_4 
REMARK    5  A    between atoms: C10_17  and  O4_5 
REMARK    6  A    between atoms: C1_8  and  C8_15 
REMARK    7  A    between atoms: C11_18  and  C4_11 
REMARK    8  A    between atoms: C12_19  and  C13_20 
ROOT
HETATM    1  N1  UNK     1      20.120   8.962  34.448  1.00  0.00    -0.191 NA
HETATM    2  C8  UNK     1      16.954   8.353  33.225  1.00  0.00     0.035 C 
HETATM    3  C12 UNK     1      17.620   9.359  33.853  1.00  0.00     0.055 C 
HETATM    4  C23 UNK     1      19.004   9.130  34.179  1.00  0.00     0.100 C 
ENDROOT
BRANCH   3   5
HETATM    5  C13 UNK     1      17.017  10.636  34.201  1.00  0.00    -0.015 A 
HETATM    6  C17 UNK     1      17.797  11.791  34.229  1.00  0.00     0.014 A 
HETATM    7  C19 UNK     1      17.219  13.016  34.562  1.00  0.00     0.024 A 
HETATM    8  C21 UNK     1      15.859  13.086  34.868  1.00  0.00     0.034 A 
HETATM    9  C20 UNK     1      15.079  11.930  34.840  1.00  0.00     0.024 A 
HETATM   10 Cl1  UNK     1      15.146  14.596  35.279  1.00  0.00    -0.084 Cl
HETATM   11  C18 UNK     1      15.657  10.705  34.507  1.00  0.00     0.014 A 
ENDBRANCH   3   5
BRANCH   2  12
HETATM   12  C1  UNK     1      17.524   7.051  32.850  1.00  0.00    -0.032 A 
HETATM   13  C5  UNK     1      18.010   6.864  31.566  1.00  0.00     0.051 A 
HETATM   14  C3  UNK     1      18.552   5.629  31.210  1.00  0.00     0.102 A 
HETATM   15  C2  UNK     1      18.601   4.595  32.145  1.00  0.00     0.112 A 
HETATM   16  C7  UNK     1      18.108   4.795  33.434  1.00  0.00     0.041 A 
HETATM   17  C6  UNK     1      17.567   6.031  33.789  1.00  0.00     0.014 A 
BRANCH  14  18
HETATM   18  O2  UNK     1      19.029   5.444  29.948  1.00  0.00    -0.353 OA
HETATM   19  C22 UNK     1      20.312   5.994  29.653  1.00  0.00     0.210 C 
ENDBRANCH  14  18
BRANCH  15  20
HETATM   20  O1  UNK     1      19.129   3.383  31.810  1.00  0.00    -0.272 OA
BRANCH  20  21
HETATM   21  C11 UNK     1      18.184   2.435  31.416  1.00  0.00     0.304 C 
HETATM   22  O5  UNK     1      17.140   2.671  30.824  1.00  0.00    -0.259 OA
BRANCH  21  23
HETATM   23  C4  UNK     1      18.595   1.068  31.824  1.00  0.00     0.106 A 
HETATM   24  C10 UNK     1      18.190   0.584  33.053  1.00  0.00     0.087 A 
HETATM   25  C15 UNK     1      18.576  -0.700  33.437  1.00  0.00     0.038 A 
HETATM   26  C16 UNK     1      19.359  -1.477  32.583  1.00  0.00     0.006 A 
HETATM   27  C14 UNK     1      19.757  -0.969  31.346  1.00  0.00     0.038 A 
HETATM   28  C9  UNK     1      19.372   0.316  30.963  1.00  0.00     0.087 A 
BRANCH  24  29
HETATM   29  O4  UNK     1      17.424   1.326  33.902  1.00  0.00    -0.355 OA
HETATM   30  C25 UNK     1      17.980   1.629  35.179  1.00  0.00     0.210 C 
ENDBRANCH  24  29
BRANCH  28  31
HETATM   31  O3  UNK     1      19.772   0.793  29.752  1.00  0.00    -0.355 OA
HETATM   32  C24 UNK     1      19.439   0.012  28.606  1.00  0.00     0.210 C 
ENDBRANCH  28  31
ENDBRANCH  21  23
ENDBRANCH  20  21
ENDBRANCH  15  20
ENDBRANCH   2  12
TORSDOF 8
ENDMDL
MODEL 5
REMARK VINA RESULT:      -8.1      5.721     10.787
REMARK  8 active torsions:
REMARK  status: ('A' for Active; 'I' for Inactive)
REMARK    1  A    between atoms: C11_18  and  O1_2 
REMARK    2  A    between atoms: C2_9  and  O1_2 
REMARK    3  A    between atoms: C3_10  and  O2_3 
REMARK    4  A    between atoms: C9_16  and  O3_4 
REMARK    5  A    between atoms: C10_17  and  O4_5 
REMARK    6  A    between atoms: C1_8  and  C8_15 
REMARK    7  A    between atoms: C11_18  and  C4_11 
REMARK    8  A    between atoms: C12_19  and  C13_20 
ROOT
HETATM    1  N1  UNK     1      21.863  -1.711  35.345  1.00  0.00    -0.191 NA
HETATM    2  C8  UNK     1      18.564  -2.485  35.983  1.00  0.00     0.035 C 
HETATM    3  C12 UNK     1      19.792  -3.021  36.215  1.00  0.00     0.055 C 
HETATM    4  C23 UNK     1      20.932  -2.288  35.729  1.00  0.00     0.100 C 
ENDROOT
BRANCH   3   5
HETATM    5  C13 UNK     1      20.008  -4.272  36.924  1.00  0.00    -0.015 A 
HETATM    6  C17 UNK     1      19.062  -5.293  36.843  1.00  0.00     0.014 A 
HETATM    7  C19 UNK     1      19.270  -6.493  37.522  1.00  0.00     0.024 A 
HETATM    8  C21 UNK     1      20.426  -6.672  38.285  1.00  0.00     0.034 A 
HETATM    9  C20 UNK     1      21.371  -5.651  38.366  1.00  0.00     0.024 A 
HETATM   10 Cl1  UNK     1      20.682  -8.153  39.123  1.00  0.00    -0.084 Cl
HETATM   11  C18 UNK     1      21.164  -4.450  37.686  1.00  0.00     0.014 A 
ENDBRANCH   3   5
BRANCH   2  12
HETATM   12  C1  UNK     1      18.299  -1.222  35.278  1.00  0.00    -0.032 A 
HETATM   13  C5  UNK     1      18.599  -1.119  33.928  1.00  0.00     0.051 A 
HETATM   14  C3  UNK     1      18.347   0.078  33.259  1.00  0.00     0.102 A 
HETATM   15  C2  UNK     1      17.800   1.160  33.948  1.00  0.00     0.112 A 
HETATM   16  C7  UNK     1      17.503   1.045  35.306  1.00  0.00     0.041 A 
HETATM   17  C6  UNK     1      17.754  -0.153  35.975  1.00  0.00     0.014 A 
BRANCH  14  18
HETATM   18  O2  UNK     1      18.642   0.180  31.933  1.00  0.00    -0.353 OA
HETATM   19  C22 UNK     1      19.681  -0.660  31.434  1.00  0.00     0.210 C 
ENDBRANCH  14  18
BRANCH  15  20
HETATM   20  O1  UNK     1      17.548   2.336  33.306  1.00  0.00    -0.272 OA
BRANCH  20  21
HETATM   21  C11 UNK     1      18.375   3.390  33.695  1.00  0.00     0.304 C 
HETATM   22  O5  UNK     1      19.084   3.412  34.691  1.00  0.00    -0.259 OA
BRANCH  21  23
HETATM   23  C4  UNK     1      18.281   4.524  32.740  1.00  0.00     0.106 A 
HETATM   24  C10 UNK     1      18.648   4.325  31.423  1.00  0.00     0.087 A 
HETATM   25  C15 UNK     1      18.560   5.390  30.527  1.00  0.00     0.038 A 
HETATM   26  C16 UNK     1      18.105   6.634  30.965  1.00  0.00     0.006 A 
HETATM   27  C14 UNK     1      17.740   6.813  32.300  1.00  0.00     0.038 A 
HETATM   28  C9  UNK     1      17.829   5.748  33.196  1.00  0.00     0.087 A 
BRANCH  24  29
HETATM   29  O4  UNK     1      19.094   3.118  30.974  1.00  0.00    -0.355 OA
HETATM   30  C25 UNK     1      18.649   2.701  29.686  1.00  0.00     0.210 C 
ENDBRANCH  24  29
BRANCH  28  31
HETATM   31  O3  UNK     1      17.468   5.945  34.495  1.00  0.00    -0.355 OA
HETATM   32  C24 UNK     1      16.755   7.143  34.794  1.00  0.00     0.210 C 
ENDBRANCH  28  31
ENDBRANCH  21  23
ENDBRANCH  20  21
ENDBRANCH  15  20
ENDBRANCH   2  12
TORSDOF 8
ENDMDL
MODEL 6
REMARK VINA RESULT:      -8.1      5.726     10.990
REMARK  8 active torsions:
REMARK  status: ('A' for Active; 'I' for Inactive)
REMARK    1  A    between atoms: C11_18  and  O1_2 
REMARK    2  A    between atoms: C2_9  and  O1_2 
REMARK    3  A    between atoms: C3_10  and  O2_3 
REMARK    4  A    between atoms: C9_16  and  O3_4 
REMARK    5  A    between atoms: C10_17  and  O4_5 
REMARK    6  A    between atoms: C1_8  and  C8_15 
REMARK    7  A    between atoms: C11_18  and  C4_11 
REMARK    8  A    between atoms: C12_19  and  C13_20 
ROOT
HETATM    1  N1  UNK     1      21.875  -1.718  35.352  1.00  0.00    -0.191 NA
HETATM    2  C8  UNK     1      18.575  -2.501  35.975  1.00  0.00     0.035 C 
HETATM    3  C12 UNK     1      19.804  -3.033  36.214  1.00  0.00     0.055 C 
HETATM    4  C23 UNK     1      20.944  -2.297  35.733  1.00  0.00     0.100 C 
ENDROOT
BRANCH   3   5
HETATM    5  C13 UNK     1      20.021  -4.282  36.927  1.00  0.00    -0.015 A 
HETATM    6  C17 UNK     1      21.175  -4.459  37.688  1.00  0.00     0.014 A 
HETATM    7  C19 UNK     1      21.384  -5.657  38.371  1.00  0.00     0.024 A 
HETATM    8  C21 UNK     1      20.437  -6.679  38.293  1.00  0.00     0.034 A 
HETATM    9  C20 UNK     1      19.282  -6.502  37.531  1.00  0.00     0.024 A 
HETATM   10 Cl1  UNK     1      20.694  -8.157  39.135  1.00  0.00    -0.084 Cl
HETATM   11  C18 UNK     1      19.073  -5.303  36.848  1.00  0.00     0.014 A 
ENDBRANCH   3   5
BRANCH   2  12
HETATM   12  C1  UNK     1      18.309  -1.241  35.266  1.00  0.00    -0.032 A 
HETATM   13  C5  UNK     1      18.634  -1.133  33.923  1.00  0.00     0.051 A 
HETATM   14  C3  UNK     1      18.382   0.062  33.250  1.00  0.00     0.102 A 
HETATM   15  C2  UNK     1      17.808   1.137  33.930  1.00  0.00     0.112 A 
HETATM   16  C7  UNK     1      17.486   1.016  35.282  1.00  0.00     0.041 A 
HETATM   17  C6  UNK     1      17.738  -0.180  35.954  1.00  0.00     0.014 A 
BRANCH  14  18
HETATM   18  O2  UNK     1      18.701   0.170  31.930  1.00  0.00    -0.353 OA
HETATM   19  C22 UNK     1      19.688  -0.729  31.428  1.00  0.00     0.210 C 
ENDBRANCH  14  18
BRANCH  15  20
HETATM   20  O1  UNK     1      17.555   2.310  33.283  1.00  0.00    -0.272 OA
BRANCH  20  21
HETATM   21  C11 UNK     1      18.359   3.375  33.693  1.00  0.00     0.304 C 
HETATM   22  O5  UNK     1      19.039   3.407  34.709  1.00  0.00    -0.259 OA
BRANCH  21  23
HETATM   23  C4  UNK     1      18.278   4.506  32.734  1.00  0.00     0.106 A 
HETATM   24  C10 UNK     1      17.846   5.738  33.184  1.00  0.00     0.087 A 
HETATM   25  C15 UNK     1      17.771   6.800  32.284  1.00  0.00     0.038 A 
HETATM   26  C16 UNK     1      18.130   6.610  30.949  1.00  0.00     0.006 A 
HETATM   27  C14 UNK     1      18.564   5.357  30.515  1.00  0.00     0.038 A 
HETATM   28  C9  UNK     1      18.638   4.295  31.417  1.00  0.00     0.087 A 
BRANCH  24  29
HETATM   29  O4  UNK     1      17.491   5.947  34.484  1.00  0.00    -0.355 OA
HETATM   30  C25 UNK     1      16.741   7.124  34.769  1.00  0.00     0.210 C 
ENDBRANCH  24  29
BRANCH  28  31
HETATM   31  O3  UNK     1      19.063   3.079  30.972  1.00  0.00    -0.355 OA
HETATM   32  C24 UNK     1      18.668   2.696  29.657  1.00  0.00     0.210 C 
ENDBRANCH  28  31
ENDBRANCH  21  23
ENDBRANCH  20  21
ENDBRANCH  15  20
ENDBRANCH   2  12
TORSDOF 8
ENDMDL
MODEL 7
REMARK VINA RESULT:      -8.0      1.161      2.038
REMARK  8 active torsions:
REMARK  status: ('A' for Active; 'I' for Inactive)
REMARK    1  A    between atoms: C11_18  and  O1_2 
REMARK    2  A    between atoms: C2_9  and  O1_2 
REMARK    3  A    between atoms: C3_10  and  O2_3 
REMARK    4  A    between atoms: C9_16  and  O3_4 
REMARK    5  A    between atoms: C10_17  and  O4_5 
REMARK    6  A    between atoms: C1_8  and  C8_15 
REMARK    7  A    between atoms: C11_18  and  C4_11 
REMARK    8  A    between atoms: C12_19  and  C13_20 
ROOT
HETATM    1  N1  UNK     1      14.044   6.743  31.913  1.00  0.00    -0.191 NA
HETATM    2  C8  UNK     1      17.006   8.228  32.871  1.00  0.00     0.035 C 
HETATM    3  C12 UNK     1      15.684   8.543  32.826  1.00  0.00     0.055 C 
HETATM    4  C23 UNK     1      14.784   7.540  32.319  1.00  0.00     0.100 C 
ENDROOT
BRANCH   3   5
HETATM    5  C13 UNK     1      15.141   9.819  33.264  1.00  0.00    -0.015 A 
HETATM    6  C17 UNK     1      15.964  10.746  33.903  1.00  0.00     0.014 A 
HETATM    7  C19 UNK     1      15.443  11.970  34.322  1.00  0.00     0.024 A 
HETATM    8  C21 UNK     1      14.097  12.268  34.103  1.00  0.00     0.034 A 
HETATM    9  C20 UNK     1      13.275  11.341  33.464  1.00  0.00     0.024 A 
HETATM   10 Cl1  UNK     1      13.455  13.777  34.621  1.00  0.00    -0.084 Cl
HETATM   11  C18 UNK     1      13.795  10.117  33.044  1.00  0.00     0.014 A 
ENDBRANCH   3   5
BRANCH   2  12
HETATM   12  C1  UNK     1      17.596   6.950  32.445  1.00  0.00    -0.032 A 
HETATM   13  C5  UNK     1      17.628   5.884  33.331  1.00  0.00     0.051 A 
HETATM   14  C3  UNK     1      18.187   4.673  32.927  1.00  0.00     0.102 A 
HETATM   15  C2  UNK     1      18.710   4.541  31.640  1.00  0.00     0.112 A 
HETATM   16  C7  UNK     1      18.673   5.620  30.758  1.00  0.00     0.041 A 
HETATM   17  C6  UNK     1      18.113   6.832  31.163  1.00  0.00     0.014 A 
BRANCH  14  18
HETATM   18  O2  UNK     1      18.219   3.625  33.797  1.00  0.00    -0.353 OA
HETATM   19  C22 UNK     1      19.071   3.753  34.934  1.00  0.00     0.210 C 
ENDBRANCH  14  18
BRANCH  15  20
HETATM   20  O1  UNK     1      19.258   3.361  31.233  1.00  0.00    -0.272 OA
BRANCH  20  21
HETATM   21  C11 UNK     1      18.327   2.356  30.970  1.00  0.00     0.304 C 
HETATM   22  O5  UNK     1      17.111   2.490  30.973  1.00  0.00    -0.259 OA
BRANCH  21  23
HETATM   23  C4  UNK     1      19.000   1.062  30.694  1.00  0.00     0.106 A 
HETATM   24  C10 UNK     1      19.305   0.729  29.388  1.00  0.00     0.087 A 
HETATM   25  C15 UNK     1      19.937  -0.487  29.129  1.00  0.00     0.038 A 
HETATM   26  C16 UNK     1      20.254  -1.347  30.181  1.00  0.00     0.006 A 
HETATM   27  C14 UNK     1      19.937  -0.991  31.492  1.00  0.00     0.038 A 
HETATM   28  C9  UNK     1      19.303   0.225  31.751  1.00  0.00     0.087 A 
BRANCH  24  29
HETATM   29  O4  UNK     1      19.005   1.554  28.345  1.00  0.00    -0.355 OA
HETATM   30  C25 UNK     1      17.654   1.559  27.891  1.00  0.00     0.210 C 
ENDBRANCH  24  29
BRANCH  28  31
HETATM   31  O3  UNK     1      19.002   0.552  33.038  1.00  0.00    -0.355 OA
HETATM   32  C24 UNK     1      18.302  -0.422  33.808  1.00  0.00     0.210 C 
ENDBRANCH  28  31
ENDBRANCH  21  23
ENDBRANCH  20  21
ENDBRANCH  15  20
ENDBRANCH   2  12
TORSDOF 8
ENDMDL
MODEL 8
REMARK VINA RESULT:      -8.0     14.597     18.812
REMARK  8 active torsions:
REMARK  status: ('A' for Active; 'I' for Inactive)
REMARK    1  A    between atoms: C11_18  and  O1_2 
REMARK    2  A    between atoms: C2_9  and  O1_2 
REMARK    3  A    between atoms: C3_10  and  O2_3 
REMARK    4  A    between atoms: C9_16  and  O3_4 
REMARK    5  A    between atoms: C10_17  and  O4_5 
REMARK    6  A    between atoms: C1_8  and  C8_15 
REMARK    7  A    between atoms: C11_18  and  C4_11 
REMARK    8  A    between atoms: C12_19  and  C13_20 
ROOT
HETATM    1  N1  UNK     1      27.373 -10.221  39.948  1.00  0.00    -0.191 NA
HETATM    2  C8  UNK     1      27.562  -9.108  36.690  1.00  0.00     0.035 C 
HETATM    3  C12 UNK     1      28.356  -9.148  37.793  1.00  0.00     0.055 C 
HETATM    4  C23 UNK     1      27.803  -9.744  38.981  1.00  0.00     0.100 C 
ENDROOT
BRANCH   3   5
HETATM    5  C13 UNK     1      29.716  -8.635  37.830  1.00  0.00    -0.015 A 
HETATM    6  C17 UNK     1      30.778  -9.440  37.420  1.00  0.00     0.014 A 
HETATM    7  C19 UNK     1      32.082  -8.948  37.455  1.00  0.00     0.024 A 
HETATM    8  C21 UNK     1      32.326  -7.648  37.903  1.00  0.00     0.034 A 
HETATM    9  C20 UNK     1      31.264  -6.843  38.313  1.00  0.00     0.024 A 
HETATM   10 Cl1  UNK     1      33.935  -7.041  37.947  1.00  0.00    -0.084 Cl
HETATM   11  C18 UNK     1      29.959  -7.335  38.278  1.00  0.00     0.014 A 
ENDBRANCH   3   5
BRANCH   2  12
HETATM   12  C1  UNK     1      26.186  -9.619  36.606  1.00  0.00    -0.032 A 
HETATM   13  C5  UNK     1      25.952 -10.854  36.020  1.00  0.00     0.051 A 
HETATM   14  C3  UNK     1      24.647 -11.339  35.941  1.00  0.00     0.102 A 
HETATM   15  C2  UNK     1      23.590 -10.583  36.448  1.00  0.00     0.112 A 
HETATM   16  C7  UNK     1      23.838  -9.342  37.035  1.00  0.00     0.041 A 
HETATM   17  C6  UNK     1      25.144  -8.857  37.114  1.00  0.00     0.014 A 
BRANCH  14  18
HETATM   18  O2  UNK     1      24.416 -12.552  35.365  1.00  0.00    -0.353 OA
HETATM   19  C22 UNK     1      24.686 -13.707  36.158  1.00  0.00     0.210 C 
ENDBRANCH  14  18
BRANCH  15  20
HETATM   20  O1  UNK     1      22.310 -11.047  36.378  1.00  0.00    -0.272 OA
BRANCH  20  21
HETATM   21  C11 UNK     1      21.533 -10.438  35.391  1.00  0.00     0.304 C 
HETATM   22  O5  UNK     1      21.630 -10.629  34.188  1.00  0.00    -0.259 OA
BRANCH  21  23
HETATM   23  C4  UNK     1      20.557  -9.491  35.987  1.00  0.00     0.106 A 
HETATM   24  C10 UNK     1      20.499  -8.197  35.508  1.00  0.00     0.087 A 
HETATM   25  C15 UNK     1      19.582  -7.307  36.067  1.00  0.00     0.038 A 
HETATM   26  C16 UNK     1      18.739  -7.730  37.095  1.00  0.00     0.006 A 
HETATM   27  C14 UNK     1      18.814  -9.042  37.564  1.00  0.00     0.038 A 
HETATM   28  C9  UNK     1      19.732  -9.930  37.005  1.00  0.00     0.087 A 
BRANCH  24  29
HETATM   29  O4  UNK     1      21.313  -7.763  34.504  1.00  0.00    -0.355 OA
HETATM   30  C25 UNK     1      20.709  -6.997  33.465  1.00  0.00     0.210 C 
ENDBRANCH  24  29
BRANCH  28  31
HETATM   31  O3  UNK     1      19.789 -11.207  37.479  1.00  0.00    -0.355 OA
HETATM   32  C24 UNK     1      19.479 -11.401  38.857  1.00  0.00     0.210 C 
ENDBRANCH  28  31
ENDBRANCH  21  23
ENDBRANCH  20  21
ENDBRANCH  15  20
ENDBRANCH   2  12
TORSDOF 8
ENDMDL
MODEL 9
REMARK VINA RESULT:      -8.0      1.132      2.919
REMARK  8 active torsions:
REMARK  status: ('A' for Active; 'I' for Inactive)
REMARK    1  A    between atoms: C11_18  and  O1_2 
REMARK    2  A    between atoms: C2_9  and  O1_2 
REMARK    3  A    between atoms: C3_10  and  O2_3 
REMARK    4  A    between atoms: C9_16  and  O3_4 
REMARK    5  A    between atoms: C10_17  and  O4_5 
REMARK    6  A    between atoms: C1_8  and  C8_15 
REMARK    7  A    between atoms: C11_18  and  C4_11 
REMARK    8  A    between atoms: C12_19  and  C13_20 
ROOT
HETATM    1  N1  UNK     1      14.110   6.740  31.841  1.00  0.00    -0.191 NA
HETATM    2  C8  UNK     1      17.040   8.077  33.075  1.00  0.00     0.035 C 
HETATM    3  C12 UNK     1      15.730   8.429  32.975  1.00  0.00     0.055 C 
HETATM    4  C23 UNK     1      14.841   7.487  32.346  1.00  0.00     0.100 C 
ENDROOT
BRANCH   3   5
HETATM    5  C13 UNK     1      15.189   9.684  33.471  1.00  0.00    -0.015 A 
HETATM    6  C17 UNK     1      13.882  10.054  33.157  1.00  0.00     0.014 A 
HETATM    7  C19 UNK     1      13.362  11.257  33.633  1.00  0.00     0.024 A 
HETATM    8  C21 UNK     1      14.152  12.094  34.424  1.00  0.00     0.034 A 
HETATM    9  C20 UNK     1      15.459  11.724  34.739  1.00  0.00     0.024 A 
HETATM   10 Cl1  UNK     1      13.511  13.579  35.011  1.00  0.00    -0.084 Cl
HETATM   11  C18 UNK     1      15.978  10.519  34.263  1.00  0.00     0.014 A 
ENDBRANCH   3   5
BRANCH   2  12
HETATM   12  C1  UNK     1      17.628   6.819  32.594  1.00  0.00    -0.032 A 
HETATM   13  C5  UNK     1      17.616   5.702  33.415  1.00  0.00     0.051 A 
HETATM   14  C3  UNK     1      18.173   4.508  32.959  1.00  0.00     0.102 A 
HETATM   15  C2  UNK     1      18.736   4.444  31.685  1.00  0.00     0.112 A 
HETATM   16  C7  UNK     1      18.743   5.574  30.867  1.00  0.00     0.041 A 
HETATM   17  C6  UNK     1      18.185   6.768  31.324  1.00  0.00     0.014 A 
BRANCH  14  18
HETATM   18  O2  UNK     1      18.162   3.411  33.766  1.00  0.00    -0.353 OA
HETATM   19  C22 UNK     1      18.893   3.499  34.988  1.00  0.00     0.210 C 
ENDBRANCH  14  18
BRANCH  15  20
HETATM   20  O1  UNK     1      19.283   3.283  31.226  1.00  0.00    -0.272 OA
BRANCH  20  21
HETATM   21  C11 UNK     1      18.349   2.296  30.908  1.00  0.00     0.304 C 
HETATM   22  O5  UNK     1      17.135   2.443  30.883  1.00  0.00    -0.259 OA
BRANCH  21  23
HETATM   23  C4  UNK     1      19.017   1.003  30.611  1.00  0.00     0.106 A 
HETATM   24  C10 UNK     1      19.347   0.163  31.657  1.00  0.00     0.087 A 
HETATM   25  C15 UNK     1      19.974  -1.051  31.378  1.00  0.00     0.038 A 
HETATM   26  C16 UNK     1      20.259  -1.402  30.058  1.00  0.00     0.006 A 
HETATM   27  C14 UNK     1      19.917  -0.539  29.017  1.00  0.00     0.038 A 
HETATM   28  C9  UNK     1      19.290   0.676  29.297  1.00  0.00     0.087 A 
BRANCH  24  29
HETATM   29  O4  UNK     1      19.077   0.486  32.953  1.00  0.00    -0.355 OA
HETATM   30  C25 UNK     1      18.375  -0.481  33.729  1.00  0.00     0.210 C 
ENDBRANCH  24  29
BRANCH  28  31
HETATM   31  O3  UNK     1      18.966   1.505  28.265  1.00  0.00    -0.355 OA
HETATM   32  C24 UNK     1      17.606   1.504  27.836  1.00  0.00     0.210 C 
ENDBRANCH  28  31
ENDBRANCH  21  23
ENDBRANCH  20  21
ENDBRANCH  15  20
ENDBRANCH   2  12
TORSDOF 8
ENDMDL
MODEL 10
REMARK VINA RESULT:      -8.0      6.767     11.978
REMARK  8 active torsions:
REMARK  status: ('A' for Active; 'I' for Inactive)
REMARK    1  A    between atoms: C11_18  and  O1_2 
REMARK    2  A    between atoms: C2_9  and  O1_2 
REMARK    3  A    between atoms: C3_10  and  O2_3 
REMARK    4  A    between atoms: C9_16  and  O3_4 
REMARK    5  A    between atoms: C10_17  and  O4_5 
REMARK    6  A    between atoms: C1_8  and  C8_15 
REMARK    7  A    between atoms: C11_18  and  C4_11 
REMARK    8  A    between atoms: C12_19  and  C13_20 
ROOT
HETATM    1  N1  UNK     1      20.026  -5.818  34.603  1.00  0.00    -0.191 NA
HETATM    2  C8  UNK     1      20.029  -3.763  37.372  1.00  0.00     0.035 C 
HETATM    3  C12 UNK     1      20.391  -5.035  37.056  1.00  0.00     0.055 C 
HETATM    4  C23 UNK     1      20.185  -5.459  35.695  1.00  0.00     0.100 C 
ENDROOT
BRANCH   3   5
HETATM    5  C13 UNK     1      20.973  -5.971  38.004  1.00  0.00    -0.015 A 
HETATM    6  C17 UNK     1      20.194  -6.994  38.543  1.00  0.00     0.014 A 
HETATM    7  C19 UNK     1      20.753  -7.892  39.453  1.00  0.00     0.024 A 
HETATM    8  C21 UNK     1      22.093  -7.767  39.824  1.00  0.00     0.034 A 
HETATM    9  C20 UNK     1      22.872  -6.744  39.285  1.00  0.00     0.024 A 
HETATM   10 Cl1  UNK     1      22.782  -8.874  40.946  1.00  0.00    -0.084 Cl
HETATM   11  C18 UNK     1      22.313  -5.845  38.374  1.00  0.00     0.014 A 
ENDBRANCH   3   5
BRANCH   2  12
HETATM   12  C1  UNK     1      19.444  -2.783  36.446  1.00  0.00    -0.032 A 
HETATM   13  C5  UNK     1      18.236  -2.181  36.763  1.00  0.00     0.051 A 
HETATM   14  C3  UNK     1      17.681  -1.252  35.884  1.00  0.00     0.102 A 
HETATM   15  C2  UNK     1      18.341  -0.934  34.697  1.00  0.00     0.112 A 
HETATM   16  C7  UNK     1      19.555  -1.547  34.388  1.00  0.00     0.041 A 
HETATM   17  C6  UNK     1      20.110  -2.477  35.268  1.00  0.00     0.014 A 
BRANCH  14  18
HETATM   18  O2  UNK     1      16.494  -0.660  36.195  1.00  0.00    -0.353 OA
HETATM   19  C22 UNK     1      16.548   0.528  36.982  1.00  0.00     0.210 C 
ENDBRANCH  14  18
BRANCH  15  20
HETATM   20  O1  UNK     1      17.810  -0.026  33.830  1.00  0.00    -0.272 OA
BRANCH  20  21
HETATM   21  C11 UNK     1      18.513   1.177  33.759  1.00  0.00     0.304 C 
HETATM   22  O5  UNK     1      18.988   1.784  34.708  1.00  0.00    -0.259 OA
BRANCH  21  23
HETATM   23  C4  UNK     1      18.606   1.660  32.358  1.00  0.00     0.106 A 
HETATM   24  C10 UNK     1      19.122   0.819  31.391  1.00  0.00     0.087 A 
HETATM   25  C15 UNK     1      19.209   1.273  30.075  1.00  0.00     0.038 A 
HETATM   26  C16 UNK     1      18.777   2.559  29.751  1.00  0.00     0.006 A 
HETATM   27  C14 UNK     1      18.259   3.392  30.743  1.00  0.00     0.038 A 
HETATM   28  C9  UNK     1      18.173   2.938  32.059  1.00  0.00     0.087 A 
BRANCH  24  29
HETATM   29  O4  UNK     1      19.549  -0.441  31.686  1.00  0.00    -0.355 OA
HETATM   30  C25 UNK     1      20.374  -1.088  30.720  1.00  0.00     0.210 C 
ENDBRANCH  24  29
BRANCH  28  31
HETATM   31  O3  UNK     1      17.664   3.768  33.012  1.00  0.00    -0.355 OA
HETATM   32  C24 UNK     1      17.837   5.169  32.811  1.00  0.00     0.210 C 
ENDBRANCH  28  31
ENDBRANCH  21  23
ENDBRANCH  20  21
ENDBRANCH  15  20
ENDBRANCH   2  12
TORSDOF 8
ENDMDL
