MODEL 1
REMARK VINA RESULT:      -9.1      0.000      0.000
REMARK  2 active torsions:
REMARK  status: ('A' for Active; 'I' for Inactive)
REMARK    1  A    between atoms: C1_5  and  N1_4 
REMARK       I    between atoms: C8_12  and  N1_4 
REMARK    2  A    between atoms: C8_12  and  C9_13 
ROOT
HETATM    1  O2  UNK     1      18.892   0.099  32.459  1.00  0.00    -0.274 OA
HETATM    2  O3  UNK     1      17.942   2.160  32.724  1.00  0.00    -0.259 OA
HETATM    3  C9  UNK     1      18.930   1.709  30.618  1.00  0.00     0.108 A 
HETATM    4  C10 UNK     1      19.585   0.840  29.838  1.00  0.00     0.037 A 
HETATM    5  C11 UNK     1      18.543   1.368  32.005  1.00  0.00     0.304 A 
HETATM    6  C12 UNK     1      19.936  -0.479  30.341  1.00  0.00    -0.001 A 
HETATM    7  C13 UNK     1      19.580  -0.819  31.642  1.00  0.00     0.089 A 
HETATM    8  C14 UNK     1      20.618  -1.416  29.561  1.00  0.00     0.014 A 
HETATM    9  C15 UNK     1      19.886  -2.065  32.184  1.00  0.00     0.038 A 
HETATM   10  C16 UNK     1      20.933  -2.671  30.092  1.00  0.00     0.001 A 
HETATM   11  C17 UNK     1      20.567  -2.995  31.400  1.00  0.00     0.003 A 
ENDROOT
BRANCH   3  12
HETATM   12  C8  UNK     1      18.620   3.018  30.018  1.00  0.00     0.258 C 
HETATM   13  O1  UNK     1      18.192   3.095  28.872  1.00  0.00    -0.267 OA
HETATM   14  N1  UNK     1      18.867   4.066  30.880  1.00  0.00    -0.352 N 
HETATM   15  H14 UNK     1      19.289   3.885  31.785  1.00  0.00     0.163 HD
BRANCH  14  16
HETATM   16  C1  UNK     1      18.642   5.441  30.516  1.00  0.00     0.084 C 
HETATM   17  C2  UNK     1      17.817   6.206  31.557  1.00  0.00     0.025 C 
HETATM   18  C4  UNK     1      18.429   6.370  32.946  1.00  0.00     0.002 C 
HETATM   19  C6  UNK     1      19.802   7.035  32.976  1.00  0.00     0.000 C 
HETATM   20  C7  UNK     1      20.920   6.101  32.528  1.00  0.00     0.000 C 
HETATM   21  C5  UNK     1      21.142   6.010  31.023  1.00  0.00     0.002 C 
HETATM   22  C3  UNK     1      19.928   6.163  30.107  1.00  0.00     0.025 C 
ENDBRANCH  14  16
ENDBRANCH   3  12
TORSDOF 2
ENDMDL
MODEL 2
REMARK VINA RESULT:      -8.6      1.127      1.754
REMARK  2 active torsions:
REMARK  status: ('A' for Active; 'I' for Inactive)
REMARK    1  A    between atoms: C1_5  and  N1_4 
REMARK       I    between atoms: C8_12  and  N1_4 
REMARK    2  A    between atoms: C8_12  and  C9_13 
ROOT
HETATM    1  O2  UNK     1      18.675   0.732  32.422  1.00  0.00    -0.274 OA
HETATM    2  O3  UNK     1      17.931   2.803  33.035  1.00  0.00    -0.259 OA
HETATM    3  C9  UNK     1      18.942   2.627  30.899  1.00  0.00     0.108 A 
HETATM    4  C10 UNK     1      19.532   1.844  29.987  1.00  0.00     0.037 A 
HETATM    5  C11 UNK     1      18.473   2.091  32.196  1.00  0.00     0.304 A 
HETATM    6  C12 UNK     1      19.729   0.427  30.252  1.00  0.00    -0.001 A 
HETATM    7  C13 UNK     1      19.295  -0.097  31.466  1.00  0.00     0.089 A 
HETATM    8  C14 UNK     1      20.339  -0.425  29.330  1.00  0.00     0.014 A 
HETATM    9  C15 UNK     1      19.453  -1.444  31.782  1.00  0.00     0.038 A 
HETATM   10  C16 UNK     1      20.506  -1.780  29.633  1.00  0.00     0.001 A 
HETATM   11  C17 UNK     1      20.063  -2.288  30.856  1.00  0.00     0.003 A 
ENDROOT
BRANCH   3  12
HETATM   12  C8  UNK     1      18.787   4.046  30.537  1.00  0.00     0.258 C 
HETATM   13  O1  UNK     1      18.491   4.371  29.392  1.00  0.00    -0.267 OA
HETATM   14  N1  UNK     1      19.011   4.891  31.604  1.00  0.00    -0.352 N 
HETATM   15  H14 UNK     1      19.320   4.509  32.493  1.00  0.00     0.163 HD
BRANCH  14  16
HETATM   16  C1  UNK     1      18.920   6.324  31.494  1.00  0.00     0.084 C 
HETATM   17  C2  UNK     1      17.499   6.810  31.191  1.00  0.00     0.025 C 
HETATM   18  C4  UNK     1      16.430   6.533  32.243  1.00  0.00     0.002 C 
HETATM   19  C6  UNK     1      16.734   7.074  33.637  1.00  0.00     0.000 C 
HETATM   20  C7  UNK     1      17.768   6.239  34.382  1.00  0.00     0.000 C 
HETATM   21  C5  UNK     1      19.226   6.567  34.078  1.00  0.00     0.002 C 
HETATM   22  C3  UNK     1      19.575   7.050  32.671  1.00  0.00     0.025 C 
ENDBRANCH  14  16
ENDBRANCH   3  12
TORSDOF 2
ENDMDL
MODEL 3
REMARK VINA RESULT:      -8.5      2.933      4.148
REMARK  2 active torsions:
REMARK  status: ('A' for Active; 'I' for Inactive)
REMARK    1  A    between atoms: C1_5  and  N1_4 
REMARK       I    between atoms: C8_12  and  N1_4 
REMARK    2  A    between atoms: C8_12  and  C9_13 
ROOT
HETATM    1  O2  UNK     1      18.625  -0.399  33.997  1.00  0.00    -0.274 OA
HETATM    2  O3  UNK     1      18.911   0.154  31.799  1.00  0.00    -0.259 OA
HETATM    3  C9  UNK     1      18.268   1.905  33.260  1.00  0.00     0.108 A 
HETATM    4  C10 UNK     1      17.958   2.283  34.506  1.00  0.00     0.037 A 
HETATM    5  C11 UNK     1      18.626   0.505  32.939  1.00  0.00     0.304 A 
HETATM    6  C12 UNK     1      17.966   1.314  35.591  1.00  0.00    -0.001 A 
HETATM    7  C13 UNK     1      18.301  -0.007  35.310  1.00  0.00     0.089 A 
HETATM    8  C14 UNK     1      17.650   1.665  36.905  1.00  0.00     0.014 A 
HETATM    9  C15 UNK     1      18.328  -0.984  36.303  1.00  0.00     0.038 A 
HETATM   10  C16 UNK     1      17.672   0.695  37.912  1.00  0.00     0.001 A 
HETATM   11  C17 UNK     1      18.011  -0.626  37.612  1.00  0.00     0.003 A 
ENDROOT
BRANCH   3  12
HETATM   12  C8  UNK     1      18.231   2.959  32.231  1.00  0.00     0.258 C 
HETATM   13  O1  UNK     1      18.466   2.695  31.057  1.00  0.00    -0.267 OA
HETATM   14  N1  UNK     1      17.916   4.196  32.753  1.00  0.00    -0.352 N 
HETATM   15  H14 UNK     1      17.810   4.307  33.757  1.00  0.00     0.163 HD
BRANCH  14  16
HETATM   16  C1  UNK     1      17.823   5.382  31.941  1.00  0.00     0.084 C 
HETATM   17  C2  UNK     1      16.739   6.351  32.425  1.00  0.00     0.025 C 
HETATM   18  C4  UNK     1      16.922   6.963  33.811  1.00  0.00     0.002 C 
HETATM   19  C6  UNK     1      18.234   7.713  34.023  1.00  0.00     0.000 C 
HETATM   20  C7  UNK     1      19.423   6.779  34.214  1.00  0.00     0.000 C 
HETATM   21  C5  UNK     1      20.073   6.268  32.933  1.00  0.00     0.002 C 
HETATM   22  C3  UNK     1      19.181   6.050  31.712  1.00  0.00     0.025 C 
ENDBRANCH  14  16
ENDBRANCH   3  12
TORSDOF 2
ENDMDL
MODEL 4
REMARK VINA RESULT:      -8.2      1.575      2.194
REMARK  2 active torsions:
REMARK  status: ('A' for Active; 'I' for Inactive)
REMARK    1  A    between atoms: C1_5  and  N1_4 
REMARK       I    between atoms: C8_12  and  N1_4 
REMARK    2  A    between atoms: C8_12  and  C9_13 
ROOT
HETATM    1  O2  UNK     1      19.148  -0.888  32.796  1.00  0.00    -0.274 OA
HETATM    2  O3  UNK     1      18.244   0.217  34.580  1.00  0.00    -0.259 OA
HETATM    3  C9  UNK     1      18.579   1.482  32.605  1.00  0.00     0.108 A 
HETATM    4  C10 UNK     1      19.004   1.509  31.335  1.00  0.00     0.037 A 
HETATM    5  C11 UNK     1      18.633   0.247  33.417  1.00  0.00     0.304 A 
HETATM    6  C12 UNK     1      19.537   0.306  30.715  1.00  0.00    -0.001 A 
HETATM    7  C13 UNK     1      19.597  -0.866  31.461  1.00  0.00     0.089 A 
HETATM    8  C14 UNK     1      19.992   0.289  29.394  1.00  0.00     0.014 A 
HETATM    9  C15 UNK     1      20.097  -2.052  30.927  1.00  0.00     0.038 A 
HETATM   10  C16 UNK     1      20.497  -0.893  28.844  1.00  0.00     0.001 A 
HETATM   11  C17 UNK     1      20.548  -2.061  29.608  1.00  0.00     0.003 A 
ENDROOT
BRANCH   3  12
HETATM   12  C8  UNK     1      18.055   2.750  33.143  1.00  0.00     0.258 C 
HETATM   13  O1  UNK     1      17.605   2.807  34.282  1.00  0.00    -0.267 OA
HETATM   14  N1  UNK     1      18.142   3.785  32.236  1.00  0.00    -0.352 N 
HETATM   15  H14 UNK     1      18.471   3.602  31.293  1.00  0.00     0.163 HD
BRANCH  14  16
HETATM   16  C1  UNK     1      17.692   5.120  32.534  1.00  0.00     0.084 C 
HETATM   17  C2  UNK     1      18.246   5.655  33.858  1.00  0.00     0.025 C 
HETATM   18  C4  UNK     1      19.758   5.831  33.959  1.00  0.00     0.002 C 
HETATM   19  C6  UNK     1      20.381   6.725  32.891  1.00  0.00     0.000 C 
HETATM   20  C7  UNK     1      20.492   6.036  31.536  1.00  0.00     0.000 C 
HETATM   21  C5  UNK     1      19.242   6.087  30.665  1.00  0.00     0.002 C 
HETATM   22  C3  UNK     1      17.881   6.084  31.359  1.00  0.00     0.025 C 
ENDBRANCH  14  16
ENDBRANCH   3  12
TORSDOF 2
ENDMDL
MODEL 5
REMARK VINA RESULT:      -8.2      1.222      2.017
REMARK  2 active torsions:
REMARK  status: ('A' for Active; 'I' for Inactive)
REMARK    1  A    between atoms: C1_5  and  N1_4 
REMARK       I    between atoms: C8_12  and  N1_4 
REMARK    2  A    between atoms: C8_12  and  C9_13 
ROOT
HETATM    1  O2  UNK     1      19.626  -0.226  28.929  1.00  0.00    -0.274 OA
HETATM    2  O3  UNK     1      18.668   1.673  28.094  1.00  0.00    -0.259 OA
HETATM    3  C9  UNK     1      18.752   1.474  30.454  1.00  0.00     0.108 A 
HETATM    4  C10 UNK     1      19.114   0.745  31.517  1.00  0.00     0.037 A 
HETATM    5  C11 UNK     1      18.998   1.008  29.071  1.00  0.00     0.304 A 
HETATM    6  C12 UNK     1      19.769  -0.542  31.335  1.00  0.00    -0.001 A 
HETATM    7  C13 UNK     1      20.010  -0.998  30.043  1.00  0.00     0.089 A 
HETATM    8  C14 UNK     1      20.164  -1.335  32.415  1.00  0.00     0.014 A 
HETATM    9  C15 UNK     1      20.633  -2.220  29.801  1.00  0.00     0.038 A 
HETATM   10  C16 UNK     1      20.790  -2.564  32.188  1.00  0.00     0.001 A 
HETATM   11  C17 UNK     1      21.024  -3.005  30.884  1.00  0.00     0.003 A 
ENDROOT
BRANCH   3  12
HETATM   12  C8  UNK     1      18.096   2.761  30.740  1.00  0.00     0.258 C 
HETATM   13  O1  UNK     1      16.911   2.804  31.054  1.00  0.00    -0.267 OA
HETATM   14  N1  UNK     1      18.954   3.832  30.611  1.00  0.00    -0.352 N 
HETATM   15  H14 UNK     1      19.901   3.682  30.276  1.00  0.00     0.163 HD
BRANCH  14  16
HETATM   16  C1  UNK     1      18.541   5.193  30.838  1.00  0.00     0.084 C 
HETATM   17  C2  UNK     1      18.320   5.509  32.321  1.00  0.00     0.025 C 
HETATM   18  C4  UNK     1      19.534   5.419  33.240  1.00  0.00     0.002 C 
HETATM   19  C6  UNK     1      20.723   6.285  32.833  1.00  0.00     0.000 C 
HETATM   20  C7  UNK     1      21.498   5.708  31.655  1.00  0.00     0.000 C 
HETATM   21  C5  UNK     1      20.947   6.044  30.274  1.00  0.00     0.002 C 
HETATM   22  C3  UNK     1      19.435   6.210  30.124  1.00  0.00     0.025 C 
ENDBRANCH  14  16
ENDBRANCH   3  12
TORSDOF 2
ENDMDL
MODEL 6
REMARK VINA RESULT:      -8.0      3.177      7.159
REMARK  2 active torsions:
REMARK  status: ('A' for Active; 'I' for Inactive)
REMARK    1  A    between atoms: C1_5  and  N1_4 
REMARK       I    between atoms: C8_12  and  N1_4 
REMARK    2  A    between atoms: C8_12  and  C9_13 
ROOT
HETATM    1  O2  UNK     1      18.273   4.217  30.789  1.00  0.00    -0.274 OA
HETATM    2  O3  UNK     1      18.353   2.008  30.209  1.00  0.00    -0.259 OA
HETATM    3  C9  UNK     1      18.321   2.497  32.527  1.00  0.00     0.108 A 
HETATM    4  C10 UNK     1      18.283   3.430  33.487  1.00  0.00     0.037 A 
HETATM    5  C11 UNK     1      18.318   2.859  31.092  1.00  0.00     0.304 A 
HETATM    6  C12 UNK     1      18.236   4.841  33.137  1.00  0.00    -0.001 A 
HETATM    7  C13 UNK     1      18.232   5.202  31.794  1.00  0.00     0.089 A 
HETATM    8  C14 UNK     1      18.194   5.847  34.106  1.00  0.00     0.014 A 
HETATM    9  C15 UNK     1      18.188   6.535  31.392  1.00  0.00     0.038 A 
HETATM   10  C16 UNK     1      18.150   7.189  33.718  1.00  0.00     0.001 A 
HETATM   11  C17 UNK     1      18.146   7.533  32.364  1.00  0.00     0.003 A 
ENDROOT
BRANCH   3  12
HETATM   12  C8  UNK     1      18.367   1.097  32.981  1.00  0.00     0.258 C 
HETATM   13  O1  UNK     1      19.196   0.317  32.523  1.00  0.00    -0.267 OA
HETATM   14  N1  UNK     1      17.406   0.817  33.929  1.00  0.00    -0.352 N 
HETATM   15  H14 UNK     1      16.726   1.527  34.182  1.00  0.00     0.163 HD
BRANCH  14  16
HETATM   16  C1  UNK     1      17.253  -0.487  34.521  1.00  0.00     0.084 C 
HETATM   17  C2  UNK     1      18.434  -0.877  35.417  1.00  0.00     0.025 C 
HETATM   18  C4  UNK     1      18.677  -0.023  36.658  1.00  0.00     0.002 C 
HETATM   19  C6  UNK     1      17.491   0.093  37.610  1.00  0.00     0.000 C 
HETATM   20  C7  UNK     1      16.413   1.039  37.098  1.00  0.00     0.000 C 
HETATM   21  C5  UNK     1      15.407   0.431  36.127  1.00  0.00     0.002 C 
HETATM   22  C3  UNK     1      15.890  -0.676  35.191  1.00  0.00     0.025 C 
ENDBRANCH  14  16
ENDBRANCH   3  12
TORSDOF 2
ENDMDL
MODEL 7
REMARK VINA RESULT:      -8.0      2.950      4.326
REMARK  2 active torsions:
REMARK  status: ('A' for Active; 'I' for Inactive)
REMARK    1  A    between atoms: C1_5  and  N1_4 
REMARK       I    between atoms: C8_12  and  N1_4 
REMARK    2  A    between atoms: C8_12  and  C9_13 
ROOT
HETATM    1  O2  UNK     1      18.221   1.149  32.440  1.00  0.00    -0.274 OA
HETATM    2  O3  UNK     1      18.168   2.440  30.555  1.00  0.00    -0.259 OA
HETATM    3  C9  UNK     1      18.232   3.587  32.628  1.00  0.00     0.108 A 
HETATM    4  C10 UNK     1      18.272   3.510  33.964  1.00  0.00     0.037 A 
HETATM    5  C11 UNK     1      18.204   2.375  31.780  1.00  0.00     0.304 A 
HETATM    6  C12 UNK     1      18.289   2.214  34.624  1.00  0.00    -0.001 A 
HETATM    7  C13 UNK     1      18.263   1.061  33.845  1.00  0.00     0.089 A 
HETATM    8  C14 UNK     1      18.330   2.087  36.014  1.00  0.00     0.014 A 
HETATM    9  C15 UNK     1      18.277  -0.210  34.414  1.00  0.00     0.038 A 
HETATM   10  C16 UNK     1      18.344   0.818  36.600  1.00  0.00     0.001 A 
HETATM   11  C17 UNK     1      18.319  -0.328  35.802  1.00  0.00     0.003 A 
ENDROOT
BRANCH   3  12
HETATM   12  C8  UNK     1      18.218   4.944  32.054  1.00  0.00     0.258 C 
HETATM   13  O1  UNK     1      19.147   5.338  31.357  1.00  0.00    -0.267 OA
HETATM   14  N1  UNK     1      17.084   5.650  32.395  1.00  0.00    -0.352 N 
HETATM   15  H14 UNK     1      16.412   5.244  33.038  1.00  0.00     0.163 HD
BRANCH  14  16
HETATM   16  C1  UNK     1      16.847   7.001  31.954  1.00  0.00     0.084 C 
HETATM   17  C2  UNK     1      15.361   7.375  31.955  1.00  0.00     0.025 C 
HETATM   18  C4  UNK     1      14.646   7.382  33.303  1.00  0.00     0.002 C 
HETATM   19  C6  UNK     1      15.272   8.280  34.367  1.00  0.00     0.000 C 
HETATM   20  C7  UNK     1      16.536   7.683  34.973  1.00  0.00     0.000 C 
HETATM   21  C5  UNK     1      17.823   7.930  34.193  1.00  0.00     0.002 C 
HETATM   22  C3  UNK     1      17.734   8.022  32.671  1.00  0.00     0.025 C 
ENDBRANCH  14  16
ENDBRANCH   3  12
TORSDOF 2
ENDMDL
MODEL 8
REMARK VINA RESULT:      -7.9     22.232     24.086
REMARK  2 active torsions:
REMARK  status: ('A' for Active; 'I' for Inactive)
REMARK    1  A    between atoms: C1_5  and  N1_4 
REMARK       I    between atoms: C8_12  and  N1_4 
REMARK    2  A    between atoms: C8_12  and  C9_13 
ROOT
HETATM    1  O2  UNK     1      12.007   6.746   6.421  1.00  0.00    -0.274 OA
HETATM    2  O3  UNK     1      14.264   6.959   6.704  1.00  0.00    -0.259 OA
HETATM    3  C9  UNK     1      13.012   6.311   8.607  1.00  0.00     0.108 A 
HETATM    4  C10 UNK     1      11.813   6.025   9.131  1.00  0.00     0.037 A 
HETATM    5  C11 UNK     1      13.168   6.697   7.187  1.00  0.00     0.304 A 
HETATM    6  C12 UNK     1      10.618   6.085   8.303  1.00  0.00    -0.001 A 
HETATM    7  C13 UNK     1      10.743   6.446   6.965  1.00  0.00     0.089 A 
HETATM    8  C14 UNK     1       9.348   5.795   8.807  1.00  0.00     0.014 A 
HETATM    9  C15 UNK     1       9.639   6.523   6.120  1.00  0.00     0.038 A 
HETATM   10  C16 UNK     1       8.230   5.869   7.971  1.00  0.00     0.001 A 
HETATM   11  C17 UNK     1       8.376   6.231   6.630  1.00  0.00     0.003 A 
ENDROOT
BRANCH   3  12
HETATM   12  C8  UNK     1      14.161   6.221   9.525  1.00  0.00     0.258 C 
HETATM   13  O1  UNK     1      14.439   5.161  10.076  1.00  0.00    -0.267 OA
HETATM   14  N1  UNK     1      14.826   7.421   9.659  1.00  0.00    -0.352 N 
HETATM   15  H14 UNK     1      14.461   8.253   9.205  1.00  0.00     0.163 HD
BRANCH  14  16
HETATM   16  C1  UNK     1      15.980   7.581  10.505  1.00  0.00     0.084 C 
HETATM   17  C2  UNK     1      17.121   8.340   9.819  1.00  0.00     0.025 C 
HETATM   18  C4  UNK     1      16.853   9.788   9.420  1.00  0.00     0.002 C 
HETATM   19  C6  UNK     1      16.408  10.704  10.557  1.00  0.00     0.000 C 
HETATM   20  C7  UNK     1      14.955  10.482  10.959  1.00  0.00     0.000 C 
HETATM   21  C5  UNK     1      14.709   9.350  11.949  1.00  0.00     0.002 C 
HETATM   22  C3  UNK     1      15.628   8.130  11.889  1.00  0.00     0.025 C 
ENDBRANCH  14  16
ENDBRANCH   3  12
TORSDOF 2
ENDMDL
MODEL 9
REMARK VINA RESULT:      -7.9     11.950     14.103
REMARK  2 active torsions:
REMARK  status: ('A' for Active; 'I' for Inactive)
REMARK    1  A    between atoms: C1_5  and  N1_4 
REMARK       I    between atoms: C8_12  and  N1_4 
REMARK    2  A    between atoms: C8_12  and  C9_13 
ROOT
HETATM    1  O2  UNK     1      25.588  -5.449  38.709  1.00  0.00    -0.274 OA
HETATM    2  O3  UNK     1      23.312  -5.356  38.884  1.00  0.00    -0.259 OA
HETATM    3  C9  UNK     1      24.297  -7.509  38.972  1.00  0.00     0.108 A 
HETATM    4  C10 UNK     1      25.415  -8.245  38.940  1.00  0.00     0.037 A 
HETATM    5  C11 UNK     1      24.333  -6.034  38.855  1.00  0.00     0.304 A 
HETATM    6  C12 UNK     1      26.712  -7.603  38.787  1.00  0.00    -0.001 A 
HETATM    7  C13 UNK     1      26.768  -6.218  38.675  1.00  0.00     0.089 A 
HETATM    8  C14 UNK     1      27.903  -8.332  38.749  1.00  0.00     0.014 A 
HETATM    9  C15 UNK     1      27.977  -5.542  38.527  1.00  0.00     0.038 A 
HETATM   10  C16 UNK     1      29.124  -7.668  38.600  1.00  0.00     0.001 A 
HETATM   11  C17 UNK     1      29.161  -6.276  38.489  1.00  0.00     0.003 A 
ENDROOT
BRANCH   3  12
HETATM   12  C8  UNK     1      23.034  -8.250  39.131  1.00  0.00     0.258 C 
HETATM   13  O1  UNK     1      22.520  -8.382  40.237  1.00  0.00    -0.267 OA
HETATM   14  N1  UNK     1      22.553  -8.737  37.934  1.00  0.00    -0.352 N 
HETATM   15  H14 UNK     1      23.102  -8.625  37.087  1.00  0.00     0.163 HD
BRANCH  14  16
HETATM   16  C1  UNK     1      21.333  -9.497  37.836  1.00  0.00     0.084 C 
HETATM   17  C2  UNK     1      20.082  -8.652  38.101  1.00  0.00     0.025 C 
HETATM   18  C4  UNK     1      19.793  -7.514  37.126  1.00  0.00     0.002 C 
HETATM   19  C6  UNK     1      19.679  -7.926  35.661  1.00  0.00     0.000 C 
HETATM   20  C7  UNK     1      21.032  -8.209  35.021  1.00  0.00     0.000 C 
HETATM   21  C5  UNK     1      21.584  -9.613  35.238  1.00  0.00     0.002 C 
HETATM   22  C3  UNK     1      21.252 -10.322  36.550  1.00  0.00     0.025 C 
ENDBRANCH  14  16
ENDBRANCH   3  12
TORSDOF 2
ENDMDL
MODEL 10
REMARK VINA RESULT:      -7.8     22.151     23.919
REMARK  2 active torsions:
REMARK  status: ('A' for Active; 'I' for Inactive)
REMARK    1  A    between atoms: C1_5  and  N1_4 
REMARK       I    between atoms: C8_12  and  N1_4 
REMARK    2  A    between atoms: C8_12  and  C9_13 
ROOT
HETATM    1  O2  UNK     1      10.698   5.630   9.252  1.00  0.00    -0.274 OA
HETATM    2  O3  UNK     1      12.331   5.356  10.826  1.00  0.00    -0.259 OA
HETATM    3  C9  UNK     1      13.030   6.102   8.688  1.00  0.00     0.108 A 
HETATM    4  C10 UNK     1      12.687   6.442   7.440  1.00  0.00     0.037 A 
HETATM    5  C11 UNK     1      12.022   5.667   9.681  1.00  0.00     0.304 A 
HETATM    6  C12 UNK     1      11.294   6.392   7.022  1.00  0.00    -0.001 A 
HETATM    7  C13 UNK     1      10.330   5.987   7.940  1.00  0.00     0.089 A 
HETATM    8  C14 UNK     1      10.892   6.738   5.730  1.00  0.00     0.014 A 
HETATM    9  C15 UNK     1       8.981   5.917   7.604  1.00  0.00     0.038 A 
HETATM   10  C16 UNK     1       9.540   6.673   5.378  1.00  0.00     0.001 A 
HETATM   11  C17 UNK     1       8.587   6.264   6.313  1.00  0.00     0.003 A 
ENDROOT
BRANCH   3  12
HETATM   12  C8  UNK     1      14.464   6.185   9.015  1.00  0.00     0.258 C 
HETATM   13  O1  UNK     1      15.272   5.432   8.482  1.00  0.00    -0.267 OA
HETATM   14  N1  UNK     1      14.739   7.167   9.944  1.00  0.00    -0.352 N 
HETATM   15  H14 UNK     1      13.976   7.684  10.370  1.00  0.00     0.163 HD
BRANCH  14  16
HETATM   16  C1  UNK     1      16.070   7.435  10.422  1.00  0.00     0.084 C 
HETATM   17  C2  UNK     1      16.867   8.350   9.486  1.00  0.00     0.025 C 
HETATM   18  C4  UNK     1      16.340   9.768   9.285  1.00  0.00     0.002 C 
HETATM   19  C6  UNK     1      16.164  10.583  10.564  1.00  0.00     0.000 C 
HETATM   20  C7  UNK     1      14.930  10.173  11.359  1.00  0.00     0.000 C 
HETATM   21  C5  UNK     1      15.112   8.985  12.296  1.00  0.00     0.002 C 
HETATM   22  C3  UNK     1      16.093   7.889  11.884  1.00  0.00     0.025 C 
ENDBRANCH  14  16
ENDBRANCH   3  12
TORSDOF 2
ENDMDL
