MODEL 1
REMARK VINA RESULT:      -9.6      0.000      0.000
REMARK  4 active torsions:
REMARK  status: ('A' for Active; 'I' for Inactive)
REMARK    1  A    between atoms: C2_4  and  N1_2 
REMARK       I    between atoms: C8_10  and  N1_2 
REMARK    2  A    between atoms: C4_6  and  C8_10 
REMARK    3  A    between atoms: C4_6  and  C9_11 
REMARK    4  A    between atoms: C12_14  and  C15_17 
ROOT
HETATM    1  C4  UNK     1      20.313  -4.583  36.834  1.00  0.00     0.043 C 
HETATM    2  C12 UNK     1      21.190  -4.856  37.822  1.00  0.00     0.029 C 
ENDROOT
BRANCH   1   3
HETATM    3  C8  UNK     1      20.332  -3.164  36.310  1.00  0.00     0.257 C 
HETATM    4  O1  UNK     1      21.364  -2.501  36.356  1.00  0.00    -0.267 OA
HETATM    5  N1  UNK     1      19.101  -2.741  35.796  1.00  0.00    -0.322 N 
HETATM    6  H1  UNK     1      18.387  -3.450  35.687  1.00  0.00     0.169 HD
BRANCH   5   7
HETATM    7  C2  UNK     1      18.781  -1.497  35.239  1.00  0.00     0.046 A 
HETATM    8  C1  UNK     1      18.307  -0.434  36.024  1.00  0.00     0.001 A 
HETATM    9  C3  UNK     1      18.001   0.801  35.405  1.00  0.00    -0.024 A 
HETATM   10  C6  UNK     1      18.132  -0.568  37.411  1.00  0.00     0.014 A 
HETATM   11  C10 UNK     1      17.527   1.865  36.190  1.00  0.00     0.012 A 
HETATM   12  C7  UNK     1      18.177   0.936  34.018  1.00  0.00     0.012 A 
HETATM   13  C14 UNK     1      17.358   1.713  37.567  1.00  0.00     0.001 A 
HETATM   14  C13 UNK     1      17.660   0.499  38.177  1.00  0.00     0.001 A 
HETATM   15  C11 UNK     1      18.648  -0.131  33.253  1.00  0.00     0.003 A 
HETATM   16  C5  UNK     1      18.950  -1.346  33.863  1.00  0.00     0.030 A 
ENDBRANCH   5   7
ENDBRANCH   1   3
BRANCH   1  17
HETATM   17  C9  UNK     1      19.365  -5.587  36.310  1.00  0.00    -0.021 A 
HETATM   18  C16 UNK     1      19.792  -6.475  35.338  1.00  0.00     0.012 A 
HETATM   19  C20 UNK     1      18.897  -7.423  34.842  1.00  0.00     0.001 A 
HETATM   20  C22 UNK     1      17.590  -7.469  35.326  1.00  0.00     0.000 A 
HETATM   21  C21 UNK     1      17.177  -6.566  36.306  1.00  0.00     0.001 A 
HETATM   22  C17 UNK     1      18.071  -5.617  36.801  1.00  0.00     0.012 A 
ENDBRANCH   1  17
BRANCH   2  23
HETATM   23  C15 UNK     1      21.330  -6.143  38.522  1.00  0.00    -0.035 A 
HETATM   24  C18 UNK     1      20.214  -6.730  39.100  1.00  0.00     0.011 A 
HETATM   25  C23 UNK     1      20.347  -7.949  39.763  1.00  0.00     0.001 A 
HETATM   26  C25 UNK     1      21.594  -8.568  39.841  1.00  0.00     0.000 A 
HETATM   27  C24 UNK     1      22.709  -7.967  39.255  1.00  0.00     0.001 A 
HETATM   28  C19 UNK     1      22.576  -6.748  38.593  1.00  0.00     0.011 A 
ENDBRANCH   2  23
TORSDOF 4
ENDMDL
MODEL 2
REMARK VINA RESULT:      -9.4      0.494      2.306
REMARK  4 active torsions:
REMARK  status: ('A' for Active; 'I' for Inactive)
REMARK    1  A    between atoms: C2_4  and  N1_2 
REMARK       I    between atoms: C8_10  and  N1_2 
REMARK    2  A    between atoms: C4_6  and  C8_10 
REMARK    3  A    between atoms: C4_6  and  C9_11 
REMARK    4  A    between atoms: C12_14  and  C15_17 
ROOT
HETATM    1  C4  UNK     1      20.119  -4.603  37.143  1.00  0.00     0.043 C 
HETATM    2  C12 UNK     1      20.984  -4.939  38.123  1.00  0.00     0.029 C 
ENDROOT
BRANCH   1   3
HETATM    3  C8  UNK     1      20.060  -3.133  36.792  1.00  0.00     0.257 C 
HETATM    4  O1  UNK     1      21.049  -2.565  36.339  1.00  0.00    -0.267 OA
HETATM    5  N1  UNK     1      18.809  -2.552  37.030  1.00  0.00    -0.322 N 
HETATM    6  H1  UNK     1      18.051  -3.183  37.258  1.00  0.00     0.169 HD
BRANCH   5   7
HETATM    7  C2  UNK     1      18.421  -1.225  36.815  1.00  0.00     0.046 A 
HETATM    8  C1  UNK     1      18.423  -0.651  35.534  1.00  0.00     0.001 A 
HETATM    9  C3  UNK     1      18.020   0.697  35.378  1.00  0.00    -0.024 A 
HETATM   10  C6  UNK     1      18.815  -1.385  34.402  1.00  0.00     0.014 A 
HETATM   11  C10 UNK     1      18.022   1.271  34.096  1.00  0.00     0.012 A 
HETATM   12  C7  UNK     1      17.627   1.431  36.509  1.00  0.00     0.012 A 
HETATM   13  C14 UNK     1      18.416   0.527  32.983  1.00  0.00     0.001 A 
HETATM   14  C13 UNK     1      18.812  -0.799  33.136  1.00  0.00     0.001 A 
HETATM   15  C11 UNK     1      17.631   0.845  37.775  1.00  0.00     0.003 A 
HETATM   16  C5  UNK     1      18.027  -0.481  37.928  1.00  0.00     0.030 A 
ENDBRANCH   5   7
ENDBRANCH   1   3
BRANCH   1  17
HETATM   17  C9  UNK     1      19.256  -5.594  36.468  1.00  0.00    -0.021 A 
HETATM   18  C16 UNK     1      17.927  -5.698  36.842  1.00  0.00     0.012 A 
HETATM   19  C20 UNK     1      17.113  -6.633  36.205  1.00  0.00     0.001 A 
HETATM   20  C22 UNK     1      17.638  -7.451  35.205  1.00  0.00     0.000 A 
HETATM   21  C21 UNK     1      18.980  -7.332  34.842  1.00  0.00     0.001 A 
HETATM   22  C17 UNK     1      19.795  -6.398  35.478  1.00  0.00     0.012 A 
ENDBRANCH   1  17
BRANCH   2  23
HETATM   23  C15 UNK     1      21.188  -6.290  38.670  1.00  0.00    -0.035 A 
HETATM   24  C18 UNK     1      20.112  -6.977  39.209  1.00  0.00     0.011 A 
HETATM   25  C23 UNK     1      20.305  -8.257  39.728  1.00  0.00     0.001 A 
HETATM   26  C25 UNK     1      21.575  -8.835  39.701  1.00  0.00     0.000 A 
HETATM   27  C24 UNK     1      22.650  -8.133  39.155  1.00  0.00     0.001 A 
HETATM   28  C19 UNK     1      22.456  -6.853  38.638  1.00  0.00     0.011 A 
ENDBRANCH   2  23
TORSDOF 4
ENDMDL
MODEL 3
REMARK VINA RESULT:      -9.1      6.924      9.922
REMARK  4 active torsions:
REMARK  status: ('A' for Active; 'I' for Inactive)
REMARK    1  A    between atoms: C2_4  and  N1_2 
REMARK       I    between atoms: C8_10  and  N1_2 
REMARK    2  A    between atoms: C4_6  and  C8_10 
REMARK    3  A    between atoms: C4_6  and  C9_11 
REMARK    4  A    between atoms: C12_14  and  C15_17 
ROOT
HETATM    1  C4  UNK     1      27.214  -7.782  38.191  1.00  0.00     0.043 C 
HETATM    2  C12 UNK     1      27.925  -7.035  39.061  1.00  0.00     0.029 C 
ENDROOT
BRANCH   1   3
HETATM    3  C8  UNK     1      25.920  -8.359  38.720  1.00  0.00     0.257 C 
HETATM    4  O1  UNK     1      25.936  -9.174  39.638  1.00  0.00    -0.267 OA
HETATM    5  N1  UNK     1      24.782  -7.866  38.072  1.00  0.00    -0.322 N 
HETATM    6  H1  UNK     1      24.920  -7.085  37.443  1.00  0.00     0.169 HD
BRANCH   5   7
HETATM    7  C2  UNK     1      23.443  -8.191  38.318  1.00  0.00     0.046 A 
HETATM    8  C1  UNK     1      22.741  -9.099  37.509  1.00  0.00     0.001 A 
HETATM    9  C3  UNK     1      21.388  -9.388  37.806  1.00  0.00    -0.024 A 
HETATM   10  C6  UNK     1      23.352  -9.728  36.412  1.00  0.00     0.014 A 
HETATM   11  C10 UNK     1      20.685 -10.297  36.997  1.00  0.00     0.012 A 
HETATM   12  C7  UNK     1      20.776  -8.761  38.904  1.00  0.00     0.012 A 
HETATM   13  C14 UNK     1      21.308 -10.911  35.910  1.00  0.00     0.001 A 
HETATM   14  C13 UNK     1      22.640 -10.627  35.618  1.00  0.00     0.001 A 
HETATM   15  C11 UNK     1      21.488  -7.861  39.697  1.00  0.00     0.003 A 
HETATM   16  C5  UNK     1      22.820  -7.577  39.405  1.00  0.00     0.030 A 
ENDBRANCH   5   7
ENDBRANCH   1   3
BRANCH   1  17
HETATM   17  C9  UNK     1      27.675  -8.053  36.813  1.00  0.00    -0.021 A 
HETATM   18  C16 UNK     1      27.925  -9.359  36.430  1.00  0.00     0.012 A 
HETATM   19  C20 UNK     1      28.360  -9.615  35.130  1.00  0.00     0.001 A 
HETATM   20  C22 UNK     1      28.537  -8.562  34.233  1.00  0.00     0.000 A 
HETATM   21  C21 UNK     1      28.280  -7.252  34.637  1.00  0.00     0.001 A 
HETATM   22  C17 UNK     1      27.846  -6.996  35.937  1.00  0.00     0.012 A 
ENDBRANCH   1  17
BRANCH   2  23
HETATM   23  C15 UNK     1      29.229  -6.408  38.799  1.00  0.00    -0.035 A 
HETATM   24  C18 UNK     1      30.339  -7.209  38.577  1.00  0.00     0.011 A 
HETATM   25  C23 UNK     1      31.576  -6.615  38.328  1.00  0.00     0.001 A 
HETATM   26  C25 UNK     1      31.688  -5.225  38.303  1.00  0.00     0.000 A 
HETATM   27  C24 UNK     1      30.563  -4.429  38.527  1.00  0.00     0.001 A 
HETATM   28  C19 UNK     1      29.328  -5.024  38.777  1.00  0.00     0.011 A 
ENDBRANCH   2  23
TORSDOF 4
ENDMDL
MODEL 4
REMARK VINA RESULT:      -8.9      2.316      4.534
REMARK  4 active torsions:
REMARK  status: ('A' for Active; 'I' for Inactive)
REMARK    1  A    between atoms: C2_4  and  N1_2 
REMARK       I    between atoms: C8_10  and  N1_2 
REMARK    2  A    between atoms: C4_6  and  C8_10 
REMARK    3  A    between atoms: C4_6  and  C9_11 
REMARK    4  A    between atoms: C12_14  and  C15_17 
ROOT
HETATM    1  C4  UNK     1      19.972  -2.996  35.004  1.00  0.00     0.043 C 
HETATM    2  C12 UNK     1      20.332  -4.285  35.172  1.00  0.00     0.029 C 
ENDROOT
BRANCH   1   3
HETATM    3  C8  UNK     1      20.507  -2.319  33.762  1.00  0.00     0.257 C 
HETATM    4  O1  UNK     1      21.713  -2.133  33.629  1.00  0.00    -0.267 OA
HETATM    5  N1  UNK     1      19.511  -1.964  32.845  1.00  0.00    -0.322 N 
HETATM    6  H1  UNK     1      18.581  -2.321  33.025  1.00  0.00     0.169 HD
BRANCH   5   7
HETATM    7  C2  UNK     1      19.666  -1.329  31.607  1.00  0.00     0.046 A 
HETATM    8  C1  UNK     1      19.267   0.001  31.402  1.00  0.00     0.001 A 
HETATM    9  C3  UNK     1      19.449   0.590  30.128  1.00  0.00    -0.024 A 
HETATM   10  C6  UNK     1      18.694   0.762  32.435  1.00  0.00     0.014 A 
HETATM   11  C10 UNK     1      19.051   1.922  29.924  1.00  0.00     0.012 A 
HETATM   12  C7  UNK     1      20.024  -0.169  29.096  1.00  0.00     0.012 A 
HETATM   13  C14 UNK     1      18.481   2.662  30.961  1.00  0.00     0.001 A 
HETATM   14  C13 UNK     1      18.303   2.083  32.214  1.00  0.00     0.001 A 
HETATM   15  C11 UNK     1      20.413  -1.490  29.317  1.00  0.00     0.003 A 
HETATM   16  C5  UNK     1      20.235  -2.069  30.571  1.00  0.00     0.030 A 
ENDBRANCH   5   7
ENDBRANCH   1   3
BRANCH   1  17
HETATM   17  C9  UNK     1      19.135  -2.269  35.980  1.00  0.00    -0.021 A 
HETATM   18  C16 UNK     1      18.098  -1.475  35.522  1.00  0.00     0.012 A 
HETATM   19  C20 UNK     1      17.308  -0.789  36.443  1.00  0.00     0.001 A 
HETATM   20  C22 UNK     1      17.567  -0.906  37.809  1.00  0.00     0.000 A 
HETATM   21  C21 UNK     1      18.616  -1.711  38.252  1.00  0.00     0.001 A 
HETATM   22  C17 UNK     1      19.407  -2.396  37.331  1.00  0.00     0.012 A 
ENDBRANCH   1  17
BRANCH   2  23
HETATM   23  C15 UNK     1      19.978  -5.140  36.316  1.00  0.00    -0.035 A 
HETATM   24  C18 UNK     1      18.793  -5.860  36.288  1.00  0.00     0.011 A 
HETATM   25  C23 UNK     1      18.457  -6.670  37.372  1.00  0.00     0.001 A 
HETATM   26  C25 UNK     1      19.311  -6.751  38.473  1.00  0.00     0.000 A 
HETATM   27  C24 UNK     1      20.500  -6.021  38.488  1.00  0.00     0.001 A 
HETATM   28  C19 UNK     1      20.835  -5.211  37.404  1.00  0.00     0.011 A 
ENDBRANCH   2  23
TORSDOF 4
ENDMDL
MODEL 5
REMARK VINA RESULT:      -8.7      8.432     12.153
REMARK  4 active torsions:
REMARK  status: ('A' for Active; 'I' for Inactive)
REMARK    1  A    between atoms: C2_4  and  N1_2 
REMARK       I    between atoms: C8_10  and  N1_2 
REMARK    2  A    between atoms: C4_6  and  C8_10 
REMARK    3  A    between atoms: C4_6  and  C9_11 
REMARK    4  A    between atoms: C12_14  and  C15_17 
ROOT
HETATM    1  C4  UNK     1      18.089   5.949  31.687  1.00  0.00     0.043 C 
HETATM    2  C12 UNK     1      17.413   4.804  31.455  1.00  0.00     0.029 C 
ENDROOT
BRANCH   1   3
HETATM    3  C8  UNK     1      17.243   7.194  31.834  1.00  0.00     0.257 C 
HETATM    4  O1  UNK     1      16.800   7.763  30.841  1.00  0.00    -0.267 OA
HETATM    5  N1  UNK     1      17.042   7.579  33.165  1.00  0.00    -0.322 N 
HETATM    6  H1  UNK     1      17.340   6.924  33.877  1.00  0.00     0.169 HD
BRANCH   5   7
HETATM    7  C2  UNK     1      16.314   8.674  33.645  1.00  0.00     0.046 A 
HETATM    8  C1  UNK     1      16.931   9.900  33.943  1.00  0.00     0.001 A 
HETATM    9  C3  UNK     1      16.143  10.972  34.425  1.00  0.00    -0.024 A 
HETATM   10  C6  UNK     1      18.313  10.086  33.772  1.00  0.00     0.014 A 
HETATM   11  C10 UNK     1      16.760  12.198  34.723  1.00  0.00     0.012 A 
HETATM   12  C7  UNK     1      14.761  10.787  34.594  1.00  0.00     0.012 A 
HETATM   13  C14 UNK     1      18.135  12.365  34.549  1.00  0.00     0.001 A 
HETATM   14  C13 UNK     1      18.910  11.310  34.074  1.00  0.00     0.001 A 
HETATM   15  C11 UNK     1      14.165   9.562  34.294  1.00  0.00     0.003 A 
HETATM   16  C5  UNK     1      14.940   8.508  33.819  1.00  0.00     0.030 A 
ENDBRANCH   5   7
ENDBRANCH   1   3
BRANCH   1  17
HETATM   17  C9  UNK     1      19.563   6.003  31.762  1.00  0.00    -0.021 A 
HETATM   18  C16 UNK     1      20.305   5.829  30.607  1.00  0.00     0.012 A 
HETATM   19  C20 UNK     1      21.696   5.880  30.678  1.00  0.00     0.001 A 
HETATM   20  C22 UNK     1      22.325   6.104  31.903  1.00  0.00     0.000 A 
HETATM   21  C21 UNK     1      21.561   6.277  33.057  1.00  0.00     0.001 A 
HETATM   22  C17 UNK     1      20.170   6.225  32.986  1.00  0.00     0.012 A 
ENDBRANCH   1  17
BRANCH   2  23
HETATM   23  C15 UNK     1      18.011   3.478  31.233  1.00  0.00    -0.035 A 
HETATM   24  C18 UNK     1      18.325   3.080  29.942  1.00  0.00     0.011 A 
HETATM   25  C23 UNK     1      18.891   1.823  29.731  1.00  0.00     0.001 A 
HETATM   26  C25 UNK     1      19.137   0.978  30.813  1.00  0.00     0.000 A 
HETATM   27  C24 UNK     1      18.816   1.391  32.107  1.00  0.00     0.001 A 
HETATM   28  C19 UNK     1      18.249   2.647  32.317  1.00  0.00     0.011 A 
ENDBRANCH   2  23
TORSDOF 4
ENDMDL
MODEL 6
REMARK VINA RESULT:      -8.6      6.731      9.942
REMARK  4 active torsions:
REMARK  status: ('A' for Active; 'I' for Inactive)
REMARK    1  A    between atoms: C2_4  and  N1_2 
REMARK       I    between atoms: C8_10  and  N1_2 
REMARK    2  A    between atoms: C4_6  and  C8_10 
REMARK    3  A    between atoms: C4_6  and  C9_11 
REMARK    4  A    between atoms: C12_14  and  C15_17 
ROOT
HETATM    1  C4  UNK     1      27.368  -9.439  36.705  1.00  0.00     0.043 C 
HETATM    2  C12 UNK     1      27.997  -9.245  37.883  1.00  0.00     0.029 C 
ENDROOT
BRANCH   1   3
HETATM    3  C8  UNK     1      26.017 -10.115  36.783  1.00  0.00     0.257 C 
HETATM    4  O1  UNK     1      25.938 -11.339  36.826  1.00  0.00    -0.267 OA
HETATM    5  N1  UNK     1      24.944  -9.217  36.806  1.00  0.00    -0.322 N 
HETATM    6  H1  UNK     1      25.173  -8.237  36.921  1.00  0.00     0.169 HD
BRANCH   5   7
HETATM    7  C2  UNK     1      23.577  -9.510  36.875  1.00  0.00     0.046 A 
HETATM    8  C1  UNK     1      22.725  -8.860  37.783  1.00  0.00     0.001 A 
HETATM    9  C3  UNK     1      21.351  -9.197  37.807  1.00  0.00    -0.024 A 
HETATM   10  C6  UNK     1      23.206  -7.880  38.667  1.00  0.00     0.014 A 
HETATM   11  C10 UNK     1      20.499  -8.547  38.714  1.00  0.00     0.012 A 
HETATM   12  C7  UNK     1      20.869 -10.176  36.922  1.00  0.00     0.012 A 
HETATM   13  C14 UNK     1      20.995  -7.577  39.587  1.00  0.00     0.001 A 
HETATM   14  C13 UNK     1      22.346  -7.244  39.563  1.00  0.00     0.001 A 
HETATM   15  C11 UNK     1      21.729 -10.813  36.027  1.00  0.00     0.003 A 
HETATM   16  C5  UNK     1      23.081 -10.479  36.003  1.00  0.00     0.030 A 
ENDBRANCH   5   7
ENDBRANCH   1   3
BRANCH   1  17
HETATM   17  C9  UNK     1      27.964  -9.051  35.410  1.00  0.00    -0.021 A 
HETATM   18  C16 UNK     1      28.558 -10.021  34.622  1.00  0.00     0.012 A 
HETATM   19  C20 UNK     1      29.120  -9.654  33.400  1.00  0.00     0.001 A 
HETATM   20  C22 UNK     1      29.080  -8.324  32.984  1.00  0.00     0.000 A 
HETATM   21  C21 UNK     1      28.477  -7.359  33.792  1.00  0.00     0.001 A 
HETATM   22  C17 UNK     1      27.915  -7.726  35.014  1.00  0.00     0.012 A 
ENDBRANCH   1  17
BRANCH   2  23
HETATM   23  C15 UNK     1      29.332  -8.653  38.062  1.00  0.00    -0.035 A 
HETATM   24  C18 UNK     1      30.452  -9.469  38.010  1.00  0.00     0.011 A 
HETATM   25  C23 UNK     1      31.718  -8.909  38.181  1.00  0.00     0.001 A 
HETATM   26  C25 UNK     1      31.848  -7.537  38.401  1.00  0.00     0.000 A 
HETATM   27  C24 UNK     1      30.713  -6.727  38.451  1.00  0.00     0.001 A 
HETATM   28  C19 UNK     1      29.449  -7.289  38.281  1.00  0.00     0.011 A 
ENDBRANCH   2  23
TORSDOF 4
ENDMDL
MODEL 7
REMARK VINA RESULT:      -8.6     10.664     13.048
REMARK  4 active torsions:
REMARK  status: ('A' for Active; 'I' for Inactive)
REMARK    1  A    between atoms: C2_4  and  N1_2 
REMARK       I    between atoms: C8_10  and  N1_2 
REMARK    2  A    between atoms: C4_6  and  C8_10 
REMARK    3  A    between atoms: C4_6  and  C9_11 
REMARK    4  A    between atoms: C12_14  and  C15_17 
ROOT
HETATM    1  C4  UNK     1      30.046  -7.452  31.943  1.00  0.00     0.043 C 
HETATM    2  C12 UNK     1      29.621  -7.242  30.679  1.00  0.00     0.029 C 
ENDROOT
BRANCH   1   3
HETATM    3  C8  UNK     1      30.278  -6.211  32.775  1.00  0.00     0.257 C 
HETATM    4  O1  UNK     1      29.921  -5.112  32.360  1.00  0.00    -0.267 OA
HETATM    5  N1  UNK     1      30.906  -6.468  33.999  1.00  0.00    -0.322 N 
HETATM    6  H1  UNK     1      30.999  -7.440  34.267  1.00  0.00     0.169 HD
BRANCH   5   7
HETATM    7  C2  UNK     1      31.261  -5.550  34.995  1.00  0.00     0.046 A 
HETATM    8  C1  UNK     1      30.543  -5.447  36.197  1.00  0.00     0.001 A 
HETATM    9  C3  UNK     1      30.950  -4.501  37.167  1.00  0.00    -0.024 A 
HETATM   10  C6  UNK     1      29.432  -6.265  36.459  1.00  0.00     0.014 A 
HETATM   11  C10 UNK     1      30.232  -4.398  38.370  1.00  0.00     0.012 A 
HETATM   12  C7  UNK     1      32.062  -3.684  36.906  1.00  0.00     0.012 A 
HETATM   13  C14 UNK     1      29.129  -5.218  38.613  1.00  0.00     0.001 A 
HETATM   14  C13 UNK     1      28.729  -6.150  37.659  1.00  0.00     0.001 A 
HETATM   15  C11 UNK     1      32.763  -3.799  35.706  1.00  0.00     0.003 A 
HETATM   16  C5  UNK     1      32.364  -4.731  34.752  1.00  0.00     0.030 A 
ENDBRANCH   5   7
ENDBRANCH   1   3
BRANCH   1  17
HETATM   17  C9  UNK     1      30.303  -8.803  32.482  1.00  0.00    -0.021 A 
HETATM   18  C16 UNK     1      31.549  -9.378  32.298  1.00  0.00     0.012 A 
HETATM   19  C20 UNK     1      31.791 -10.653  32.808  1.00  0.00     0.001 A 
HETATM   20  C22 UNK     1      30.785 -11.334  33.493  1.00  0.00     0.000 A 
HETATM   21  C21 UNK     1      29.536 -10.739  33.668  1.00  0.00     0.001 A 
HETATM   22  C17 UNK     1      29.293  -9.464  33.159  1.00  0.00     0.012 A 
ENDBRANCH   1  17
BRANCH   2  23
HETATM   23  C15 UNK     1      29.370  -8.280  29.667  1.00  0.00    -0.035 A 
HETATM   24  C18 UNK     1      30.387  -8.645  28.798  1.00  0.00     0.011 A 
HETATM   25  C23 UNK     1      30.149  -9.629  27.839  1.00  0.00     0.001 A 
HETATM   26  C25 UNK     1      28.897 -10.238  27.761  1.00  0.00     0.000 A 
HETATM   27  C24 UNK     1      27.882  -9.862  28.643  1.00  0.00     0.001 A 
HETATM   28  C19 UNK     1      28.120  -8.878  29.600  1.00  0.00     0.011 A 
ENDBRANCH   2  23
TORSDOF 4
ENDMDL
MODEL 8
REMARK VINA RESULT:      -8.5     10.190     12.979
REMARK  4 active torsions:
REMARK  status: ('A' for Active; 'I' for Inactive)
REMARK    1  A    between atoms: C2_4  and  N1_2 
REMARK       I    between atoms: C8_10  and  N1_2 
REMARK    2  A    between atoms: C4_6  and  C8_10 
REMARK    3  A    between atoms: C4_6  and  C9_11 
REMARK    4  A    between atoms: C12_14  and  C15_17 
ROOT
HETATM    1  C4  UNK     1      30.294  -6.645  35.333  1.00  0.00     0.043 C 
HETATM    2  C12 UNK     1      31.531  -6.856  34.838  1.00  0.00     0.029 C 
ENDROOT
BRANCH   1   3
HETATM    3  C8  UNK     1      29.147  -7.084  34.450  1.00  0.00     0.257 C 
HETATM    4  O1  UNK     1      28.124  -7.545  34.948  1.00  0.00    -0.267 OA
HETATM    5  N1  UNK     1      29.391  -6.900  33.085  1.00  0.00    -0.322 N 
HETATM    6  H1  UNK     1      30.216  -6.368  32.838  1.00  0.00     0.169 HD
BRANCH   5   7
HETATM    7  C2  UNK     1      28.545  -7.199  32.010  1.00  0.00     0.046 A 
HETATM    8  C1  UNK     1      28.846  -8.216  31.091  1.00  0.00     0.001 A 
HETATM    9  C3  UNK     1      27.952  -8.473  30.025  1.00  0.00    -0.024 A 
HETATM   10  C6  UNK     1      30.015  -8.986  31.207  1.00  0.00     0.014 A 
HETATM   11  C10 UNK     1      28.253  -9.491  29.105  1.00  0.00     0.012 A 
HETATM   12  C7  UNK     1      26.782  -7.704  29.909  1.00  0.00     0.012 A 
HETATM   13  C14 UNK     1      29.420 -10.245  29.235  1.00  0.00     0.001 A 
HETATM   14  C13 UNK     1      30.300  -9.993  30.284  1.00  0.00     0.001 A 
HETATM   15  C11 UNK     1      26.499  -6.697  30.831  1.00  0.00     0.003 A 
HETATM   16  C5  UNK     1      27.378  -6.445  31.881  1.00  0.00     0.030 A 
ENDBRANCH   5   7
ENDBRANCH   1   3
BRANCH   1  17
HETATM   17  C9  UNK     1      30.060  -5.998  36.640  1.00  0.00    -0.021 A 
HETATM   18  C16 UNK     1      30.331  -4.649  36.784  1.00  0.00     0.012 A 
HETATM   19  C20 UNK     1      30.110  -4.038  38.018  1.00  0.00     0.001 A 
HETATM   20  C22 UNK     1      29.620  -4.785  39.088  1.00  0.00     0.000 A 
HETATM   21  C21 UNK     1      29.351  -6.144  38.925  1.00  0.00     0.001 A 
HETATM   22  C17 UNK     1      29.574  -6.755  37.692  1.00  0.00     0.012 A 
ENDBRANCH   1  17
BRANCH   2  23
HETATM   23  C15 UNK     1      32.798  -6.477  35.484  1.00  0.00    -0.035 A 
HETATM   24  C18 UNK     1      33.275  -7.232  36.544  1.00  0.00     0.011 A 
HETATM   25  C23 UNK     1      34.476  -6.873  37.156  1.00  0.00     0.001 A 
HETATM   26  C25 UNK     1      35.185  -5.762  36.700  1.00  0.00     0.000 A 
HETATM   27  C24 UNK     1      34.694  -5.011  35.632  1.00  0.00     0.001 A 
HETATM   28  C19 UNK     1      33.494  -5.370  35.021  1.00  0.00     0.011 A 
ENDBRANCH   2  23
TORSDOF 4
ENDMDL
MODEL 9
REMARK VINA RESULT:      -8.5      5.608     11.493
REMARK  4 active torsions:
REMARK  status: ('A' for Active; 'I' for Inactive)
REMARK    1  A    between atoms: C2_4  and  N1_2 
REMARK       I    between atoms: C8_10  and  N1_2 
REMARK    2  A    between atoms: C4_6  and  C8_10 
REMARK    3  A    between atoms: C4_6  and  C9_11 
REMARK    4  A    between atoms: C12_14  and  C15_17 
ROOT
HETATM    1  C4  UNK     1      18.215   4.703  33.316  1.00  0.00     0.043 C 
HETATM    2  C12 UNK     1      17.450   5.502  34.088  1.00  0.00     0.029 C 
ENDROOT
BRANCH   1   3
HETATM    3  C8  UNK     1      18.364   3.275  33.790  1.00  0.00     0.257 C 
HETATM    4  O1  UNK     1      18.320   3.013  34.988  1.00  0.00    -0.267 OA
HETATM    5  N1  UNK     1      18.538   2.355  32.749  1.00  0.00    -0.322 N 
HETATM    6  H1  UNK     1      18.397   2.702  31.808  1.00  0.00     0.169 HD
BRANCH   5   7
HETATM    7  C2  UNK     1      18.703   0.968  32.843  1.00  0.00     0.046 A 
HETATM    8  C1  UNK     1      19.257   0.216  31.795  1.00  0.00     0.001 A 
HETATM    9  C3  UNK     1      19.400  -1.184  31.948  1.00  0.00    -0.024 A 
HETATM   10  C6  UNK     1      19.675   0.822  30.599  1.00  0.00     0.014 A 
HETATM   11  C10 UNK     1      19.954  -1.936  30.899  1.00  0.00     0.012 A 
HETATM   12  C7  UNK     1      18.984  -1.790  33.145  1.00  0.00     0.012 A 
HETATM   13  C14 UNK     1      20.362  -1.318  29.717  1.00  0.00     0.001 A 
HETATM   14  C13 UNK     1      20.223   0.059  29.567  1.00  0.00     0.001 A 
HETATM   15  C11 UNK     1      18.435  -1.027  34.176  1.00  0.00     0.003 A 
HETATM   16  C5  UNK     1      18.295   0.350  34.026  1.00  0.00     0.030 A 
ENDBRANCH   5   7
ENDBRANCH   1   3
BRANCH   1  17
HETATM   17  C9  UNK     1      18.897   5.188  32.098  1.00  0.00    -0.021 A 
HETATM   18  C16 UNK     1      18.206   5.209  30.900  1.00  0.00     0.012 A 
HETATM   19  C20 UNK     1      18.850   5.667  29.751  1.00  0.00     0.001 A 
HETATM   20  C22 UNK     1      20.175   6.095  29.818  1.00  0.00     0.000 A 
HETATM   21  C21 UNK     1      20.857   6.066  31.034  1.00  0.00     0.001 A 
HETATM   22  C17 UNK     1      20.213   5.609  32.183  1.00  0.00     0.012 A 
ENDBRANCH   1  17
BRANCH   2  23
HETATM   23  C15 UNK     1      17.193   6.933  33.862  1.00  0.00    -0.035 A 
HETATM   24  C18 UNK     1      18.086   7.873  34.355  1.00  0.00     0.011 A 
HETATM   25  C23 UNK     1      17.842   9.229  34.142  1.00  0.00     0.001 A 
HETATM   26  C25 UNK     1      16.707   9.631  33.437  1.00  0.00     0.000 A 
HETATM   27  C24 UNK     1      15.816   8.675  32.946  1.00  0.00     0.001 A 
HETATM   28  C19 UNK     1      16.060   7.320  33.161  1.00  0.00     0.011 A 
ENDBRANCH   2  23
TORSDOF 4
ENDMDL
MODEL 10
REMARK VINA RESULT:      -8.5      9.656     12.017
REMARK  4 active torsions:
REMARK  status: ('A' for Active; 'I' for Inactive)
REMARK    1  A    between atoms: C2_4  and  N1_2 
REMARK       I    between atoms: C8_10  and  N1_2 
REMARK    2  A    between atoms: C4_6  and  C8_10 
REMARK    3  A    between atoms: C4_6  and  C9_11 
REMARK    4  A    between atoms: C12_14  and  C15_17 
ROOT
HETATM    1  C4  UNK     1      29.028  -7.239  35.888  1.00  0.00     0.043 C 
HETATM    2  C12 UNK     1      28.185  -8.231  36.240  1.00  0.00     0.029 C 
ENDROOT
BRANCH   1   3
HETATM    3  C8  UNK     1      29.098  -6.927  34.410  1.00  0.00     0.257 C 
HETATM    4  O1  UNK     1      29.821  -6.023  34.001  1.00  0.00    -0.267 OA
HETATM    5  N1  UNK     1      28.288  -7.755  33.625  1.00  0.00    -0.322 N 
HETATM    6  H1  UNK     1      27.870  -8.553  34.088  1.00  0.00     0.169 HD
BRANCH   5   7
HETATM    7  C2  UNK     1      28.123  -7.733  32.235  1.00  0.00     0.046 A 
HETATM    8  C1  UNK     1      28.718  -8.694  31.403  1.00  0.00     0.001 A 
HETATM    9  C3  UNK     1      28.516  -8.621  30.005  1.00  0.00    -0.024 A 
HETATM   10  C6  UNK     1      29.510  -9.729  31.929  1.00  0.00     0.014 A 
HETATM   11  C10 UNK     1      29.112  -9.583  29.173  1.00  0.00     0.012 A 
HETATM   12  C7  UNK     1      27.724  -7.587  29.479  1.00  0.00     0.012 A 
HETATM   13  C14 UNK     1      29.896 -10.604  29.712  1.00  0.00     0.001 A 
HETATM   14  C13 UNK     1      30.095 -10.677  31.088  1.00  0.00     0.001 A 
HETATM   15  C11 UNK     1      27.140  -6.640  30.320  1.00  0.00     0.003 A 
HETATM   16  C5  UNK     1      27.339  -6.713  31.696  1.00  0.00     0.030 A 
ENDBRANCH   5   7
ENDBRANCH   1   3
BRANCH   1  17
HETATM   17  C9  UNK     1      29.861  -6.515  36.871  1.00  0.00    -0.021 A 
HETATM   18  C16 UNK     1      31.172  -6.913  37.067  1.00  0.00     0.012 A 
HETATM   19  C20 UNK     1      31.958  -6.230  37.995  1.00  0.00     0.001 A 
HETATM   20  C22 UNK     1      31.422  -5.160  38.711  1.00  0.00     0.000 A 
HETATM   21  C21 UNK     1      30.098  -4.774  38.500  1.00  0.00     0.001 A 
HETATM   22  C17 UNK     1      29.312  -5.457  37.573  1.00  0.00     0.012 A 
ENDBRANCH   1  17
BRANCH   2  23
HETATM   23  C15 UNK     1      27.976  -8.747  37.603  1.00  0.00    -0.035 A 
HETATM   24  C18 UNK     1      28.950  -9.542  38.187  1.00  0.00     0.011 A 
HETATM   25  C23 UNK     1      28.753 -10.031  39.478  1.00  0.00     0.001 A 
HETATM   26  C25 UNK     1      27.583  -9.717  40.171  1.00  0.00     0.000 A 
HETATM   27  C24 UNK     1      26.611  -8.915  39.571  1.00  0.00     0.001 A 
HETATM   28  C19 UNK     1      26.809  -8.427  38.280  1.00  0.00     0.011 A 
ENDBRANCH   2  23
TORSDOF 4
ENDMDL
