MODEL 1
REMARK VINA RESULT:      -8.3      0.000      0.000
REMARK  3 active torsions:
REMARK  status: ('A' for Active; 'I' for Inactive)
REMARK    1  A    between atoms: C4_8  and  O1_1 
REMARK    2  A    between atoms: C8_12  and  O1_1 
REMARK    3  A    between atoms: C8_12  and  C9_13 
ROOT
HETATM    1  O3  UNK     1      19.350   0.358  28.743  1.00  0.00    -0.274 OA
HETATM    2  O4  UNK     1      18.323   2.332  28.223  1.00  0.00    -0.259 OA
HETATM    3  C9  UNK     1      18.562   1.833  30.526  1.00  0.00     0.115 A 
HETATM    4  C10 UNK     1      18.999   0.981  31.462  1.00  0.00     0.038 A 
HETATM    5  C11 UNK     1      18.722   1.554  29.082  1.00  0.00     0.304 A 
HETATM    6  C12 UNK     1      19.652  -0.260  31.075  1.00  0.00    -0.001 A 
HETATM    7  C13 UNK     1      19.813  -0.543  29.722  1.00  0.00     0.089 A 
HETATM    8  C14 UNK     1      20.124  -1.178  32.016  1.00  0.00     0.014 A 
HETATM    9  C15 UNK     1      20.430  -1.713  29.285  1.00  0.00     0.038 A 
HETATM   10  C16 UNK     1      20.744  -2.357  31.593  1.00  0.00     0.001 A 
HETATM   11  C17 UNK     1      20.898  -2.624  30.230  1.00  0.00     0.003 A 
ENDROOT
BRANCH   3  12
HETATM   12  C8  UNK     1      17.918   3.055  31.015  1.00  0.00     0.299 C 
HETATM   13  O2  UNK     1      16.716   3.259  30.950  1.00  0.00    -0.259 OA
BRANCH  12  14
HETATM   14  O1  UNK     1      18.868   3.882  31.533  1.00  0.00    -0.311 OA
BRANCH  14  15
HETATM   15  C4  UNK     1      18.383   4.970  32.307  1.00  0.00     0.136 C 
HETATM   16  C1  UNK     1      18.980   6.289  31.778  1.00  0.00     0.015 C 
HETATM   17  C3  UNK     1      20.346   6.321  32.472  1.00  0.00     0.012 C 
HETATM   18  C6  UNK     1      18.259   7.463  32.460  1.00  0.00     0.007 C 
HETATM   19  C2  UNK     1      19.741   6.194  33.870  1.00  0.00    -0.012 C 
HETATM   20  C5  UNK     1      18.925   4.895  33.743  1.00  0.00     0.037 C 
HETATM   21  C7  UNK     1      18.776   7.392  33.905  1.00  0.00     0.005 C 
ENDBRANCH  14  15
ENDBRANCH  12  14
ENDBRANCH   3  12
TORSDOF 3
ENDMDL
MODEL 2
REMARK VINA RESULT:      -8.3      6.973     10.711
REMARK  3 active torsions:
REMARK  status: ('A' for Active; 'I' for Inactive)
REMARK    1  A    between atoms: C4_8  and  O1_1 
REMARK    2  A    between atoms: C8_12  and  O1_1 
REMARK    3  A    between atoms: C8_12  and  C9_13 
ROOT
HETATM    1  O3  UNK     1      19.822  -1.251  34.657  1.00  0.00    -0.274 OA
HETATM    2  O4  UNK     1      20.908  -2.988  33.644  1.00  0.00    -0.259 OA
HETATM    3  C9  UNK     1      19.886  -3.447  35.731  1.00  0.00     0.115 A 
HETATM    4  C10 UNK     1      19.173  -2.992  36.768  1.00  0.00     0.038 A 
HETATM    5  C11 UNK     1      20.255  -2.574  34.594  1.00  0.00     0.304 A 
HETATM    6  C12 UNK     1      18.734  -1.604  36.803  1.00  0.00    -0.001 A 
HETATM    7  C13 UNK     1      19.070  -0.766  35.744  1.00  0.00     0.089 A 
HETATM    8  C14 UNK     1      17.988  -1.086  37.863  1.00  0.00     0.014 A 
HETATM    9  C15 UNK     1      18.681   0.572  35.716  1.00  0.00     0.038 A 
HETATM   10  C16 UNK     1      17.591   0.255  37.849  1.00  0.00     0.001 A 
HETATM   11  C17 UNK     1      17.937   1.082  36.778  1.00  0.00     0.003 A 
ENDROOT
BRANCH   3  12
HETATM   12  C8  UNK     1      20.281  -4.857  35.788  1.00  0.00     0.299 C 
HETATM   13  O2  UNK     1      20.124  -5.641  34.865  1.00  0.00    -0.259 OA
BRANCH  12  14
HETATM   14  O1  UNK     1      20.829  -5.117  37.006  1.00  0.00    -0.311 OA
BRANCH  14  15
HETATM   15  C4  UNK     1      21.000  -6.491  37.326  1.00  0.00     0.136 C 
HETATM   16  C1  UNK     1      19.749  -7.011  38.061  1.00  0.00     0.015 C 
HETATM   17  C3  UNK     1      20.023  -6.576  39.504  1.00  0.00     0.012 C 
HETATM   18  C6  UNK     1      19.847  -8.541  38.175  1.00  0.00     0.007 C 
HETATM   19  C2  UNK     1      21.370  -7.296  39.562  1.00  0.00    -0.012 C 
HETATM   20  C5  UNK     1      22.114  -6.668  38.369  1.00  0.00     0.037 C 
HETATM   21  C7  UNK     1      20.971  -8.738  39.203  1.00  0.00     0.005 C 
ENDBRANCH  14  15
ENDBRANCH  12  14
ENDBRANCH   3  12
TORSDOF 3
ENDMDL
MODEL 3
REMARK VINA RESULT:      -8.2      1.389      2.257
REMARK  3 active torsions:
REMARK  status: ('A' for Active; 'I' for Inactive)
REMARK    1  A    between atoms: C4_8  and  O1_1 
REMARK    2  A    between atoms: C8_12  and  O1_1 
REMARK    3  A    between atoms: C8_12  and  C9_13 
ROOT
HETATM    1  O3  UNK     1      18.775   0.397  32.431  1.00  0.00    -0.274 OA
HETATM    2  O4  UNK     1      17.830   2.363  33.111  1.00  0.00    -0.259 OA
HETATM    3  C9  UNK     1      18.744   2.324  30.927  1.00  0.00     0.115 A 
HETATM    4  C10 UNK     1      19.373   1.626  29.974  1.00  0.00     0.038 A 
HETATM    5  C11 UNK     1      18.406   1.726  32.237  1.00  0.00     0.304 A 
HETATM    6  C12 UNK     1      19.745   0.239  30.207  1.00  0.00    -0.001 A 
HETATM    7  C13 UNK     1      19.436  -0.344  31.432  1.00  0.00     0.089 A 
HETATM    8  C14 UNK     1      20.402  -0.528  29.242  1.00  0.00     0.014 A 
HETATM    9  C15 UNK     1      19.764  -1.667  31.719  1.00  0.00     0.038 A 
HETATM   10  C16 UNK     1      20.738  -1.857  29.515  1.00  0.00     0.001 A 
HETATM   11  C17 UNK     1      20.420  -2.426  30.751  1.00  0.00     0.003 A 
ENDROOT
BRANCH   3  12
HETATM   12  C8  UNK     1      18.411   3.714  30.597  1.00  0.00     0.299 C 
HETATM   13  O2  UNK     1      18.727   4.254  29.549  1.00  0.00    -0.259 OA
BRANCH  12  14
HETATM   14  O1  UNK     1      17.716   4.261  31.631  1.00  0.00    -0.311 OA
BRANCH  14  15
HETATM   15  C4  UNK     1      18.017   5.618  31.927  1.00  0.00     0.136 C 
HETATM   16  C1  UNK     1      19.270   5.687  32.822  1.00  0.00     0.015 C 
HETATM   17  C3  UNK     1      18.680   5.449  34.216  1.00  0.00     0.012 C 
HETATM   18  C6  UNK     1      19.720   7.153  32.924  1.00  0.00     0.007 C 
HETATM   19  C2  UNK     1      17.690   6.606  34.096  1.00  0.00    -0.012 C 
HETATM   20  C5  UNK     1      16.923   6.233  32.814  1.00  0.00     0.037 C 
HETATM   21  C7  UNK     1      18.626   7.790  33.794  1.00  0.00     0.005 C 
ENDBRANCH  14  15
ENDBRANCH  12  14
ENDBRANCH   3  12
TORSDOF 3
ENDMDL
MODEL 4
REMARK VINA RESULT:      -8.1      3.229      4.184
REMARK  3 active torsions:
REMARK  status: ('A' for Active; 'I' for Inactive)
REMARK    1  A    between atoms: C4_8  and  O1_1 
REMARK    2  A    between atoms: C8_12  and  O1_1 
REMARK    3  A    between atoms: C8_12  and  C9_13 
ROOT
HETATM    1  O3  UNK     1      18.760  -0.586  33.954  1.00  0.00    -0.274 OA
HETATM    2  O4  UNK     1      18.990   0.094  31.784  1.00  0.00    -0.259 OA
HETATM    3  C9  UNK     1      18.203   1.711  33.325  1.00  0.00     0.115 A 
HETATM    4  C10 UNK     1      17.866   2.004  34.587  1.00  0.00     0.038 A 
HETATM    5  C11 UNK     1      18.680   0.364  32.939  1.00  0.00     0.304 A 
HETATM    6  C12 UNK     1      17.961   0.989  35.626  1.00  0.00    -0.001 A 
HETATM    7  C13 UNK     1      18.407  -0.283  35.284  1.00  0.00     0.089 A 
HETATM    8  C14 UNK     1      17.620   1.250  36.955  1.00  0.00     0.014 A 
HETATM    9  C15 UNK     1      18.522  -1.300  36.230  1.00  0.00     0.038 A 
HETATM   10  C16 UNK     1      17.729   0.240  37.915  1.00  0.00     0.001 A 
HETATM   11  C17 UNK     1      18.179  -1.032  37.554  1.00  0.00     0.003 A 
ENDROOT
BRANCH   3  12
HETATM   12  C8  UNK     1      18.073   2.799  32.352  1.00  0.00     0.299 C 
HETATM   13  O2  UNK     1      17.596   2.656  31.238  1.00  0.00    -0.259 OA
BRANCH  12  14
HETATM   14  O1  UNK     1      18.562   3.946  32.899  1.00  0.00    -0.311 OA
BRANCH  14  15
HETATM   15  C4  UNK     1      17.783   5.114  32.683  1.00  0.00     0.136 C 
HETATM   16  C1  UNK     1      18.499   6.036  31.677  1.00  0.00     0.015 C 
HETATM   17  C3  UNK     1      19.486   6.785  32.578  1.00  0.00     0.012 C 
HETATM   18  C6  UNK     1      17.536   7.162  31.270  1.00  0.00     0.007 C 
HETATM   19  C2  UNK     1      18.390   7.286  33.517  1.00  0.00    -0.012 C 
HETATM   20  C5  UNK     1      17.726   5.969  33.959  1.00  0.00     0.037 C 
HETATM   21  C7  UNK     1      17.452   8.020  32.543  1.00  0.00     0.005 C 
ENDBRANCH  14  15
ENDBRANCH  12  14
ENDBRANCH   3  12
TORSDOF 3
ENDMDL
MODEL 5
REMARK VINA RESULT:      -8.1      2.048      2.787
REMARK  3 active torsions:
REMARK  status: ('A' for Active; 'I' for Inactive)
REMARK    1  A    between atoms: C4_8  and  O1_1 
REMARK    2  A    between atoms: C8_12  and  O1_1 
REMARK    3  A    between atoms: C8_12  and  C9_13 
ROOT
HETATM    1  O3  UNK     1      19.125  -1.075  32.917  1.00  0.00    -0.274 OA
HETATM    2  O4  UNK     1      18.271  -0.148  34.823  1.00  0.00    -0.259 OA
HETATM    3  C9  UNK     1      18.598   1.311  32.987  1.00  0.00     0.115 A 
HETATM    4  C10 UNK     1      19.002   1.466  31.720  1.00  0.00     0.038 A 
HETATM    5  C11 UNK     1      18.641  -0.004  33.663  1.00  0.00     0.304 A 
HETATM    6  C12 UNK     1      19.502   0.327  30.966  1.00  0.00    -0.001 A 
HETATM    7  C13 UNK     1      19.551  -0.919  31.583  1.00  0.00     0.089 A 
HETATM    8  C14 UNK     1      19.934   0.441  29.643  1.00  0.00     0.014 A 
HETATM    9  C15 UNK     1      20.018  -2.050  30.917  1.00  0.00     0.038 A 
HETATM   10  C16 UNK     1      20.406  -0.685  28.961  1.00  0.00     0.001 A 
HETATM   11  C17 UNK     1      20.448  -1.928  29.597  1.00  0.00     0.003 A 
ENDROOT
BRANCH   3  12
HETATM   12  C8  UNK     1      18.111   2.518  33.662  1.00  0.00     0.299 C 
HETATM   13  O2  UNK     1      17.910   2.585  34.864  1.00  0.00    -0.259 OA
BRANCH  12  14
HETATM   14  O1  UNK     1      17.934   3.503  32.739  1.00  0.00    -0.311 OA
BRANCH  14  15
HETATM   15  C4  UNK     1      17.910   4.829  33.249  1.00  0.00     0.136 C 
HETATM   16  C1  UNK     1      17.521   5.809  32.126  1.00  0.00     0.015 C 
HETATM   17  C3  UNK     1      18.862   6.037  31.422  1.00  0.00     0.012 C 
HETATM   18  C6  UNK     1      17.259   7.190  32.747  1.00  0.00     0.007 C 
HETATM   19  C2  UNK     1      19.562   6.490  32.703  1.00  0.00    -0.012 C 
HETATM   20  C5  UNK     1      19.326   5.286  33.633  1.00  0.00     0.037 C 
HETATM   21  C7  UNK     1      18.665   7.657  33.155  1.00  0.00     0.005 C 
ENDBRANCH  14  15
ENDBRANCH  12  14
ENDBRANCH   3  12
TORSDOF 3
ENDMDL
MODEL 6
REMARK VINA RESULT:      -8.0      6.593     10.605
REMARK  3 active torsions:
REMARK  status: ('A' for Active; 'I' for Inactive)
REMARK    1  A    between atoms: C4_8  and  O1_1 
REMARK    2  A    between atoms: C8_12  and  O1_1 
REMARK    3  A    between atoms: C8_12  and  C9_13 
ROOT
HETATM    1  O3  UNK     1      19.427  -1.253  34.574  1.00  0.00    -0.274 OA
HETATM    2  O4  UNK     1      20.729  -3.082  34.151  1.00  0.00    -0.259 OA
HETATM    3  C9  UNK     1      19.825  -2.905  36.332  1.00  0.00     0.115 A 
HETATM    4  C10 UNK     1      19.074  -2.209  37.195  1.00  0.00     0.038 A 
HETATM    5  C11 UNK     1      20.042  -2.447  34.942  1.00  0.00     0.304 A 
HETATM    6  C12 UNK     1      18.443  -0.965  36.780  1.00  0.00    -0.001 A 
HETATM    7  C13 UNK     1      18.634  -0.516  35.477  1.00  0.00     0.089 A 
HETATM    8  C14 UNK     1      17.651  -0.207  37.645  1.00  0.00     0.014 A 
HETATM    9  C15 UNK     1      18.058   0.665  35.016  1.00  0.00     0.038 A 
HETATM   10  C16 UNK     1      17.067   0.981  37.197  1.00  0.00     0.001 A 
HETATM   11  C17 UNK     1      17.270   1.417  35.885  1.00  0.00     0.003 A 
ENDROOT
BRANCH   3  12
HETATM   12  C8  UNK     1      20.417  -4.144  36.845  1.00  0.00     0.299 C 
HETATM   13  O2  UNK     1      21.578  -4.237  37.211  1.00  0.00    -0.259 OA
BRANCH  12  14
HETATM   14  O1  UNK     1      19.473  -5.125  36.836  1.00  0.00    -0.311 OA
BRANCH  14  15
HETATM   15  C4  UNK     1      19.963  -6.453  36.965  1.00  0.00     0.136 C 
HETATM   16  C1  UNK     1      19.803  -7.196  35.624  1.00  0.00     0.015 C 
HETATM   17  C3  UNK     1      18.345  -7.660  35.688  1.00  0.00     0.012 C 
HETATM   18  C6  UNK     1      20.557  -8.533  35.711  1.00  0.00     0.007 C 
HETATM   19  C2  UNK     1      18.539  -8.391  37.016  1.00  0.00    -0.012 C 
HETATM   20  C5  UNK     1      19.074  -7.265  37.920  1.00  0.00     0.037 C 
HETATM   21  C7  UNK     1      19.691  -9.354  36.678  1.00  0.00     0.005 C 
ENDBRANCH  14  15
ENDBRANCH  12  14
ENDBRANCH   3  12
TORSDOF 3
ENDMDL
MODEL 7
REMARK VINA RESULT:      -7.9      3.221      4.574
REMARK  3 active torsions:
REMARK  status: ('A' for Active; 'I' for Inactive)
REMARK    1  A    between atoms: C4_8  and  O1_1 
REMARK    2  A    between atoms: C8_12  and  O1_1 
REMARK    3  A    between atoms: C8_12  and  C9_13 
ROOT
HETATM    1  O3  UNK     1      19.165   1.731  29.808  1.00  0.00    -0.274 OA
HETATM    2  O4  UNK     1      18.280   3.658  30.659  1.00  0.00    -0.259 OA
HETATM    3  C9  UNK     1      18.537   1.851  32.168  1.00  0.00     0.115 A 
HETATM    4  C10 UNK     1      18.930   0.588  32.366  1.00  0.00     0.038 A 
HETATM    5  C11 UNK     1      18.640   2.501  30.843  1.00  0.00     0.304 A 
HETATM    6  C12 UNK     1      19.477  -0.191  31.265  1.00  0.00    -0.001 A 
HETATM    7  C13 UNK     1      19.582   0.400  30.010  1.00  0.00     0.089 A 
HETATM    8  C14 UNK     1      19.900  -1.513  31.425  1.00  0.00     0.014 A 
HETATM    9  C15 UNK     1      20.097  -0.290  28.915  1.00  0.00     0.038 A 
HETATM   10  C16 UNK     1      20.418  -2.218  30.335  1.00  0.00     0.001 A 
HETATM   11  C17 UNK     1      20.516  -1.608  29.082  1.00  0.00     0.003 A 
ENDROOT
BRANCH   3  12
HETATM   12  C8  UNK     1      18.001   2.552  33.338  1.00  0.00     0.299 C 
HETATM   13  O2  UNK     1      18.286   3.704  33.626  1.00  0.00    -0.259 OA
BRANCH  12  14
HETATM   14  O1  UNK     1      17.163   1.716  34.012  1.00  0.00    -0.311 OA
BRANCH  14  15
HETATM   15  C4  UNK     1      17.755   0.963  35.060  1.00  0.00     0.136 C 
HETATM   16  C1  UNK     1      16.826  -0.203  35.449  1.00  0.00     0.015 C 
HETATM   17  C3  UNK     1      15.844   0.478  36.408  1.00  0.00     0.012 C 
HETATM   18  C6  UNK     1      17.586  -1.142  36.400  1.00  0.00     0.007 C 
HETATM   19  C2  UNK     1      16.953   0.988  37.328  1.00  0.00    -0.012 C 
HETATM   20  C5  UNK     1      17.827   1.796  36.350  1.00  0.00     0.037 C 
HETATM   21  C7  UNK     1      17.683  -0.317  37.693  1.00  0.00     0.005 C 
ENDBRANCH  14  15
ENDBRANCH  12  14
ENDBRANCH   3  12
TORSDOF 3
ENDMDL
MODEL 8
REMARK VINA RESULT:      -7.9     21.523     23.825
REMARK  3 active torsions:
REMARK  status: ('A' for Active; 'I' for Inactive)
REMARK    1  A    between atoms: C4_8  and  O1_1 
REMARK    2  A    between atoms: C8_12  and  O1_1 
REMARK    3  A    between atoms: C8_12  and  C9_13 
ROOT
HETATM    1  O3  UNK     1      10.289   5.286   9.249  1.00  0.00    -0.274 OA
HETATM    2  O4  UNK     1      11.585   4.646  11.019  1.00  0.00    -0.259 OA
HETATM    3  C9  UNK     1      12.726   5.392   9.082  1.00  0.00     0.115 A 
HETATM    4  C10 UNK     1      12.648   5.859   7.830  1.00  0.00     0.038 A 
HETATM    5  C11 UNK     1      11.516   5.075   9.872  1.00  0.00     0.304 A 
HETATM    6  C12 UNK     1      11.351   6.071   7.206  1.00  0.00    -0.001 A 
HETATM    7  C13 UNK     1      10.200   5.779   7.932  1.00  0.00     0.089 A 
HETATM    8  C14 UNK     1      11.221   6.557   5.903  1.00  0.00     0.014 A 
HETATM    9  C15 UNK     1       8.928   5.959   7.394  1.00  0.00     0.038 A 
HETATM   10  C16 UNK     1       9.951   6.743   5.350  1.00  0.00     0.001 A 
HETATM   11  C17 UNK     1       8.806   6.445   6.093  1.00  0.00     0.003 A 
ENDROOT
BRANCH   3  12
HETATM   12  C8  UNK     1      14.077   5.213   9.622  1.00  0.00     0.299 C 
HETATM   13  O2  UNK     1      14.816   4.294   9.304  1.00  0.00    -0.259 OA
BRANCH  12  14
HETATM   14  O1  UNK     1      14.341   6.217  10.502  1.00  0.00    -0.311 OA
BRANCH  14  15
HETATM   15  C4  UNK     1      15.043   7.333   9.973  1.00  0.00     0.136 C 
HETATM   16  C1  UNK     1      16.298   7.607  10.825  1.00  0.00     0.015 C 
HETATM   17  C3  UNK     1      15.725   8.435  11.979  1.00  0.00     0.012 C 
HETATM   18  C6  UNK     1      17.167   8.647  10.100  1.00  0.00     0.007 C 
HETATM   19  C2  UNK     1      15.118   9.484  11.047  1.00  0.00    -0.012 C 
HETATM   20  C5  UNK     1      14.220   8.620  10.142  1.00  0.00     0.037 C 
HETATM   21  C7  UNK     1      16.349   9.940  10.244  1.00  0.00     0.005 C 
ENDBRANCH  14  15
ENDBRANCH  12  14
ENDBRANCH   3  12
TORSDOF 3
ENDMDL
MODEL 9
REMARK VINA RESULT:      -7.9      3.487      6.545
REMARK  3 active torsions:
REMARK  status: ('A' for Active; 'I' for Inactive)
REMARK    1  A    between atoms: C4_8  and  O1_1 
REMARK    2  A    between atoms: C8_12  and  O1_1 
REMARK    3  A    between atoms: C8_12  and  C9_13 
ROOT
HETATM    1  O3  UNK     1      18.324   4.000  30.662  1.00  0.00    -0.274 OA
HETATM    2  O4  UNK     1      18.432   1.753  30.262  1.00  0.00    -0.259 OA
HETATM    3  C9  UNK     1      18.341   2.424  32.532  1.00  0.00     0.115 A 
HETATM    4  C10 UNK     1      18.273   3.428  33.414  1.00  0.00     0.038 A 
HETATM    5  C11 UNK     1      18.370   2.670  31.073  1.00  0.00     0.304 A 
HETATM    6  C12 UNK     1      18.225   4.808  32.954  1.00  0.00    -0.001 A 
HETATM    7  C13 UNK     1      18.251   5.061  31.586  1.00  0.00     0.089 A 
HETATM    8  C14 UNK     1      18.154   5.886  33.838  1.00  0.00     0.014 A 
HETATM    9  C15 UNK     1      18.208   6.358  31.079  1.00  0.00     0.038 A 
HETATM   10  C16 UNK     1      18.110   7.193  33.344  1.00  0.00     0.001 A 
HETATM   11  C17 UNK     1      18.137   7.429  31.968  1.00  0.00     0.003 A 
ENDROOT
BRANCH   3  12
HETATM   12  C8  UNK     1      18.385   1.071  33.093  1.00  0.00     0.299 C 
HETATM   13  O2  UNK     1      19.117   0.189  32.674  1.00  0.00    -0.259 OA
BRANCH  12  14
HETATM   14  O1  UNK     1      17.498   0.988  34.123  1.00  0.00    -0.311 OA
BRANCH  14  15
HETATM   15  C4  UNK     1      18.005   0.439  35.331  1.00  0.00     0.136 C 
HETATM   16  C1  UNK     1      16.916  -0.415  36.009  1.00  0.00     0.015 C 
HETATM   17  C3  UNK     1      16.101   0.643  36.758  1.00  0.00     0.012 C 
HETATM   18  C6  UNK     1      17.554  -1.194  37.170  1.00  0.00     0.007 C 
HETATM   19  C2  UNK     1      17.317   1.176  37.515  1.00  0.00    -0.012 C 
HETATM   20  C5  UNK     1      18.267   1.549  36.361  1.00  0.00     0.037 C 
HETATM   21  C7  UNK     1      17.840  -0.095  38.206  1.00  0.00     0.005 C 
ENDBRANCH  14  15
ENDBRANCH  12  14
ENDBRANCH   3  12
TORSDOF 3
ENDMDL
MODEL 10
REMARK VINA RESULT:      -7.9      7.578      9.480
REMARK  3 active torsions:
REMARK  status: ('A' for Active; 'I' for Inactive)
REMARK    1  A    between atoms: C4_8  and  O1_1 
REMARK    2  A    between atoms: C8_12  and  O1_1 
REMARK    3  A    between atoms: C8_12  and  C9_13 
ROOT
HETATM    1  O3  UNK     1      19.111  -6.951  37.772  1.00  0.00    -0.274 OA
HETATM    2  O4  UNK     1      17.879  -5.580  36.421  1.00  0.00    -0.259 OA
HETATM    3  C9  UNK     1      20.078  -4.866  36.937  1.00  0.00     0.115 A 
HETATM    4  C10 UNK     1      21.228  -5.110  37.577  1.00  0.00     0.038 A 
HETATM    5  C11 UNK     1      18.933  -5.801  37.006  1.00  0.00     0.304 A 
HETATM    6  C12 UNK     1      21.383  -6.321  38.369  1.00  0.00    -0.001 A 
HETATM    7  C13 UNK     1      20.319  -7.215  38.447  1.00  0.00     0.089 A 
HETATM    8  C14 UNK     1      22.564  -6.618  39.052  1.00  0.00     0.014 A 
HETATM    9  C15 UNK     1      20.402  -8.392  39.187  1.00  0.00     0.038 A 
HETATM   10  C16 UNK     1      22.662  -7.795  39.800  1.00  0.00     0.001 A 
HETATM   11  C17 UNK     1      21.584  -8.680  39.867  1.00  0.00     0.003 A 
ENDROOT
BRANCH   3  12
HETATM   12  C8  UNK     1      20.019  -3.620  36.166  1.00  0.00     0.299 C 
HETATM   13  O2  UNK     1      20.283  -3.549  34.977  1.00  0.00    -0.259 OA
BRANCH  12  14
HETATM   14  O1  UNK     1      19.631  -2.607  36.988  1.00  0.00    -0.311 OA
BRANCH  14  15
HETATM   15  C4  UNK     1      18.323  -2.099  36.766  1.00  0.00     0.136 C 
HETATM   16  C1  UNK     1      18.324  -1.193  35.519  1.00  0.00     0.015 C 
HETATM   17  C3  UNK     1      18.813   0.140  36.093  1.00  0.00     0.012 C 
HETATM   18  C6  UNK     1      16.869  -0.858  35.155  1.00  0.00     0.007 C 
HETATM   19  C2  UNK     1      17.710   0.195  37.149  1.00  0.00    -0.012 C 
HETATM   20  C5  UNK     1      17.919  -1.136  37.894  1.00  0.00     0.037 C 
HETATM   21  C7  UNK     1      16.441   0.092  36.284  1.00  0.00     0.005 C 
ENDBRANCH  14  15
ENDBRANCH  12  14
ENDBRANCH   3  12
TORSDOF 3
ENDMDL
