MODEL 1
REMARK VINA RESULT:     -10.3      0.000      0.000
REMARK  3 active torsions:
REMARK  status: ('A' for Active; 'I' for Inactive)
REMARK    1  A    between atoms: C12_18  and  N1_5 
REMARK       I    between atoms: C13_19  and  N1_5 
REMARK    2  A    between atoms: C3_9  and  C8_14 
REMARK    3  A    between atoms: C11_17  and  C13_19 
ROOT
HETATM    1  N2  UNK     1      19.872   6.074  29.575  1.00  0.00    -0.191 NA
HETATM    2  C8  UNK     1      17.805   4.973  32.163  1.00  0.00     0.045 C 
HETATM    3  C11 UNK     1      18.445   4.514  31.068  1.00  0.00     0.113 C 
HETATM    4  C19 UNK     1      19.232   5.378  30.247  1.00  0.00     0.105 C 
ENDROOT
BRANCH   3   5
HETATM    5  C13 UNK     1      18.284   3.043  30.746  1.00  0.00     0.266 C 
HETATM    6  O3  UNK     1      17.173   2.519  30.775  1.00  0.00    -0.267 OA
HETATM    7  N1  UNK     1      19.481   2.407  30.437  1.00  0.00    -0.322 N 
HETATM    8  H7  UNK     1      20.340   2.950  30.450  1.00  0.00     0.169 HD
BRANCH   7   9
HETATM    9  C12 UNK     1      19.670   1.044  30.094  1.00  0.00     0.036 A 
HETATM   10  C14 UNK     1      20.100   0.157  31.063  1.00  0.00     0.053 A 
HETATM   11  C16 UNK     1      20.286  -1.184  30.724  1.00  0.00     0.036 A 
HETATM   12 Cl1  UNK     1      20.820  -2.307  31.914  1.00  0.00    -0.084 Cl
HETATM   13  C18 UNK     1      20.039  -1.614  29.420  1.00  0.00     0.024 A 
HETATM   14  C17 UNK     1      19.606  -0.704  28.456  1.00  0.00     0.004 A 
HETATM   15  C15 UNK     1      19.420   0.636  28.795  1.00  0.00     0.029 A 
ENDBRANCH   7   9
ENDBRANCH   3   5
BRANCH   2  16
HETATM   16  C3  UNK     1      17.811   6.324  32.657  1.00  0.00     0.039 A 
HETATM   17  C4  UNK     1      16.573   7.147  32.620  1.00  0.00     0.197 A 
HETATM   18  C1  UNK     1      16.680   8.519  33.153  1.00  0.00     0.049 A 
HETATM   19  O2  UNK     1      15.513   6.722  32.175  1.00  0.00    -0.286 OA
HETATM   20  C2  UNK     1      17.907   8.959  33.650  1.00  0.00     0.089 A 
HETATM   21  C5  UNK     1      15.571   9.368  33.164  1.00  0.00     0.018 A 
HETATM   22  O1  UNK     1      19.027   8.167  33.665  1.00  0.00    -0.321 OA
HETATM   23  C6  UNK     1      18.031  10.251  34.162  1.00  0.00     0.038 A 
HETATM   24  C7  UNK     1      18.913   6.893  33.166  1.00  0.00     0.158 A 
HETATM   25  C10 UNK     1      16.925  11.102  34.173  1.00  0.00     0.003 A 
HETATM   26  C9  UNK     1      15.698  10.661  33.676  1.00  0.00     0.001 A 
ENDBRANCH   2  16
TORSDOF 3
ENDMDL
MODEL 2
REMARK VINA RESULT:     -10.3      0.900      1.842
REMARK  3 active torsions:
REMARK  status: ('A' for Active; 'I' for Inactive)
REMARK    1  A    between atoms: C12_18  and  N1_5 
REMARK       I    between atoms: C13_19  and  N1_5 
REMARK    2  A    between atoms: C3_9  and  C8_14 
REMARK    3  A    between atoms: C11_17  and  C13_19 
ROOT
HETATM    1  N2  UNK     1      19.376   5.738  29.668  1.00  0.00    -0.191 NA
HETATM    2  C8  UNK     1      17.871   4.757  32.660  1.00  0.00     0.045 C 
HETATM    3  C11 UNK     1      18.435   4.234  31.552  1.00  0.00     0.113 C 
HETATM    4  C19 UNK     1      18.953   5.067  30.515  1.00  0.00     0.105 C 
ENDROOT
BRANCH   3   5
HETATM    5  C13 UNK     1      18.487   2.723  31.457  1.00  0.00     0.266 C 
HETATM    6  O3  UNK     1      17.819   2.029  32.220  1.00  0.00    -0.267 OA
HETATM    7  N1  UNK     1      19.335   2.257  30.458  1.00  0.00    -0.322 N 
HETATM    8  H7  UNK     1      19.838   2.934  29.890  1.00  0.00     0.169 HD
BRANCH   7   9
HETATM    9  C12 UNK     1      19.603   0.908  30.114  1.00  0.00     0.036 A 
HETATM   10  C14 UNK     1      20.054   0.039  31.091  1.00  0.00     0.053 A 
HETATM   11  C16 UNK     1      20.318  -1.288  30.751  1.00  0.00     0.036 A 
HETATM   12 Cl1  UNK     1      20.880  -2.388  31.950  1.00  0.00    -0.084 Cl
HETATM   13  C18 UNK     1      20.128  -1.724  29.440  1.00  0.00     0.024 A 
HETATM   14  C17 UNK     1      19.673  -0.832  28.468  1.00  0.00     0.004 A 
HETATM   15  C15 UNK     1      19.408   0.494  28.808  1.00  0.00     0.029 A 
ENDBRANCH   7   9
ENDBRANCH   3   5
BRANCH   2  16
HETATM   16  C3  UNK     1      17.710   6.153  32.964  1.00  0.00     0.039 A 
HETATM   17  C4  UNK     1      18.865   6.958  33.443  1.00  0.00     0.197 A 
HETATM   18  C1  UNK     1      18.600   8.383  33.726  1.00  0.00     0.049 A 
HETATM   19  O2  UNK     1      19.982   6.480  33.599  1.00  0.00    -0.286 OA
HETATM   20  C2  UNK     1      17.312   8.883  33.533  1.00  0.00     0.089 A 
HETATM   21  C5  UNK     1      19.621   9.222  34.178  1.00  0.00     0.018 A 
HETATM   22  O1  UNK     1      16.274   8.105  33.090  1.00  0.00    -0.321 OA
HETATM   23  C6  UNK     1      17.039  10.227  33.790  1.00  0.00     0.038 A 
HETATM   24  C7  UNK     1      16.535   6.782  32.831  1.00  0.00     0.158 A 
HETATM   25  C10 UNK     1      18.056  11.067  34.243  1.00  0.00     0.003 A 
HETATM   26  C9  UNK     1      19.345  10.566  34.436  1.00  0.00     0.001 A 
ENDBRANCH   2  16
TORSDOF 3
ENDMDL
MODEL 3
REMARK VINA RESULT:      -9.7      3.353      8.923
REMARK  3 active torsions:
REMARK  status: ('A' for Active; 'I' for Inactive)
REMARK    1  A    between atoms: C12_18  and  N1_5 
REMARK       I    between atoms: C13_19  and  N1_5 
REMARK    2  A    between atoms: C3_9  and  C8_14 
REMARK    3  A    between atoms: C11_17  and  C13_19 
ROOT
HETATM    1  N2  UNK     1      20.862   5.605  30.863  1.00  0.00    -0.191 NA
HETATM    2  C8  UNK     1      17.687   4.322  31.538  1.00  0.00     0.045 C 
HETATM    3  C11 UNK     1      18.336   5.498  31.418  1.00  0.00     0.113 C 
HETATM    4  C19 UNK     1      19.729   5.553  31.111  1.00  0.00     0.105 C 
ENDROOT
BRANCH   3   5
HETATM    5  C13 UNK     1      17.520   6.757  31.631  1.00  0.00     0.266 C 
HETATM    6  O3  UNK     1      17.111   7.402  30.669  1.00  0.00    -0.267 OA
HETATM    7  N1  UNK     1      17.312   7.064  32.971  1.00  0.00    -0.322 N 
HETATM    8  H7  UNK     1      17.705   6.451  33.680  1.00  0.00     0.169 HD
BRANCH   7   9
HETATM    9  C12 UNK     1      16.594   8.167  33.502  1.00  0.00     0.036 A 
HETATM   10  C14 UNK     1      17.253   9.364  33.708  1.00  0.00     0.053 A 
HETATM   11  C16 UNK     1      16.547  10.448  34.231  1.00  0.00     0.036 A 
HETATM   12 Cl1  UNK     1      17.345  11.949  34.497  1.00  0.00    -0.084 Cl
HETATM   13  C18 UNK     1      15.192  10.315  34.538  1.00  0.00     0.024 A 
HETATM   14  C17 UNK     1      14.545   9.098  34.323  1.00  0.00     0.004 A 
HETATM   15  C15 UNK     1      15.251   8.015  33.800  1.00  0.00     0.029 A 
ENDBRANCH   7   9
ENDBRANCH   3   5
BRANCH   2  16
HETATM   16  C3  UNK     1      18.254   3.009  31.383  1.00  0.00     0.039 A 
HETATM   17  C4  UNK     1      18.552   2.472  30.029  1.00  0.00     0.197 A 
HETATM   18  C1  UNK     1      19.135   1.117  29.975  1.00  0.00     0.049 A 
HETATM   19  O2  UNK     1      18.334   3.108  29.005  1.00  0.00    -0.286 OA
HETATM   20  C2  UNK     1      19.367   0.430  31.167  1.00  0.00     0.089 A 
HETATM   21  C5  UNK     1      19.452   0.526  28.749  1.00  0.00     0.018 A 
HETATM   22  O1  UNK     1      19.075   0.963  32.396  1.00  0.00    -0.321 OA
HETATM   23  C6  UNK     1      19.920  -0.850  31.140  1.00  0.00     0.038 A 
HETATM   24  C7  UNK     1      18.534   2.225  32.432  1.00  0.00     0.158 A 
HETATM   25  C10 UNK     1      20.237  -1.443  29.918  1.00  0.00     0.003 A 
HETATM   26  C9  UNK     1      20.005  -0.756  28.725  1.00  0.00     0.001 A 
ENDBRANCH   2  16
TORSDOF 3
ENDMDL
MODEL 4
REMARK VINA RESULT:      -9.5      3.243      9.108
REMARK  3 active torsions:
REMARK  status: ('A' for Active; 'I' for Inactive)
REMARK    1  A    between atoms: C12_18  and  N1_5 
REMARK       I    between atoms: C13_19  and  N1_5 
REMARK    2  A    between atoms: C3_9  and  C8_14 
REMARK    3  A    between atoms: C11_17  and  C13_19 
ROOT
HETATM    1  N2  UNK     1      20.194   5.798  30.056  1.00  0.00    -0.191 NA
HETATM    2  C8  UNK     1      18.039   3.780  31.917  1.00  0.00     0.045 C 
HETATM    3  C11 UNK     1      18.429   5.065  31.802  1.00  0.00     0.113 C 
HETATM    4  C19 UNK     1      19.403   5.465  30.837  1.00  0.00     0.105 C 
ENDROOT
BRANCH   3   5
HETATM    5  C13 UNK     1      17.792   6.063  32.747  1.00  0.00     0.266 C 
HETATM    6  O3  UNK     1      17.445   5.716  33.874  1.00  0.00    -0.267 OA
HETATM    7  N1  UNK     1      17.661   7.337  32.206  1.00  0.00    -0.322 N 
HETATM    8  H7  UNK     1      17.985   7.499  31.256  1.00  0.00     0.169 HD
BRANCH   7   9
HETATM    9  C12 UNK     1      17.109   8.486  32.828  1.00  0.00     0.036 A 
HETATM   10  C14 UNK     1      15.766   8.768  32.655  1.00  0.00     0.053 A 
HETATM   11  C16 UNK     1      15.225   9.898  33.267  1.00  0.00     0.036 A 
HETATM   12 Cl1  UNK     1      13.556  10.271  33.067  1.00  0.00    -0.084 Cl
HETATM   13  C18 UNK     1      16.036  10.728  34.042  1.00  0.00     0.024 A 
HETATM   14  C17 UNK     1      17.388  10.427  34.204  1.00  0.00     0.004 A 
HETATM   15  C15 UNK     1      17.929   9.297  33.593  1.00  0.00     0.029 A 
ENDBRANCH   7   9
ENDBRANCH   3   5
BRANCH   2  16
HETATM   16  C3  UNK     1      18.507   2.667  31.134  1.00  0.00     0.039 A 
HETATM   17  C4  UNK     1      18.919   1.400  31.796  1.00  0.00     0.197 A 
HETATM   18  C1  UNK     1      19.381   0.317  30.906  1.00  0.00     0.049 A 
HETATM   19  O2  UNK     1      18.882   1.249  33.010  1.00  0.00    -0.286 OA
HETATM   20  C2  UNK     1      19.406   0.534  29.529  1.00  0.00     0.089 A 
HETATM   21  C5  UNK     1      19.788  -0.912  31.432  1.00  0.00     0.018 A 
HETATM   22  O1  UNK     1      19.018   1.720  28.959  1.00  0.00    -0.321 OA
HETATM   23  C6  UNK     1      19.836  -0.477  28.669  1.00  0.00     0.038 A 
HETATM   24  C7  UNK     1      18.590   2.719  29.798  1.00  0.00     0.158 A 
HETATM   25  C10 UNK     1      20.243  -1.705  29.191  1.00  0.00     0.003 A 
HETATM   26  C9  UNK     1      20.218  -1.922  30.570  1.00  0.00     0.001 A 
ENDBRANCH   2  16
TORSDOF 3
ENDMDL
MODEL 5
REMARK VINA RESULT:      -9.5      1.866      2.388
REMARK  3 active torsions:
REMARK  status: ('A' for Active; 'I' for Inactive)
REMARK    1  A    between atoms: C12_18  and  N1_5 
REMARK       I    between atoms: C13_19  and  N1_5 
REMARK    2  A    between atoms: C3_9  and  C8_14 
REMARK    3  A    between atoms: C11_17  and  C13_19 
ROOT
HETATM    1  N2  UNK     1      20.368   7.288  33.430  1.00  0.00    -0.191 NA
HETATM    2  C8  UNK     1      17.354   6.281  31.988  1.00  0.00     0.045 C 
HETATM    3  C11 UNK     1      18.676   6.021  31.937  1.00  0.00     0.113 C 
HETATM    4  C19 UNK     1      19.606   6.722  32.763  1.00  0.00     0.105 C 
ENDROOT
BRANCH   3   5
HETATM    5  C13 UNK     1      19.128   4.956  30.959  1.00  0.00     0.266 C 
HETATM    6  O3  UNK     1      20.011   5.200  30.139  1.00  0.00    -0.267 OA
HETATM    7  N1  UNK     1      18.455   3.748  31.102  1.00  0.00    -0.322 N 
HETATM    8  H7  UNK     1      17.739   3.670  31.819  1.00  0.00     0.169 HD
BRANCH   7   9
HETATM    9  C12 UNK     1      18.643   2.562  30.347  1.00  0.00     0.036 A 
HETATM   10  C14 UNK     1      19.457   1.564  30.849  1.00  0.00     0.053 A 
HETATM   11  C16 UNK     1      19.641   0.398  30.105  1.00  0.00     0.036 A 
HETATM   12 Cl1  UNK     1      20.650  -0.859  30.709  1.00  0.00    -0.084 Cl
HETATM   13  C18 UNK     1      19.008   0.251  28.870  1.00  0.00     0.024 A 
HETATM   14  C17 UNK     1      18.191   1.270  28.380  1.00  0.00     0.004 A 
HETATM   15  C15 UNK     1      18.006   2.435  29.124  1.00  0.00     0.029 A 
ENDBRANCH   7   9
ENDBRANCH   3   5
BRANCH   2  16
HETATM   16  C3  UNK     1      16.700   7.245  32.832  1.00  0.00     0.039 A 
HETATM   17  C4  UNK     1      15.954   8.385  32.237  1.00  0.00     0.197 A 
HETATM   18  C1  UNK     1      15.316   9.318  33.186  1.00  0.00     0.049 A 
HETATM   19  O2  UNK     1      15.863   8.553  31.027  1.00  0.00    -0.286 OA
HETATM   20  C2  UNK     1      15.445   9.087  34.555  1.00  0.00     0.089 A 
HETATM   21  C5  UNK     1      14.590  10.419  32.723  1.00  0.00     0.018 A 
HETATM   22  O1  UNK     1      16.144   8.022  35.063  1.00  0.00    -0.321 OA
HETATM   23  C6  UNK     1      14.847   9.953  35.470  1.00  0.00     0.038 A 
HETATM   24  C7  UNK     1      16.733   7.161  34.169  1.00  0.00     0.158 A 
HETATM   25  C10 UNK     1      14.123  11.054  35.012  1.00  0.00     0.003 A 
HETATM   26  C9  UNK     1      13.993  11.286  33.641  1.00  0.00     0.001 A 
ENDBRANCH   2  16
TORSDOF 3
ENDMDL
MODEL 6
REMARK VINA RESULT:      -9.3      7.399     12.029
REMARK  3 active torsions:
REMARK  status: ('A' for Active; 'I' for Inactive)
REMARK    1  A    between atoms: C12_18  and  N1_5 
REMARK       I    between atoms: C13_19  and  N1_5 
REMARK    2  A    between atoms: C3_9  and  C8_14 
REMARK    3  A    between atoms: C11_17  and  C13_19 
ROOT
HETATM    1  N2  UNK     1      18.701  -1.858  38.251  1.00  0.00    -0.191 NA
HETATM    2  C8  UNK     1      19.766  -3.793  35.549  1.00  0.00     0.045 C 
HETATM    3  C11 UNK     1      19.433  -2.523  35.859  1.00  0.00     0.113 C 
HETATM    4  C19 UNK     1      19.030  -2.161  37.181  1.00  0.00     0.105 C 
ENDROOT
BRANCH   3   5
HETATM    5  C13 UNK     1      19.500  -1.504  34.741  1.00  0.00     0.266 C 
HETATM    6  O3  UNK     1      19.416  -0.304  34.990  1.00  0.00    -0.267 OA
HETATM    7  N1  UNK     1      19.656  -2.070  33.481  1.00  0.00    -0.322 N 
HETATM    8  H7  UNK     1      19.711  -3.082  33.404  1.00  0.00     0.169 HD
BRANCH   7   9
HETATM    9  C12 UNK     1      19.752  -1.394  32.238  1.00  0.00     0.036 A 
HETATM   10  C14 UNK     1      19.208  -0.128  32.114  1.00  0.00     0.053 A 
HETATM   11  C16 UNK     1      19.303   0.535  30.891  1.00  0.00     0.036 A 
HETATM   12 Cl1  UNK     1      18.634   2.111  30.712  1.00  0.00    -0.084 Cl
HETATM   13  C18 UNK     1      19.938  -0.079  29.811  1.00  0.00     0.024 A 
HETATM   14  C17 UNK     1      20.480  -1.356  29.955  1.00  0.00     0.004 A 
HETATM   15  C15 UNK     1      20.386  -2.019  31.178  1.00  0.00     0.029 A 
ENDBRANCH   7   9
ENDBRANCH   3   5
BRANCH   2  16
HETATM   16  C3  UNK     1      19.774  -4.921  36.440  1.00  0.00     0.039 A 
HETATM   17  C4  UNK     1      20.969  -5.214  37.275  1.00  0.00     0.197 A 
HETATM   18  C1  UNK     1      20.878  -6.392  38.160  1.00  0.00     0.049 A 
HETATM   19  O2  UNK     1      21.981  -4.524  37.242  1.00  0.00    -0.286 OA
HETATM   20  C2  UNK     1      19.706  -7.148  38.164  1.00  0.00     0.089 A 
HETATM   21  C5  UNK     1      21.948  -6.748  38.984  1.00  0.00     0.018 A 
HETATM   22  O1  UNK     1      18.626  -6.843  37.377  1.00  0.00    -0.321 OA
HETATM   23  C6  UNK     1      19.597  -8.264  38.995  1.00  0.00     0.038 A 
HETATM   24  C7  UNK     1      18.724  -5.745  36.559  1.00  0.00     0.158 A 
HETATM   25  C10 UNK     1      20.664  -8.623  39.819  1.00  0.00     0.003 A 
HETATM   26  C9  UNK     1      21.837  -7.866  39.814  1.00  0.00     0.001 A 
ENDBRANCH   2  16
TORSDOF 3
ENDMDL
MODEL 7
REMARK VINA RESULT:      -9.2     22.279     24.097
REMARK  3 active torsions:
REMARK  status: ('A' for Active; 'I' for Inactive)
REMARK    1  A    between atoms: C12_18  and  N1_5 
REMARK       I    between atoms: C13_19  and  N1_5 
REMARK    2  A    between atoms: C3_9  and  C8_14 
REMARK    3  A    between atoms: C11_17  and  C13_19 
ROOT
HETATM    1  N2  UNK     1      11.520   6.878   6.081  1.00  0.00    -0.191 NA
HETATM    2  C8  UNK     1      11.413   5.575   9.316  1.00  0.00     0.045 C 
HETATM    3  C11 UNK     1      10.607   5.835   8.267  1.00  0.00     0.113 C 
HETATM    4  C19 UNK     1      11.115   6.410   7.062  1.00  0.00     0.105 C 
ENDROOT
BRANCH   3   5
HETATM    5  C13 UNK     1       9.140   5.494   8.427  1.00  0.00     0.266 C 
HETATM    6  O3  UNK     1       8.399   5.465   7.448  1.00  0.00    -0.267 OA
HETATM    7  N1  UNK     1       8.769   5.240   9.743  1.00  0.00    -0.322 N 
HETATM    8  H7  UNK     1       9.477   5.299  10.470  1.00  0.00     0.169 HD
BRANCH   7   9
HETATM    9  C12 UNK     1       7.480   4.895  10.224  1.00  0.00     0.036 A 
HETATM   10  C14 UNK     1       7.037   3.592  10.095  1.00  0.00     0.053 A 
HETATM   11  C16 UNK     1       5.769   3.255  10.568  1.00  0.00     0.036 A 
HETATM   12 Cl1  UNK     1       5.195   1.639  10.419  1.00  0.00    -0.084 Cl
HETATM   13  C18 UNK     1       4.964   4.228  11.161  1.00  0.00     0.024 A 
HETATM   14  C17 UNK     1       5.429   5.538  11.283  1.00  0.00     0.004 A 
HETATM   15  C15 UNK     1       6.697   5.875  10.810  1.00  0.00     0.029 A 
ENDBRANCH   7   9
ENDBRANCH   3   5
BRANCH   2  16
HETATM   16  C3  UNK     1      12.829   5.815   9.393  1.00  0.00     0.039 A 
HETATM   17  C4  UNK     1      13.355   6.999  10.125  1.00  0.00     0.197 A 
HETATM   18  C1  UNK     1      14.822   7.157  10.148  1.00  0.00     0.049 A 
HETATM   19  O2  UNK     1      12.622   7.806  10.683  1.00  0.00    -0.286 OA
HETATM   20  C2  UNK     1      15.616   6.212   9.498  1.00  0.00     0.089 A 
HETATM   21  C5  UNK     1      15.412   8.235  10.812  1.00  0.00     0.018 A 
HETATM   22  O1  UNK     1      15.090   5.134   8.833  1.00  0.00    -0.321 OA
HETATM   23  C6  UNK     1      17.005   6.339   9.511  1.00  0.00     0.038 A 
HETATM   24  C7  UNK     1      13.723   4.999   8.819  1.00  0.00     0.158 A 
HETATM   25  C10 UNK     1      17.597   7.416  10.172  1.00  0.00     0.003 A 
HETATM   26  C9  UNK     1      16.802   8.361  10.822  1.00  0.00     0.001 A 
ENDBRANCH   2  16
TORSDOF 3
ENDMDL
MODEL 8
REMARK VINA RESULT:      -9.1      6.678     10.079
REMARK  3 active torsions:
REMARK  status: ('A' for Active; 'I' for Inactive)
REMARK    1  A    between atoms: C12_18  and  N1_5 
REMARK       I    between atoms: C13_19  and  N1_5 
REMARK    2  A    between atoms: C3_9  and  C8_14 
REMARK    3  A    between atoms: C11_17  and  C13_19 
ROOT
HETATM    1  N2  UNK     1      22.818  -1.730  34.962  1.00  0.00    -0.191 NA
HETATM    2  C8  UNK     1      19.372  -2.277  34.879  1.00  0.00     0.045 C 
HETATM    3  C11 UNK     1      20.464  -2.591  35.606  1.00  0.00     0.113 C 
HETATM    4  C19 UNK     1      21.761  -2.113  35.247  1.00  0.00     0.105 C 
ENDROOT
BRANCH   3   5
HETATM    5  C13 UNK     1      20.250  -3.477  36.816  1.00  0.00     0.266 C 
HETATM    6  O3  UNK     1      19.999  -2.982  37.912  1.00  0.00    -0.267 OA
HETATM    7  N1  UNK     1      20.370  -4.834  36.538  1.00  0.00    -0.322 N 
HETATM    8  H7  UNK     1      20.584  -5.121  35.587  1.00  0.00     0.169 HD
BRANCH   7   9
HETATM    9  C12 UNK     1      20.228  -5.916  37.445  1.00  0.00     0.036 A 
HETATM   10  C14 UNK     1      21.299  -6.271  38.244  1.00  0.00     0.053 A 
HETATM   11  C16 UNK     1      21.159  -7.335  39.136  1.00  0.00     0.036 A 
HETATM   12 Cl1  UNK     1      22.478  -7.795  40.141  1.00  0.00    -0.084 Cl
HETATM   13  C18 UNK     1      19.950  -8.026  39.212  1.00  0.00     0.024 A 
HETATM   14  C17 UNK     1      18.881  -7.653  38.397  1.00  0.00     0.004 A 
HETATM   15  C15 UNK     1      19.021  -6.589  37.507  1.00  0.00     0.029 A 
ENDBRANCH   7   9
ENDBRANCH   3   5
BRANCH   2  16
HETATM   16  C3  UNK     1      19.335  -1.459  33.696  1.00  0.00     0.039 A 
HETATM   17  C4  UNK     1      19.963  -1.929  32.433  1.00  0.00     0.197 A 
HETATM   18  C1  UNK     1      19.869  -1.018  31.275  1.00  0.00     0.049 A 
HETATM   19  O2  UNK     1      20.531  -3.010  32.343  1.00  0.00    -0.286 OA
HETATM   20  C2  UNK     1      19.213   0.203  31.425  1.00  0.00     0.089 A 
HETATM   21  C5  UNK     1      20.427  -1.372  30.044  1.00  0.00     0.018 A 
HETATM   22  O1  UNK     1      18.646   0.599  32.609  1.00  0.00    -0.321 OA
HETATM   23  C6  UNK     1      19.108   1.078  30.343  1.00  0.00     0.038 A 
HETATM   24  C7  UNK     1      18.741  -0.257  33.678  1.00  0.00     0.158 A 
HETATM   25  C10 UNK     1      19.665   0.728  29.112  1.00  0.00     0.003 A 
HETATM   26  C9  UNK     1      20.322  -0.494  28.963  1.00  0.00     0.001 A 
ENDBRANCH   2  16
TORSDOF 3
ENDMDL
MODEL 9
REMARK VINA RESULT:      -9.0     22.586     24.507
REMARK  3 active torsions:
REMARK  status: ('A' for Active; 'I' for Inactive)
REMARK    1  A    between atoms: C12_18  and  N1_5 
REMARK       I    between atoms: C13_19  and  N1_5 
REMARK    2  A    between atoms: C3_9  and  C8_14 
REMARK    3  A    between atoms: C11_17  and  C13_19 
ROOT
HETATM    1  N2  UNK     1      14.904   5.544  10.552  1.00  0.00    -0.191 NA
HETATM    2  C8  UNK     1      14.360   8.608   8.971  1.00  0.00     0.045 C 
HETATM    3  C11 UNK     1      15.332   7.910   9.593  1.00  0.00     0.113 C 
HETATM    4  C19 UNK     1      15.092   6.605  10.120  1.00  0.00     0.105 C 
ENDROOT
BRANCH   3   5
HETATM    5  C13 UNK     1      16.687   8.577   9.711  1.00  0.00     0.266 C 
HETATM    6  O3  UNK     1      17.668   7.930  10.071  1.00  0.00    -0.267 OA
HETATM    7  N1  UNK     1      16.673   9.928   9.381  1.00  0.00    -0.322 N 
HETATM    8  H7  UNK     1      15.793  10.352   9.099  1.00  0.00     0.169 HD
BRANCH   7   9
HETATM    9  C12 UNK     1      17.768  10.829   9.389  1.00  0.00     0.036 A 
HETATM   10  C14 UNK     1      18.139  11.429  10.578  1.00  0.00     0.053 A 
HETATM   11  C16 UNK     1      19.216  12.316  10.584  1.00  0.00     0.036 A 
HETATM   12 Cl1  UNK     1      19.698  13.076  12.052  1.00  0.00    -0.084 Cl
HETATM   13  C18 UNK     1      19.903  12.588   9.400  1.00  0.00     0.024 A 
HETATM   14  C17 UNK     1      19.513  11.973   8.211  1.00  0.00     0.004 A 
HETATM   15  C15 UNK     1      18.437  11.086   8.205  1.00  0.00     0.029 A 
ENDBRANCH   7   9
ENDBRANCH   3   5
BRANCH   2  16
HETATM   16  C3  UNK     1      13.005   8.181   8.747  1.00  0.00     0.039 A 
HETATM   17  C4  UNK     1      12.646   7.425   7.518  1.00  0.00     0.197 A 
HETATM   18  C1  UNK     1      11.231   7.029   7.381  1.00  0.00     0.049 A 
HETATM   19  O2  UNK     1      13.470   7.138   6.658  1.00  0.00    -0.286 OA
HETATM   20  C2  UNK     1      10.329   7.377   8.387  1.00  0.00     0.089 A 
HETATM   21  C5  UNK     1      10.796   6.313   6.263  1.00  0.00     0.018 A 
HETATM   22  O1  UNK     1      10.702   8.077   9.506  1.00  0.00    -0.321 OA
HETATM   23  C6  UNK     1       8.988   7.010   8.280  1.00  0.00     0.038 A 
HETATM   24  C7  UNK     1      12.022   8.439   9.620  1.00  0.00     0.158 A 
HETATM   25  C10 UNK     1       8.550   6.297   7.164  1.00  0.00     0.003 A 
HETATM   26  C9  UNK     1       9.453   5.948   6.158  1.00  0.00     0.001 A 
ENDBRANCH   2  16
TORSDOF 3
ENDMDL
MODEL 10
REMARK VINA RESULT:      -8.8      8.631     13.858
REMARK  3 active torsions:
REMARK  status: ('A' for Active; 'I' for Inactive)
REMARK    1  A    between atoms: C12_18  and  N1_5 
REMARK       I    between atoms: C13_19  and  N1_5 
REMARK    2  A    between atoms: C3_9  and  C8_14 
REMARK    3  A    between atoms: C11_17  and  C13_19 
ROOT
HETATM    1  N2  UNK     1      22.504  -4.693  38.067  1.00  0.00    -0.191 NA
HETATM    2  C8  UNK     1      19.395  -4.927  36.500  1.00  0.00     0.045 C 
HETATM    3  C11 UNK     1      20.344  -4.021  36.810  1.00  0.00     0.113 C 
HETATM    4  C19 UNK     1      21.535  -4.396  37.503  1.00  0.00     0.105 C 
ENDROOT
BRANCH   3   5
HETATM    5  C13 UNK     1      20.085  -2.587  36.396  1.00  0.00     0.266 C 
HETATM    6  O3  UNK     1      20.867  -2.006  35.648  1.00  0.00    -0.267 OA
HETATM    7  N1  UNK     1      18.923  -2.052  36.942  1.00  0.00    -0.322 N 
HETATM    8  H7  UNK     1      18.358  -2.635  37.553  1.00  0.00     0.169 HD
BRANCH   7   9
HETATM    9  C12 UNK     1      18.403  -0.746  36.751  1.00  0.00     0.036 A 
HETATM   10  C14 UNK     1      18.462  -0.173  35.494  1.00  0.00     0.053 A 
HETATM   11  C16 UNK     1      17.951   1.112  35.309  1.00  0.00     0.036 A 
HETATM   12 Cl1  UNK     1      18.012   1.846  33.753  1.00  0.00    -0.084 Cl
HETATM   13  C18 UNK     1      17.391   1.802  36.384  1.00  0.00     0.024 A 
HETATM   14  C17 UNK     1      17.341   1.207  37.644  1.00  0.00     0.004 A 
HETATM   15  C15 UNK     1      17.851  -0.077  37.830  1.00  0.00     0.029 A 
ENDBRANCH   7   9
ENDBRANCH   3   5
BRANCH   2  16
HETATM   16  C3  UNK     1      19.423  -6.334  36.793  1.00  0.00     0.039 A 
HETATM   17  C4  UNK     1      20.294  -7.251  36.010  1.00  0.00     0.197 A 
HETATM   18  C1  UNK     1      20.254  -8.677  36.389  1.00  0.00     0.049 A 
HETATM   19  O2  UNK     1      21.011  -6.859  35.098  1.00  0.00    -0.286 OA
HETATM   20  C2  UNK     1      19.423  -9.078  37.435  1.00  0.00     0.089 A 
HETATM   21  C5  UNK     1      21.038  -9.616  35.714  1.00  0.00     0.018 A 
HETATM   22  O1  UNK     1      18.633  -8.199  38.131  1.00  0.00    -0.321 OA
HETATM   23  C6  UNK     1      19.372 -10.420  37.812  1.00  0.00     0.038 A 
HETATM   24  C7  UNK     1      18.680  -6.875  37.769  1.00  0.00     0.158 A 
HETATM   25  C10 UNK     1      20.153 -11.360  37.140  1.00  0.00     0.003 A 
HETATM   26  C9  UNK     1      20.985 -10.959  36.093  1.00  0.00     0.001 A 
ENDBRANCH   2  16
TORSDOF 3
ENDMDL
