MODEL 1
REMARK VINA RESULT:      -8.1      0.000      0.000
REMARK  2 active torsions:
REMARK  status: ('A' for Active; 'I' for Inactive)
REMARK    1  A    between atoms: C15_18  and  O3_3 
REMARK    2  A    between atoms: C2_5  and  C4_7 
ROOT
HETATM    1  O1  UNK     1      19.061  -0.106  32.652  1.00  0.00    -0.309 OA
HETATM    2  O2  UNK     1      18.617   2.917  29.958  1.00  0.00    -0.287 OA
HETATM    3  C1  UNK     1      19.329   0.704  30.378  1.00  0.00     0.048 A 
HETATM    4  C2  UNK     1      18.508   1.113  33.012  1.00  0.00     0.090 A 
HETATM    5  C3  UNK     1      19.455  -0.287  31.351  1.00  0.00     0.090 A 
HETATM    6  C5  UNK     1      18.752   2.001  30.759  1.00  0.00     0.187 A 
HETATM    7  C6  UNK     1      18.341   2.145  32.170  1.00  0.00     0.093 A 
HETATM    8  C7  UNK     1      19.748   0.464  29.068  1.00  0.00     0.018 A 
HETATM    9  C8  UNK     1      20.001  -1.526  31.017  1.00  0.00     0.038 A 
HETATM   10  C11 UNK     1      20.293  -0.777  28.737  1.00  0.00     0.001 A 
HETATM   11  C12 UNK     1      20.420  -1.770  29.709  1.00  0.00     0.003 A 
ENDROOT
BRANCH   4  12
HETATM   12  C4  UNK     1      18.125   1.201  34.435  1.00  0.00    -0.002 A 
HETATM   13  C10 UNK     1      18.888   1.966  35.321  1.00  0.00     0.017 A 
HETATM   14  C14 UNK     1      18.527   2.050  36.666  1.00  0.00     0.037 A 
HETATM   15  C15 UNK     1      17.401   1.370  37.130  1.00  0.00     0.065 A 
HETATM   16  C13 UNK     1      16.636   0.605  36.248  1.00  0.00     0.037 A 
HETATM   17  C9  UNK     1      16.998   0.522  34.903  1.00  0.00     0.017 A 
BRANCH  15  18
HETATM   18  O3  UNK     1      17.047   1.451  38.441  1.00  0.00    -0.361 OA
HETATM   19  H10 UNK     1      17.360   2.300  38.798  1.00  0.00     0.217 HD
ENDBRANCH  15  18
ENDBRANCH   4  12
TORSDOF 2
ENDMDL
MODEL 2
REMARK VINA RESULT:      -8.1      6.479      9.154
REMARK  2 active torsions:
REMARK  status: ('A' for Active; 'I' for Inactive)
REMARK    1  A    between atoms: C15_18  and  O3_3 
REMARK    2  A    between atoms: C2_5  and  C4_7 
ROOT
HETATM    1  O1  UNK     1      17.581   8.508  33.094  1.00  0.00    -0.309 OA
HETATM    2  O2  UNK     1      14.135   6.701  31.887  1.00  0.00    -0.287 OA
HETATM    3  C1  UNK     1      15.153   8.492  33.043  1.00  0.00     0.048 A 
HETATM    4  C2  UNK     1      17.595   7.345  32.340  1.00  0.00     0.090 A 
HETATM    5  C3  UNK     1      16.369   9.057  33.426  1.00  0.00     0.090 A 
HETATM    6  C5  UNK     1      15.164   7.253  32.252  1.00  0.00     0.187 A 
HETATM    7  C6  UNK     1      16.494   6.704  31.918  1.00  0.00     0.093 A 
HETATM    8  C7  UNK     1      13.948   9.095  33.411  1.00  0.00     0.018 A 
HETATM    9  C8  UNK     1      16.386  10.231  34.178  1.00  0.00     0.038 A 
HETATM   10  C11 UNK     1      13.968  10.270  34.163  1.00  0.00     0.001 A 
HETATM   11  C12 UNK     1      15.184  10.837  34.547  1.00  0.00     0.003 A 
ENDROOT
BRANCH   4  12
HETATM   12  C4  UNK     1      18.950   6.838  32.044  1.00  0.00    -0.002 A 
HETATM   13  C10 UNK     1      19.958   6.925  33.009  1.00  0.00     0.017 A 
HETATM   14  C14 UNK     1      21.238   6.446  32.731  1.00  0.00     0.037 A 
HETATM   15  C15 UNK     1      21.516   5.879  31.486  1.00  0.00     0.065 A 
HETATM   16  C13 UNK     1      20.513   5.791  30.521  1.00  0.00     0.037 A 
HETATM   17  C9  UNK     1      19.232   6.270  30.800  1.00  0.00     0.017 A 
BRANCH  15  18
HETATM   18  O3  UNK     1      22.764   5.412  31.214  1.00  0.00    -0.361 OA
HETATM   19  H10 UNK     1      23.317   5.511  32.009  1.00  0.00     0.217 HD
ENDBRANCH  15  18
ENDBRANCH   4  12
TORSDOF 2
ENDMDL
MODEL 3
REMARK VINA RESULT:      -8.0      3.224      3.922
REMARK  2 active torsions:
REMARK  status: ('A' for Active; 'I' for Inactive)
REMARK    1  A    between atoms: C15_18  and  O3_3 
REMARK    2  A    between atoms: C2_5  and  C4_7 
ROOT
HETATM    1  O1  UNK     1      19.388   2.108  31.203  1.00  0.00    -0.309 OA
HETATM    2  O2  UNK     1      17.669   1.995  27.511  1.00  0.00    -0.287 OA
HETATM    3  C1  UNK     1      18.993   0.900  29.133  1.00  0.00     0.048 A 
HETATM    4  C2  UNK     1      18.620   3.159  30.726  1.00  0.00     0.090 A 
HETATM    5  C3  UNK     1      19.555   1.005  30.404  1.00  0.00     0.090 A 
HETATM    6  C5  UNK     1      18.187   2.017  28.619  1.00  0.00     0.187 A 
HETATM    7  C6  UNK     1      18.034   3.179  29.518  1.00  0.00     0.093 A 
HETATM    8  C7  UNK     1      19.198  -0.247  28.363  1.00  0.00     0.018 A 
HETATM    9  C8  UNK     1      20.326  -0.039  30.914  1.00  0.00     0.038 A 
HETATM   10  C11 UNK     1      19.969  -1.290  28.876  1.00  0.00     0.001 A 
HETATM   11  C12 UNK     1      20.533  -1.187  30.149  1.00  0.00     0.003 A 
ENDROOT
BRANCH   4  12
HETATM   12  C4  UNK     1      18.509   4.295  31.663  1.00  0.00    -0.002 A 
HETATM   13  C10 UNK     1      18.753   5.597  31.218  1.00  0.00     0.017 A 
HETATM   14  C14 UNK     1      18.648   6.671  32.102  1.00  0.00     0.037 A 
HETATM   15  C15 UNK     1      18.301   6.447  33.435  1.00  0.00     0.065 A 
HETATM   16  C13 UNK     1      18.057   5.147  33.882  1.00  0.00     0.037 A 
HETATM   17  C9  UNK     1      18.161   4.074  32.997  1.00  0.00     0.017 A 
BRANCH  15  18
HETATM   18  O3  UNK     1      18.199   7.493  34.298  1.00  0.00    -0.361 OA
HETATM   19  H10 UNK     1      17.749   7.191  35.106  1.00  0.00     0.217 HD
ENDBRANCH  15  18
ENDBRANCH   4  12
TORSDOF 2
ENDMDL
MODEL 4
REMARK VINA RESULT:      -7.9      2.658      7.027
REMARK  2 active torsions:
REMARK  status: ('A' for Active; 'I' for Inactive)
REMARK    1  A    between atoms: C15_18  and  O3_3 
REMARK    2  A    between atoms: C2_5  and  C4_7 
ROOT
HETATM    1  O1  UNK     1      18.716  -0.690  34.054  1.00  0.00    -0.309 OA
HETATM    2  O2  UNK     1      20.648  -3.646  36.085  1.00  0.00    -0.287 OA
HETATM    3  C1  UNK     1      19.123  -1.843  36.153  1.00  0.00     0.048 A 
HETATM    4  C2  UNK     1      19.592  -1.557  33.418  1.00  0.00     0.090 A 
HETATM    5  C3  UNK     1      18.498  -0.851  35.399  1.00  0.00     0.090 A 
HETATM    6  C5  UNK     1      20.060  -2.758  35.484  1.00  0.00     0.187 A 
HETATM    7  C6  UNK     1      20.259  -2.545  34.036  1.00  0.00     0.093 A 
HETATM    8  C7  UNK     1      18.863  -1.959  37.520  1.00  0.00     0.018 A 
HETATM    9  C8  UNK     1      17.606   0.031  36.009  1.00  0.00     0.038 A 
HETATM   10  C11 UNK     1      17.971  -1.076  38.128  1.00  0.00     0.001 A 
HETATM   11  C12 UNK     1      17.343  -0.082  37.375  1.00  0.00     0.003 A 
ENDROOT
BRANCH   4  12
HETATM   12  C4  UNK     1      19.757  -1.291  31.975  1.00  0.00    -0.002 A 
HETATM   13  C10 UNK     1      20.273  -2.281  31.135  1.00  0.00     0.017 A 
HETATM   14  C14 UNK     1      20.430  -2.031  29.772  1.00  0.00     0.037 A 
HETATM   15  C15 UNK     1      20.071  -0.791  29.243  1.00  0.00     0.065 A 
HETATM   16  C13 UNK     1      19.555   0.200  30.080  1.00  0.00     0.037 A 
HETATM   17  C9  UNK     1      19.398  -0.051  31.443  1.00  0.00     0.017 A 
BRANCH  15  18
HETATM   18  O3  UNK     1      20.223  -0.546  27.914  1.00  0.00    -0.361 OA
HETATM   19  H10 UNK     1      21.000  -1.035  27.591  1.00  0.00     0.217 HD
ENDBRANCH  15  18
ENDBRANCH   4  12
TORSDOF 2
ENDMDL
MODEL 5
REMARK VINA RESULT:      -7.8     14.114     17.794
REMARK  2 active torsions:
REMARK  status: ('A' for Active; 'I' for Inactive)
REMARK    1  A    between atoms: C15_18  and  O3_3 
REMARK    2  A    between atoms: C2_5  and  C4_7 
ROOT
HETATM    1  O1  UNK     1      19.146   0.328  15.936  1.00  0.00    -0.309 OA
HETATM    2  O2  UNK     1      18.691  -0.528  19.893  1.00  0.00    -0.287 OA
HETATM    3  C1  UNK     1      19.094   1.107  18.236  1.00  0.00     0.048 A 
HETATM    4  C2  UNK     1      18.884  -0.960  16.376  1.00  0.00     0.090 A 
HETATM    5  C3  UNK     1      19.241   1.330  16.868  1.00  0.00     0.090 A 
HETATM    6  C5  UNK     1      18.826  -0.260  18.707  1.00  0.00     0.187 A 
HETATM    7  C6  UNK     1      18.729  -1.302  17.665  1.00  0.00     0.093 A 
HETATM    8  C7  UNK     1      19.202   2.167  19.140  1.00  0.00     0.018 A 
HETATM    9  C8  UNK     1      19.498   2.617  16.395  1.00  0.00     0.038 A 
HETATM   10  C11 UNK     1      19.458   3.453  18.664  1.00  0.00     0.001 A 
HETATM   11  C12 UNK     1      19.606   3.678  17.294  1.00  0.00     0.003 A 
ENDROOT
BRANCH   4  12
HETATM   12  C4  UNK     1      18.807  -1.961  15.293  1.00  0.00    -0.002 A 
HETATM   13  C10 UNK     1      18.326  -3.246  15.557  1.00  0.00     0.017 A 
HETATM   14  C14 UNK     1      18.253  -4.191  14.535  1.00  0.00     0.037 A 
HETATM   15  C15 UNK     1      18.660  -3.856  13.243  1.00  0.00     0.065 A 
HETATM   16  C13 UNK     1      19.141  -2.573  12.975  1.00  0.00     0.037 A 
HETATM   17  C9  UNK     1      19.214  -1.628  13.998  1.00  0.00     0.017 A 
BRANCH  15  18
HETATM   18  O3  UNK     1      18.589  -4.777  12.245  1.00  0.00    -0.361 OA
HETATM   19  H10 UNK     1      19.417  -4.751  11.734  1.00  0.00     0.217 HD
ENDBRANCH  15  18
ENDBRANCH   4  12
TORSDOF 2
ENDMDL
MODEL 6
REMARK VINA RESULT:      -7.8      2.437      4.758
REMARK  2 active torsions:
REMARK  status: ('A' for Active; 'I' for Inactive)
REMARK    1  A    between atoms: C15_18  and  O3_3 
REMARK    2  A    between atoms: C2_5  and  C4_7 
ROOT
HETATM    1  O1  UNK     1      19.264   1.943  30.392  1.00  0.00    -0.309 OA
HETATM    2  O2  UNK     1      18.609  -0.240  33.768  1.00  0.00    -0.287 OA
HETATM    3  C1  UNK     1      19.391  -0.194  31.539  1.00  0.00     0.048 A 
HETATM    4  C2  UNK     1      18.728   2.515  31.535  1.00  0.00     0.090 A 
HETATM    5  C3  UNK     1      19.586   0.610  30.417  1.00  0.00     0.090 A 
HETATM    6  C5  UNK     1      18.813   0.407  32.750  1.00  0.00     0.187 A 
HETATM    7  C6  UNK     1      18.486   1.845  32.673  1.00  0.00     0.093 A 
HETATM    8  C7  UNK     1      19.737  -1.547  31.508  1.00  0.00     0.018 A 
HETATM    9  C8  UNK     1      20.131   0.064  29.255  1.00  0.00     0.038 A 
HETATM   10  C11 UNK     1      20.282  -2.090  30.344  1.00  0.00     0.001 A 
HETATM   11  C12 UNK     1      20.479  -1.287  29.220  1.00  0.00     0.003 A 
ENDROOT
BRANCH   4  12
HETATM   12  C4  UNK     1      18.414   3.951  31.396  1.00  0.00    -0.002 A 
HETATM   13  C10 UNK     1      18.930   4.682  30.323  1.00  0.00     0.017 A 
HETATM   14  C14 UNK     1      18.634   6.038  30.191  1.00  0.00     0.037 A 
HETATM   15  C15 UNK     1      17.821   6.670  31.133  1.00  0.00     0.065 A 
HETATM   16  C13 UNK     1      17.303   5.944  32.206  1.00  0.00     0.037 A 
HETATM   17  C9  UNK     1      17.600   4.587  32.337  1.00  0.00     0.017 A 
BRANCH  15  18
HETATM   18  O3  UNK     1      17.531   7.993  31.005  1.00  0.00    -0.361 OA
HETATM   19  H10 UNK     1      17.672   8.429  31.863  1.00  0.00     0.217 HD
ENDBRANCH  15  18
ENDBRANCH   4  12
TORSDOF 2
ENDMDL
MODEL 7
REMARK VINA RESULT:      -7.8      1.363      2.602
REMARK  2 active torsions:
REMARK  status: ('A' for Active; 'I' for Inactive)
REMARK    1  A    between atoms: C15_18  and  O3_3 
REMARK    2  A    between atoms: C2_5  and  C4_7 
ROOT
HETATM    1  O1  UNK     1      18.639   0.332  32.444  1.00  0.00    -0.309 OA
HETATM    2  O2  UNK     1      20.813  -3.101  32.732  1.00  0.00    -0.287 OA
HETATM    3  C1  UNK     1      20.091  -1.301  31.383  1.00  0.00     0.048 A 
HETATM    4  C2  UNK     1      18.716  -0.383  33.629  1.00  0.00     0.090 A 
HETATM    5  C3  UNK     1      19.327  -0.136  31.352  1.00  0.00     0.090 A 
HETATM    6  C5  UNK     1      20.166  -2.067  32.635  1.00  0.00     0.187 A 
HETATM    7  C6  UNK     1      19.411  -1.521  33.781  1.00  0.00     0.093 A 
HETATM    8  C7  UNK     1      20.769  -1.730  30.240  1.00  0.00     0.018 A 
HETATM    9  C8  UNK     1      19.237   0.609  30.176  1.00  0.00     0.038 A 
HETATM   10  C11 UNK     1      20.678  -0.984  29.065  1.00  0.00     0.001 A 
HETATM   11  C12 UNK     1      19.913   0.184  29.033  1.00  0.00     0.003 A 
ENDROOT
BRANCH   4  12
HETATM   12  C4  UNK     1      17.936   0.206  34.736  1.00  0.00    -0.002 A 
HETATM   13  C10 UNK     1      18.533   1.123  35.604  1.00  0.00     0.017 A 
HETATM   14  C14 UNK     1      17.797   1.680  36.650  1.00  0.00     0.037 A 
HETATM   15  C15 UNK     1      16.461   1.320  36.833  1.00  0.00     0.065 A 
HETATM   16  C13 UNK     1      15.862   0.404  35.968  1.00  0.00     0.037 A 
HETATM   17  C9  UNK     1      16.598  -0.152  34.921  1.00  0.00     0.017 A 
BRANCH  15  18
HETATM   18  O3  UNK     1      15.743   1.862  37.852  1.00  0.00    -0.361 OA
HETATM   19  H10 UNK     1      16.067   1.498  38.694  1.00  0.00     0.217 HD
ENDBRANCH  15  18
ENDBRANCH   4  12
TORSDOF 2
ENDMDL
MODEL 8
REMARK VINA RESULT:      -7.7     23.961     26.034
REMARK  2 active torsions:
REMARK  status: ('A' for Active; 'I' for Inactive)
REMARK    1  A    between atoms: C15_18  and  O3_3 
REMARK    2  A    between atoms: C2_5  and  C4_7 
ROOT
HETATM    1  O1  UNK     1      13.371   7.723   8.845  1.00  0.00    -0.309 OA
HETATM    2  O2  UNK     1      15.277   4.210   9.634  1.00  0.00    -0.287 OA
HETATM    3  C1  UNK     1      15.383   6.569   9.565  1.00  0.00     0.048 A 
HETATM    4  C2  UNK     1      12.733   6.501   8.701  1.00  0.00     0.090 A 
HETATM    5  C3  UNK     1      14.674   7.733   9.276  1.00  0.00     0.090 A 
HETATM    6  C5  UNK     1      14.713   5.270   9.403  1.00  0.00     0.187 A 
HETATM    7  C6  UNK     1      13.311   5.313   8.941  1.00  0.00     0.093 A 
HETATM    8  C7  UNK     1      16.709   6.640   9.999  1.00  0.00     0.018 A 
HETATM    9  C8  UNK     1      15.287   8.978   9.419  1.00  0.00     0.038 A 
HETATM   10  C11 UNK     1      17.320   7.886  10.142  1.00  0.00     0.001 A 
HETATM   11  C12 UNK     1      16.611   9.053   9.853  1.00  0.00     0.003 A 
ENDROOT
BRANCH   4  12
HETATM   12  C4  UNK     1      11.338   6.604   8.229  1.00  0.00    -0.002 A 
HETATM   13  C10 UNK     1      10.381   7.259   9.008  1.00  0.00     0.017 A 
HETATM   14  C14 UNK     1       9.062   7.358   8.563  1.00  0.00     0.037 A 
HETATM   15  C15 UNK     1       8.696   6.802   7.337  1.00  0.00     0.065 A 
HETATM   16  C13 UNK     1       9.649   6.147   6.556  1.00  0.00     0.037 A 
HETATM   17  C9  UNK     1      10.967   6.049   7.002  1.00  0.00     0.017 A 
BRANCH  15  18
HETATM   18  O3  UNK     1       7.410   6.897   6.902  1.00  0.00    -0.361 OA
HETATM   19  H10 UNK     1       6.829   7.038   7.669  1.00  0.00     0.217 HD
ENDBRANCH  15  18
ENDBRANCH   4  12
TORSDOF 2
ENDMDL
MODEL 9
REMARK VINA RESULT:      -7.5     13.698     17.795
REMARK  2 active torsions:
REMARK  status: ('A' for Active; 'I' for Inactive)
REMARK    1  A    between atoms: C15_18  and  O3_3 
REMARK    2  A    between atoms: C2_5  and  C4_7 
ROOT
HETATM    1  O1  UNK     1      19.000  -0.950  17.178  1.00  0.00    -0.309 OA
HETATM    2  O2  UNK     1      19.398   2.761  15.545  1.00  0.00    -0.287 OA
HETATM    3  C1  UNK     1      19.160   1.452  17.498  1.00  0.00     0.048 A 
HETATM    4  C2  UNK     1      19.123  -0.767  15.809  1.00  0.00     0.090 A 
HETATM    5  C3  UNK     1      19.025   0.155  17.990  1.00  0.00     0.090 A 
HETATM    6  C5  UNK     1      19.281   1.651  16.046  1.00  0.00     0.187 A 
HETATM    7  C6  UNK     1      19.252   0.430  15.215  1.00  0.00     0.093 A 
HETATM    8  C7  UNK     1      19.178   2.541  18.372  1.00  0.00     0.018 A 
HETATM    9  C8  UNK     1      18.906  -0.061  19.363  1.00  0.00     0.038 A 
HETATM   10  C11 UNK     1      19.060   2.322  19.745  1.00  0.00     0.001 A 
HETATM   11  C12 UNK     1      18.924   1.024  20.240  1.00  0.00     0.003 A 
ENDROOT
BRANCH   4  12
HETATM   12  C4  UNK     1      19.079  -2.021  15.030  1.00  0.00    -0.002 A 
HETATM   13  C10 UNK     1      18.173  -3.028  15.372  1.00  0.00     0.017 A 
HETATM   14  C14 UNK     1      18.131  -4.212  14.636  1.00  0.00     0.037 A 
HETATM   15  C15 UNK     1      18.995  -4.394  13.556  1.00  0.00     0.065 A 
HETATM   16  C13 UNK     1      19.901  -3.391  13.212  1.00  0.00     0.037 A 
HETATM   17  C9  UNK     1      19.943  -2.206  13.948  1.00  0.00     0.017 A 
BRANCH  15  18
HETATM   18  O3  UNK     1      18.954  -5.549  12.838  1.00  0.00    -0.361 OA
HETATM   19  H10 UNK     1      19.851  -5.924  12.794  1.00  0.00     0.217 HD
ENDBRANCH  15  18
ENDBRANCH   4  12
TORSDOF 2
ENDMDL
MODEL 10
REMARK VINA RESULT:      -7.5      2.697      4.432
REMARK  2 active torsions:
REMARK  status: ('A' for Active; 'I' for Inactive)
REMARK    1  A    between atoms: C15_18  and  O3_3 
REMARK    2  A    between atoms: C2_5  and  C4_7 
ROOT
HETATM    1  O1  UNK     1      18.281   3.523  34.331  1.00  0.00    -0.309 OA
HETATM    2  O2  UNK     1      18.315   2.595  30.364  1.00  0.00    -0.287 OA
HETATM    3  C1  UNK     1      18.373   4.276  32.024  1.00  0.00     0.048 A 
HETATM    4  C2  UNK     1      18.230   2.209  33.891  1.00  0.00     0.090 A 
HETATM    5  C3  UNK     1      18.354   4.523  33.395  1.00  0.00     0.090 A 
HETATM    6  C5  UNK     1      18.308   2.884  31.553  1.00  0.00     0.187 A 
HETATM    7  C6  UNK     1      18.233   1.844  32.599  1.00  0.00     0.093 A 
HETATM    8  C7  UNK     1      18.448   5.335  31.116  1.00  0.00     0.018 A 
HETATM    9  C8  UNK     1      18.412   5.834  33.868  1.00  0.00     0.038 A 
HETATM   10  C11 UNK     1      18.506   6.645  31.591  1.00  0.00     0.001 A 
HETATM   11  C12 UNK     1      18.488   6.895  32.964  1.00  0.00     0.003 A 
ENDROOT
BRANCH   4  12
HETATM   12  C4  UNK     1      18.147   1.215  34.979  1.00  0.00    -0.002 A 
HETATM   13  C10 UNK     1      18.307  -0.145  34.700  1.00  0.00     0.017 A 
HETATM   14  C14 UNK     1      18.230  -1.085  35.728  1.00  0.00     0.037 A 
HETATM   15  C15 UNK     1      17.991  -0.669  37.038  1.00  0.00     0.065 A 
HETATM   16  C13 UNK     1      17.831   0.688  37.320  1.00  0.00     0.037 A 
HETATM   17  C9  UNK     1      17.909   1.628  36.292  1.00  0.00     0.017 A 
BRANCH  15  18
HETATM   18  O3  UNK     1      17.915  -1.586  38.041  1.00  0.00    -0.361 OA
HETATM   19  H10 UNK     1      17.794  -2.469  37.651  1.00  0.00     0.217 HD
ENDBRANCH  15  18
ENDBRANCH   4  12
TORSDOF 2
ENDMDL
