MODEL 1
REMARK VINA RESULT:      -6.7      0.000      0.000
REMARK  0 active torsions:
REMARK  status: ('A' for Active; 'I' for Inactive)
ROOT
HETATM    1 Cl1  UNK     1      21.233   5.844  30.403  1.00  0.00    -0.083 Cl
HETATM    2  O1  UNK     1      17.423   4.451  32.434  1.00  0.00    -0.275 OA
HETATM    3  O2  UNK     1      17.333   2.752  30.905  1.00  0.00    -0.260 OA
HETATM    4  C1  UNK     1      19.263   6.057  32.342  1.00  0.00     0.020 A 
HETATM    5  C2  UNK     1      18.087   5.592  32.934  1.00  0.00     0.091 A 
HETATM    6  C3  UNK     1      19.292   7.834  34.006  1.00  0.00    -0.061 A 
HETATM    7  C4  UNK     1      19.861   7.196  32.897  1.00  0.00     0.022 A 
HETATM    8  C5  UNK     1      17.508   6.217  34.039  1.00  0.00     0.039 A 
HETATM    9  C6  UNK     1      18.117   7.346  34.576  1.00  0.00     0.009 A 
HETATM   10  C7  UNK     1      19.784   5.325  31.187  1.00  0.00     0.052 A 
HETATM   11  C8  UNK     1      19.946   9.046  34.581  1.00  0.00     0.048 C 
HETATM   12  C9  UNK     1      19.145   4.244  30.726  1.00  0.00     0.107 A 
HETATM   13  C10 UNK     1      17.905   3.744  31.341  1.00  0.00     0.289 A 
ENDROOT
TORSDOF 0
ENDMDL
MODEL 2
REMARK VINA RESULT:      -6.7      5.050      7.313
REMARK  0 active torsions:
REMARK  status: ('A' for Active; 'I' for Inactive)
ROOT
HETATM    1 Cl1  UNK     1      18.413   1.827  33.000  1.00  0.00    -0.083 Cl
HETATM    2  O1  UNK     1      19.031   0.898  28.602  1.00  0.00    -0.275 OA
HETATM    3  O2  UNK     1      17.946   2.855  28.126  1.00  0.00    -0.260 OA
HETATM    4  C1  UNK     1      19.353   0.236  30.933  1.00  0.00     0.020 A 
HETATM    5  C2  UNK     1      19.519  -0.008  29.568  1.00  0.00     0.091 A 
HETATM    6  C3  UNK     1      20.521  -1.857  31.359  1.00  0.00    -0.061 A 
HETATM    7  C4  UNK     1      19.866  -0.712  31.828  1.00  0.00     0.022 A 
HETATM    8  C5  UNK     1      20.170  -1.145  29.086  1.00  0.00     0.039 A 
HETATM    9  C6  UNK     1      20.672  -2.073  29.991  1.00  0.00     0.009 A 
HETATM   10  C7  UNK     1      18.656   1.461  31.330  1.00  0.00     0.052 A 
HETATM   11  C8  UNK     1      21.059  -2.853  32.331  1.00  0.00     0.048 C 
HETATM   12  C9  UNK     1      18.201   2.311  30.402  1.00  0.00     0.107 A 
HETATM   13  C10 UNK     1      18.371   2.065  28.961  1.00  0.00     0.289 A 
ENDROOT
TORSDOF 0
ENDMDL
MODEL 3
REMARK VINA RESULT:      -6.6     13.662     15.373
REMARK  0 active torsions:
REMARK  status: ('A' for Active; 'I' for Inactive)
ROOT
HETATM    1 Cl1  UNK     1      17.960  -6.323  36.616  1.00  0.00    -0.083 Cl
HETATM    2  O1  UNK     1      21.261  -8.453  34.346  1.00  0.00    -0.275 OA
HETATM    3  O2  UNK     1      21.209  -6.737  32.834  1.00  0.00    -0.260 OA
HETATM    4  C1  UNK     1      19.743  -8.417  36.262  1.00  0.00     0.020 A 
HETATM    5  C2  UNK     1      20.758  -9.035  35.530  1.00  0.00     0.091 A 
HETATM    6  C3  UNK     1      19.862 -10.277  37.829  1.00  0.00    -0.061 A 
HETATM    7  C4  UNK     1      19.299  -9.059  37.425  1.00  0.00     0.022 A 
HETATM    8  C5  UNK     1      21.328 -10.249  35.919  1.00  0.00     0.039 A 
HETATM    9  C6  UNK     1      20.874 -10.870  37.078  1.00  0.00     0.009 A 
HETATM   10  C7  UNK     1      19.217  -7.145  35.763  1.00  0.00     0.052 A 
HETATM   11  C8  UNK     1      19.373 -10.943  39.072  1.00  0.00     0.048 C 
HETATM   12  C9  UNK     1      19.705  -6.604  34.641  1.00  0.00     0.107 A 
HETATM   13  C10 UNK     1      20.775  -7.247  33.861  1.00  0.00     0.289 A 
ENDROOT
TORSDOF 0
ENDMDL
MODEL 4
REMARK VINA RESULT:      -6.4     13.719     15.408
REMARK  0 active torsions:
REMARK  status: ('A' for Active; 'I' for Inactive)
ROOT
HETATM    1 Cl1  UNK     1      20.801  -6.986  33.423  1.00  0.00    -0.083 Cl
HETATM    2  O1  UNK     1      18.656  -8.155  37.246  1.00  0.00    -0.275 OA
HETATM    3  O2  UNK     1      17.270  -6.366  36.913  1.00  0.00    -0.260 OA
HETATM    4  C1  UNK     1      20.439  -8.613  35.638  1.00  0.00     0.020 A 
HETATM    5  C2  UNK     1      19.748  -8.934  36.809  1.00  0.00     0.091 A 
HETATM    6  C3  UNK     1      21.869 -10.538  36.060  1.00  0.00    -0.061 A 
HETATM    7  C4  UNK     1      21.512  -9.436  35.272  1.00  0.00     0.022 A 
HETATM    8  C5  UNK     1      20.093 -10.029  37.604  1.00  0.00     0.039 A 
HETATM    9  C6  UNK     1      21.161 -10.833  37.223  1.00  0.00     0.009 A 
HETATM   10  C7  UNK     1      19.993  -7.443  34.880  1.00  0.00     0.052 A 
HETATM   11  C8  UNK     1      23.016 -11.400  35.651  1.00  0.00     0.048 C 
HETATM   12  C9  UNK     1      18.954  -6.716  35.306  1.00  0.00     0.107 A 
HETATM   13  C10 UNK     1      18.219  -7.044  36.537  1.00  0.00     0.289 A 
ENDROOT
TORSDOF 0
ENDMDL
MODEL 5
REMARK VINA RESULT:      -6.2      3.400      4.327
REMARK  0 active torsions:
REMARK  status: ('A' for Active; 'I' for Inactive)
ROOT
HETATM    1 Cl1  UNK     1      15.395  10.976  33.780  1.00  0.00    -0.083 Cl
HETATM    2  O1  UNK     1      16.084   6.717  32.374  1.00  0.00    -0.275 OA
HETATM    3  O2  UNK     1      13.882   6.656  31.758  1.00  0.00    -0.260 OA
HETATM    4  C1  UNK     1      16.999   8.750  33.377  1.00  0.00     0.020 A 
HETATM    5  C2  UNK     1      17.163   7.437  32.932  1.00  0.00     0.091 A 
HETATM    6  C3  UNK     1      19.352   8.738  34.002  1.00  0.00    -0.061 A 
HETATM    7  C4  UNK     1      18.119   9.396  33.918  1.00  0.00     0.022 A 
HETATM    8  C5  UNK     1      18.386   6.768  33.009  1.00  0.00     0.039 A 
HETATM    9  C6  UNK     1      19.486   7.427  33.549  1.00  0.00     0.009 A 
HETATM   10  C7  UNK     1      15.673   9.356  33.248  1.00  0.00     0.052 A 
HETATM   11  C8  UNK     1      20.531   9.445  34.582  1.00  0.00     0.048 C 
HETATM   12  C9  UNK     1      14.660   8.661  32.716  1.00  0.00     0.107 A 
HETATM   13  C10 UNK     1      14.821   7.277  32.243  1.00  0.00     0.289 A 
ENDROOT
TORSDOF 0
ENDMDL
MODEL 6
REMARK VINA RESULT:      -6.1      2.913      4.063
REMARK  0 active torsions:
REMARK  status: ('A' for Active; 'I' for Inactive)
ROOT
HETATM    1 Cl1  UNK     1      16.965   7.776  35.523  1.00  0.00    -0.083 Cl
HETATM    2  O1  UNK     1      15.959   6.636  31.248  1.00  0.00    -0.275 OA
HETATM    3  O2  UNK     1      13.764   7.040  31.749  1.00  0.00    -0.260 OA
HETATM    4  C1  UNK     1      17.665   6.947  32.971  1.00  0.00     0.020 A 
HETATM    5  C2  UNK     1      17.307   6.604  31.666  1.00  0.00     0.091 A 
HETATM    6  C3  UNK     1      19.979   6.501  32.359  1.00  0.00    -0.061 A 
HETATM    7  C4  UNK     1      19.024   6.889  33.307  1.00  0.00     0.022 A 
HETATM    8  C5  UNK     1      18.247   6.216  30.710  1.00  0.00     0.039 A 
HETATM    9  C6  UNK     1      19.592   6.165  31.063  1.00  0.00     0.009 A 
HETATM   10  C7  UNK     1      16.597   7.340  33.892  1.00  0.00     0.052 A 
HETATM   11  C8  UNK     1      21.421   6.447  32.740  1.00  0.00     0.048 C 
HETATM   12  C9  UNK     1      15.324   7.368  33.481  1.00  0.00     0.107 A 
HETATM   13  C10 UNK     1      14.935   7.009  32.108  1.00  0.00     0.289 A 
ENDROOT
TORSDOF 0
ENDMDL
MODEL 7
REMARK VINA RESULT:      -6.1      3.550      5.198
REMARK  0 active torsions:
REMARK  status: ('A' for Active; 'I' for Inactive)
ROOT
HETATM    1 Cl1  UNK     1      14.190   6.969  31.930  1.00  0.00    -0.083 Cl
HETATM    2  O1  UNK     1      17.173   9.012  34.671  1.00  0.00    -0.275 OA
HETATM    3  O2  UNK     1      15.413  10.135  35.606  1.00  0.00    -0.260 OA
HETATM    4  C1  UNK     1      16.762   7.421  32.862  1.00  0.00     0.020 A 
HETATM    5  C2  UNK     1      17.642   8.074  33.726  1.00  0.00     0.091 A 
HETATM    6  C3  UNK     1      18.686   6.261  31.922  1.00  0.00    -0.061 A 
HETATM    7  C4  UNK     1      17.307   6.504  31.952  1.00  0.00     0.022 A 
HETATM    8  C5  UNK     1      19.019   7.843  33.707  1.00  0.00     0.039 A 
HETATM    9  C6  UNK     1      19.540   6.929  32.797  1.00  0.00     0.009 A 
HETATM   10  C7  UNK     1      15.337   7.738  32.967  1.00  0.00     0.052 A 
HETATM   11  C8  UNK     1      19.244   5.281  30.944  1.00  0.00     0.048 C 
HETATM   12  C9  UNK     1      14.907   8.628  33.870  1.00  0.00     0.107 A 
HETATM   13  C10 UNK     1      15.825   9.323  34.786  1.00  0.00     0.289 A 
ENDROOT
TORSDOF 0
ENDMDL
MODEL 8
REMARK VINA RESULT:      -6.1      2.365      3.442
REMARK  0 active torsions:
REMARK  status: ('A' for Active; 'I' for Inactive)
ROOT
HETATM    1 Cl1  UNK     1      18.266   1.730  33.175  1.00  0.00    -0.083 Cl
HETATM    2  O1  UNK     1      18.667   3.489  29.012  1.00  0.00    -0.275 OA
HETATM    3  O2  UNK     1      18.370   1.377  28.186  1.00  0.00    -0.260 OA
HETATM    4  C1  UNK     1      18.643   3.851  31.430  1.00  0.00     0.020 A 
HETATM    5  C2  UNK     1      18.760   4.346  30.129  1.00  0.00     0.091 A 
HETATM    6  C3  UNK     1      18.961   6.128  32.231  1.00  0.00    -0.061 A 
HETATM    7  C4  UNK     1      18.747   4.767  32.485  1.00  0.00     0.022 A 
HETATM    8  C5  UNK     1      18.973   5.700  29.862  1.00  0.00     0.039 A 
HETATM    9  C6  UNK     1      19.074   6.593  30.923  1.00  0.00     0.009 A 
HETATM   10  C7  UNK     1      18.420   2.414  31.597  1.00  0.00     0.052 A 
HETATM   11  C8  UNK     1      19.070   7.085  33.371  1.00  0.00     0.048 C 
HETATM   12  C9  UNK     1      18.331   1.614  30.528  1.00  0.00     0.107 A 
HETATM   13  C10 UNK     1      18.453   2.125  29.153  1.00  0.00     0.289 A 
ENDROOT
TORSDOF 0
ENDMDL
MODEL 9
REMARK VINA RESULT:      -6.1      2.543      4.075
REMARK  0 active torsions:
REMARK  status: ('A' for Active; 'I' for Inactive)
ROOT
HETATM    1 Cl1  UNK     1      19.069   7.746  35.282  1.00  0.00    -0.083 Cl
HETATM    2  O1  UNK     1      16.714   6.959  31.486  1.00  0.00    -0.275 OA
HETATM    3  O2  UNK     1      14.863   7.749  32.574  1.00  0.00    -0.260 OA
HETATM    4  C1  UNK     1      18.859   6.887  32.655  1.00  0.00     0.020 A 
HETATM    5  C2  UNK     1      18.093   6.661  31.510  1.00  0.00     0.091 A 
HETATM    6  C3  UNK     1      20.783   6.037  31.428  1.00  0.00    -0.061 A 
HETATM    7  C4  UNK     1      20.222   6.565  32.598  1.00  0.00     0.022 A 
HETATM    8  C5  UNK     1      18.639   6.136  30.337  1.00  0.00     0.039 A 
HETATM    9  C6  UNK     1      19.993   5.823  30.300  1.00  0.00     0.009 A 
HETATM   10  C7  UNK     1      18.186   7.442  33.830  1.00  0.00     0.052 A 
HETATM   11  C8  UNK     1      22.237   5.701  31.390  1.00  0.00     0.048 C 
HETATM   12  C9  UNK     1      16.878   7.721  33.792  1.00  0.00     0.107 A 
HETATM   13  C10 UNK     1      16.061   7.488  32.590  1.00  0.00     0.289 A 
ENDROOT
TORSDOF 0
ENDMDL
MODEL 10
REMARK VINA RESULT:      -6.1     13.327     14.955
REMARK  0 active torsions:
REMARK  status: ('A' for Active; 'I' for Inactive)
ROOT
HETATM    1 Cl1  UNK     1      22.613  -7.320  39.769  1.00  0.00    -0.083 Cl
HETATM    2  O1  UNK     1      20.409  -6.038  36.016  1.00  0.00    -0.275 OA
HETATM    3  O2  UNK     1      19.916  -4.075  37.081  1.00  0.00    -0.260 OA
HETATM    4  C1  UNK     1      21.722  -7.742  37.178  1.00  0.00     0.020 A 
HETATM    5  C2  UNK     1      21.032  -7.304  36.045  1.00  0.00     0.091 A 
HETATM    6  C3  UNK     1      22.210  -9.803  35.976  1.00  0.00    -0.061 A 
HETATM    7  C4  UNK     1      22.313  -9.011  37.127  1.00  0.00     0.022 A 
HETATM    8  C5  UNK     1      20.921  -8.082  34.891  1.00  0.00     0.039 A 
HETATM    9  C6  UNK     1      21.515  -9.339  34.861  1.00  0.00     0.009 A 
HETATM   10  C7  UNK     1      21.778  -6.845  38.333  1.00  0.00     0.052 A 
HETATM   11  C8  UNK     1      22.847 -11.152  35.945  1.00  0.00     0.048 C 
HETATM   12  C9  UNK     1      21.184  -5.647  38.290  1.00  0.00     0.107 A 
HETATM   13  C10 UNK     1      20.455  -5.175  37.102  1.00  0.00     0.289 A 
ENDROOT
TORSDOF 0
ENDMDL
