MODEL 1
REMARK VINA RESULT:      -7.7      0.000      0.000
REMARK  4 active torsions:
REMARK  status: ('A' for Active; 'I' for Inactive)
REMARK    1  A    between atoms: C10_15  and  O3_3 
REMARK    2  A    between atoms: C5_10  and  N1_5 
REMARK       I    between atoms: C6_11  and  N1_5 
REMARK    3  A    between atoms: C2_7  and  C6_11 
REMARK    4  A    between atoms: C10_15  and  C5_10 
ROOT
HETATM    1  O1  UNK     1      18.116   3.072  32.842  1.00  0.00    -0.274 OA
HETATM    2  O4  UNK     1      18.351   0.870  32.280  1.00  0.00    -0.259 OA
HETATM    3  C1  UNK     1      18.526   4.788  31.171  1.00  0.00    -0.001 A 
HETATM    4  C2  UNK     1      18.776   2.454  30.570  1.00  0.00     0.108 A 
HETATM    5  C3  UNK     1      18.174   4.428  32.468  1.00  0.00     0.089 A 
HETATM    6  C4  UNK     1      18.832   3.741  30.208  1.00  0.00     0.037 A 
HETATM    7  C7  UNK     1      18.572   6.144  30.836  1.00  0.00     0.014 A 
HETATM    8  C8  UNK     1      18.403   2.047  31.944  1.00  0.00     0.304 A 
HETATM    9  C9  UNK     1      17.869   5.382  33.436  1.00  0.00     0.038 A 
HETATM   10  C11 UNK     1      18.269   7.112  31.798  1.00  0.00     0.001 A 
HETATM   11  C12 UNK     1      17.919   6.731  33.096  1.00  0.00     0.003 A 
ENDROOT
BRANCH   4  12
HETATM   12  C6  UNK     1      19.103   1.473  29.529  1.00  0.00     0.257 C 
HETATM   13  O2  UNK     1      18.525   1.488  28.444  1.00  0.00    -0.267 OA
HETATM   14  N1  UNK     1      20.088   0.583  29.919  1.00  0.00    -0.355 N 
HETATM   15  H5  UNK     1      20.519   0.667  30.834  1.00  0.00     0.162 HD
BRANCH  14  16
HETATM   16  C5  UNK     1      20.576  -0.476  29.065  1.00  0.00     0.148 C 
BRANCH  16  17
HETATM   17  C10 UNK     1      20.345  -1.842  29.683  1.00  0.00     0.183 C 
BRANCH  17  18
HETATM   18  O3  UNK     1      19.454  -1.719  30.783  1.00  0.00    -0.399 OA
HETATM   19  H11 UNK     1      19.550  -2.525  31.320  1.00  0.00     0.209 HD
ENDBRANCH  17  18
ENDBRANCH  16  17
ENDBRANCH  14  16
ENDBRANCH   4  12
TORSDOF 4
ENDMDL
MODEL 2
REMARK VINA RESULT:      -7.3      1.964      6.041
REMARK  4 active torsions:
REMARK  status: ('A' for Active; 'I' for Inactive)
REMARK    1  A    between atoms: C10_15  and  O3_3 
REMARK    2  A    between atoms: C5_10  and  N1_5 
REMARK       I    between atoms: C6_11  and  N1_5 
REMARK    3  A    between atoms: C2_7  and  C6_11 
REMARK    4  A    between atoms: C10_15  and  C5_10 
ROOT
HETATM    1  O1  UNK     1      18.907   0.431  32.247  1.00  0.00    -0.274 OA
HETATM    2  O4  UNK     1      18.001   2.521  32.422  1.00  0.00    -0.259 OA
HETATM    3  C1  UNK     1      19.912  -0.271  30.149  1.00  0.00    -0.001 A 
HETATM    4  C2  UNK     1      18.952   1.946  30.329  1.00  0.00     0.108 A 
HETATM    5  C3  UNK     1      19.566  -0.540  31.470  1.00  0.00     0.089 A 
HETATM    6  C4  UNK     1      19.580   1.028  29.585  1.00  0.00     0.037 A 
HETATM    7  C7  UNK     1      20.567  -1.259  29.408  1.00  0.00     0.014 A 
HETATM    8  C8  UNK     1      18.576   1.683  31.736  1.00  0.00     0.304 A 
HETATM    9  C9  UNK     1      19.856  -1.764  32.068  1.00  0.00     0.038 A 
HETATM   10  C11 UNK     1      20.862  -2.492  29.996  1.00  0.00     0.001 A 
HETATM   11  C12 UNK     1      20.507  -2.744  31.324  1.00  0.00     0.003 A 
ENDROOT
BRANCH   4  12
HETATM   12  C6  UNK     1      18.661   3.226  29.671  1.00  0.00     0.257 C 
HETATM   13  O2  UNK     1      18.019   3.265  28.623  1.00  0.00    -0.267 OA
HETATM   14  N1  UNK     1      19.181   4.311  30.353  1.00  0.00    -0.355 N 
HETATM   15  H5  UNK     1      19.682   4.175  31.225  1.00  0.00     0.162 HD
BRANCH  14  16
HETATM   16  C5  UNK     1      19.025   5.674  29.898  1.00  0.00     0.148 C 
BRANCH  16  17
HETATM   17  C10 UNK     1      18.319   6.531  30.933  1.00  0.00     0.183 C 
BRANCH  17  18
HETATM   18  O3  UNK     1      17.335   7.331  30.292  1.00  0.00    -0.399 OA
HETATM   19  H11 UNK     1      17.205   6.964  29.400  1.00  0.00     0.209 HD
ENDBRANCH  17  18
ENDBRANCH  16  17
ENDBRANCH  14  16
ENDBRANCH   4  12
TORSDOF 4
ENDMDL
MODEL 3
REMARK VINA RESULT:      -7.3      3.699      6.636
REMARK  4 active torsions:
REMARK  status: ('A' for Active; 'I' for Inactive)
REMARK    1  A    between atoms: C10_15  and  O3_3 
REMARK    2  A    between atoms: C5_10  and  N1_5 
REMARK       I    between atoms: C6_11  and  N1_5 
REMARK    3  A    between atoms: C2_7  and  C6_11 
REMARK    4  A    between atoms: C10_15  and  C5_10 
ROOT
HETATM    1  O1  UNK     1      18.827   1.229  31.717  1.00  0.00    -0.274 OA
HETATM    2  O4  UNK     1      17.691   2.046  33.523  1.00  0.00    -0.259 OA
HETATM    3  C1  UNK     1      19.455  -1.118  31.657  1.00  0.00    -0.001 A 
HETATM    4  C2  UNK     1      18.251  -0.256  33.574  1.00  0.00     0.108 A 
HETATM    5  C3  UNK     1      19.439   0.141  31.065  1.00  0.00     0.089 A 
HETATM    6  C4  UNK     1      18.830  -1.293  32.958  1.00  0.00     0.037 A 
HETATM    7  C7  UNK     1      20.071  -2.174  30.979  1.00  0.00     0.014 A 
HETATM    8  C8  UNK     1      18.220   1.093  32.963  1.00  0.00     0.304 A 
HETATM    9  C9  UNK     1      20.020   0.374  29.821  1.00  0.00     0.038 A 
HETATM   10  C11 UNK     1      20.659  -1.955  29.730  1.00  0.00     0.001 A 
HETATM   11  C12 UNK     1      20.633  -0.683  29.152  1.00  0.00     0.003 A 
ENDROOT
BRANCH   4  12
HETATM   12  C6  UNK     1      17.648  -0.531  34.883  1.00  0.00     0.257 C 
HETATM   13  O2  UNK     1      16.563  -1.103  34.971  1.00  0.00    -0.267 OA
HETATM   14  N1  UNK     1      18.424  -0.083  35.937  1.00  0.00    -0.355 N 
HETATM   15  H5  UNK     1      19.318   0.362  35.760  1.00  0.00     0.162 HD
BRANCH  14  16
HETATM   16  C5  UNK     1      18.037  -0.238  37.321  1.00  0.00     0.148 C 
BRANCH  16  17
HETATM   17  C10 UNK     1      17.630   1.087  37.939  1.00  0.00     0.183 C 
BRANCH  17  18
HETATM   18  O3  UNK     1      18.480   2.117  37.451  1.00  0.00    -0.399 OA
HETATM   19  H11 UNK     1      18.091   2.964  37.730  1.00  0.00     0.209 HD
ENDBRANCH  17  18
ENDBRANCH  16  17
ENDBRANCH  14  16
ENDBRANCH   4  12
TORSDOF 4
ENDMDL
MODEL 4
REMARK VINA RESULT:      -7.1      6.472      7.901
REMARK  4 active torsions:
REMARK  status: ('A' for Active; 'I' for Inactive)
REMARK    1  A    between atoms: C10_15  and  O3_3 
REMARK    2  A    between atoms: C5_10  and  N1_5 
REMARK       I    between atoms: C6_11  and  N1_5 
REMARK    3  A    between atoms: C2_7  and  C6_11 
REMARK    4  A    between atoms: C10_15  and  C5_10 
ROOT
HETATM    1  O1  UNK     1      19.574  -0.954  34.788  1.00  0.00    -0.274 OA
HETATM    2  O4  UNK     1      20.627  -2.906  34.238  1.00  0.00    -0.259 OA
HETATM    3  C1  UNK     1      18.445  -0.762  36.932  1.00  0.00    -0.001 A 
HETATM    4  C2  UNK     1      19.561  -2.834  36.353  1.00  0.00     0.108 A 
HETATM    5  C3  UNK     1      18.821  -0.207  35.713  1.00  0.00     0.089 A 
HETATM    6  C4  UNK     1      18.845  -2.127  37.236  1.00  0.00     0.037 A 
HETATM    7  C7  UNK     1      17.698   0.011  37.825  1.00  0.00     0.014 A 
HETATM    8  C8  UNK     1      19.971  -2.263  35.050  1.00  0.00     0.304 A 
HETATM    9  C9  UNK     1      18.470   1.095  35.362  1.00  0.00     0.038 A 
HETATM   10  C11 UNK     1      17.339   1.318  37.486  1.00  0.00     0.001 A 
HETATM   11  C12 UNK     1      17.724   1.859  36.256  1.00  0.00     0.003 A 
ENDROOT
BRANCH   4  12
HETATM   12  C6  UNK     1      19.915  -4.202  36.750  1.00  0.00     0.257 C 
HETATM   13  O2  UNK     1      20.775  -4.408  37.603  1.00  0.00    -0.267 OA
HETATM   14  N1  UNK     1      19.190  -5.163  36.069  1.00  0.00    -0.355 N 
HETATM   15  H5  UNK     1      18.485  -4.889  35.393  1.00  0.00     0.162 HD
BRANCH  14  16
HETATM   16  C5  UNK     1      19.365  -6.581  36.287  1.00  0.00     0.148 C 
BRANCH  16  17
HETATM   17  C10 UNK     1      18.490  -7.083  37.421  1.00  0.00     0.183 C 
BRANCH  17  18
HETATM   18  O3  UNK     1      17.198  -6.500  37.314  1.00  0.00    -0.399 OA
HETATM   19  H11 UNK     1      17.251  -5.813  36.628  1.00  0.00     0.209 HD
ENDBRANCH  17  18
ENDBRANCH  16  17
ENDBRANCH  14  16
ENDBRANCH   4  12
TORSDOF 4
ENDMDL
MODEL 5
REMARK VINA RESULT:      -7.1      1.893      6.266
REMARK  4 active torsions:
REMARK  status: ('A' for Active; 'I' for Inactive)
REMARK    1  A    between atoms: C10_15  and  O3_3 
REMARK    2  A    between atoms: C5_10  and  N1_5 
REMARK       I    between atoms: C6_11  and  N1_5 
REMARK    3  A    between atoms: C2_7  and  C6_11 
REMARK    4  A    between atoms: C10_15  and  C5_10 
ROOT
HETATM    1  O1  UNK     1      19.020   1.390  28.668  1.00  0.00    -0.274 OA
HETATM    2  O4  UNK     1      18.210   3.526  28.718  1.00  0.00    -0.259 OA
HETATM    3  C1  UNK     1      19.556   0.261  30.753  1.00  0.00    -0.001 A 
HETATM    4  C2  UNK     1      18.698   2.526  30.810  1.00  0.00     0.108 A 
HETATM    5  C3  UNK     1      19.486   0.258  29.363  1.00  0.00     0.089 A 
HETATM    6  C4  UNK     1      19.139   1.452  31.476  1.00  0.00     0.037 A 
HETATM    7  C7  UNK     1      20.024  -0.882  31.408  1.00  0.00     0.014 A 
HETATM    8  C8  UNK     1      18.614   2.545  29.332  1.00  0.00     0.304 A 
HETATM    9  C9  UNK     1      19.871  -0.851  28.612  1.00  0.00     0.038 A 
HETATM   10  C11 UNK     1      20.413  -2.001  30.667  1.00  0.00     0.001 A 
HETATM   11  C12 UNK     1      20.337  -1.986  29.272  1.00  0.00     0.003 A 
ENDROOT
BRANCH   4  12
HETATM   12  C6  UNK     1      18.301   3.679  31.627  1.00  0.00     0.257 C 
HETATM   13  O2  UNK     1      17.606   3.531  32.631  1.00  0.00    -0.267 OA
HETATM   14  N1  UNK     1      18.787   4.877  31.137  1.00  0.00    -0.355 N 
HETATM   15  H5  UNK     1      19.371   4.891  30.308  1.00  0.00     0.162 HD
BRANCH  14  16
HETATM   16  C5  UNK     1      18.526   6.150  31.770  1.00  0.00     0.148 C 
BRANCH  16  17
HETATM   17  C10 UNK     1      19.500   6.421  32.902  1.00  0.00     0.183 C 
BRANCH  17  18
HETATM   18  O3  UNK     1      18.958   5.928  34.120  1.00  0.00    -0.399 OA
HETATM   19  H11 UNK     1      19.582   6.167  34.827  1.00  0.00     0.209 HD
ENDBRANCH  17  18
ENDBRANCH  16  17
ENDBRANCH  14  16
ENDBRANCH   4  12
TORSDOF 4
ENDMDL
MODEL 6
REMARK VINA RESULT:      -7.1      3.658      6.503
REMARK  4 active torsions:
REMARK  status: ('A' for Active; 'I' for Inactive)
REMARK    1  A    between atoms: C10_15  and  O3_3 
REMARK    2  A    between atoms: C5_10  and  N1_5 
REMARK       I    between atoms: C6_11  and  N1_5 
REMARK    3  A    between atoms: C2_7  and  C6_11 
REMARK    4  A    between atoms: C10_15  and  C5_10 
ROOT
HETATM    1  O1  UNK     1      18.819   1.303  31.715  1.00  0.00    -0.274 OA
HETATM    2  O4  UNK     1      17.682   2.119  33.520  1.00  0.00    -0.259 OA
HETATM    3  C1  UNK     1      19.427  -1.049  31.642  1.00  0.00    -0.001 A 
HETATM    4  C2  UNK     1      18.220  -0.188  33.559  1.00  0.00     0.108 A 
HETATM    5  C3  UNK     1      19.425   0.214  31.059  1.00  0.00     0.089 A 
HETATM    6  C4  UNK     1      18.794  -1.227  32.939  1.00  0.00     0.037 A 
HETATM    7  C7  UNK     1      20.037  -2.106  30.961  1.00  0.00     0.014 A 
HETATM    8  C8  UNK     1      18.205   1.164  32.957  1.00  0.00     0.304 A 
HETATM    9  C9  UNK     1      20.014   0.450  29.819  1.00  0.00     0.038 A 
HETATM   10  C11 UNK     1      20.633  -1.884  29.716  1.00  0.00     0.001 A 
HETATM   11  C12 UNK     1      20.622  -0.608  29.146  1.00  0.00     0.003 A 
ENDROOT
BRANCH   4  12
HETATM   12  C6  UNK     1      17.609  -0.467  34.863  1.00  0.00     0.257 C 
HETATM   13  O2  UNK     1      16.613  -1.183  34.953  1.00  0.00    -0.267 OA
HETATM   14  N1  UNK     1      18.269   0.152  35.909  1.00  0.00    -0.355 N 
HETATM   15  H5  UNK     1      19.097   0.710  35.732  1.00  0.00     0.162 HD
BRANCH  14  16
HETATM   16  C5  UNK     1      17.850   0.028  37.287  1.00  0.00     0.148 C 
BRANCH  16  17
HETATM   17  C10 UNK     1      18.391  -1.240  37.922  1.00  0.00     0.183 C 
BRANCH  17  18
HETATM   18  O3  UNK     1      17.571  -2.341  37.552  1.00  0.00    -0.399 OA
HETATM   19  H11 UNK     1      17.452  -2.296  36.588  1.00  0.00     0.209 HD
ENDBRANCH  17  18
ENDBRANCH  16  17
ENDBRANCH  14  16
ENDBRANCH   4  12
TORSDOF 4
ENDMDL
MODEL 7
REMARK VINA RESULT:      -6.8     12.689     15.777
REMARK  4 active torsions:
REMARK  status: ('A' for Active; 'I' for Inactive)
REMARK    1  A    between atoms: C10_15  and  O3_3 
REMARK    2  A    between atoms: C5_10  and  N1_5 
REMARK       I    between atoms: C6_11  and  N1_5 
REMARK    3  A    between atoms: C2_7  and  C6_11 
REMARK    4  A    between atoms: C10_15  and  C5_10 
ROOT
HETATM    1  O1  UNK     1      19.522   0.062  14.426  1.00  0.00    -0.274 OA
HETATM    2  O4  UNK     1      19.868   2.074  15.450  1.00  0.00    -0.259 OA
HETATM    3  C1  UNK     1      18.674  -1.813  15.719  1.00  0.00    -0.001 A 
HETATM    4  C2  UNK     1      19.039   0.319  16.810  1.00  0.00     0.108 A 
HETATM    5  C3  UNK     1      19.112  -1.282  14.510  1.00  0.00     0.089 A 
HETATM    6  C4  UNK     1      18.647  -0.958  16.895  1.00  0.00     0.037 A 
HETATM    7  C7  UNK     1      18.273  -3.152  15.763  1.00  0.00     0.014 A 
HETATM    8  C8  UNK     1      19.508   0.906  15.533  1.00  0.00     0.304 A 
HETATM    9  C9  UNK     1      19.161  -2.049  13.348  1.00  0.00     0.038 A 
HETATM   10  C11 UNK     1      18.319  -3.933  14.605  1.00  0.00     0.001 A 
HETATM   11  C12 UNK     1      18.762  -3.383  13.400  1.00  0.00     0.003 A 
ENDROOT
BRANCH   4  12
HETATM   12  C6  UNK     1      18.977   1.102  18.050  1.00  0.00     0.257 C 
HETATM   13  O2  UNK     1      19.397   2.256  18.089  1.00  0.00    -0.267 OA
HETATM   14  N1  UNK     1      18.416   0.398  19.101  1.00  0.00    -0.355 N 
HETATM   15  H5  UNK     1      18.080  -0.549  18.960  1.00  0.00     0.162 HD
BRANCH  14  16
HETATM   16  C5  UNK     1      18.250   0.958  20.423  1.00  0.00     0.148 C 
BRANCH  16  17
HETATM   17  C10 UNK     1      19.561   0.982  21.187  1.00  0.00     0.183 C 
BRANCH  17  18
HETATM   18  O3  UNK     1      19.838  -0.319  21.691  1.00  0.00    -0.399 OA
HETATM   19  H11 UNK     1      19.432  -0.375  22.573  1.00  0.00     0.209 HD
ENDBRANCH  17  18
ENDBRANCH  16  17
ENDBRANCH  14  16
ENDBRANCH   4  12
TORSDOF 4
ENDMDL
MODEL 8
REMARK VINA RESULT:      -6.8      2.090      3.354
REMARK  4 active torsions:
REMARK  status: ('A' for Active; 'I' for Inactive)
REMARK    1  A    between atoms: C10_15  and  O3_3 
REMARK    2  A    between atoms: C5_10  and  N1_5 
REMARK       I    between atoms: C6_11  and  N1_5 
REMARK    3  A    between atoms: C2_7  and  C6_11 
REMARK    4  A    between atoms: C10_15  and  C5_10 
ROOT
HETATM    1  O1  UNK     1      19.653   6.745  32.007  1.00  0.00    -0.274 OA
HETATM    2  O4  UNK     1      20.316   5.169  30.491  1.00  0.00    -0.259 OA
HETATM    3  C1  UNK     1      17.718   6.318  33.414  1.00  0.00    -0.001 A 
HETATM    4  C2  UNK     1      18.417   4.644  31.808  1.00  0.00     0.108 A 
HETATM    5  C3  UNK     1      18.761   7.150  33.017  1.00  0.00     0.089 A 
HETATM    6  C4  UNK     1      17.566   5.024  32.769  1.00  0.00     0.037 A 
HETATM    7  C7  UNK     1      16.852   6.754  34.421  1.00  0.00     0.014 A 
HETATM    8  C8  UNK     1      19.534   5.512  31.370  1.00  0.00     0.304 A 
HETATM    9  C9  UNK     1      18.960   8.402  33.596  1.00  0.00     0.038 A 
HETATM   10  C11 UNK     1      17.041   8.008  35.010  1.00  0.00     0.001 A 
HETATM   11  C12 UNK     1      18.093   8.830  34.598  1.00  0.00     0.003 A 
ENDROOT
BRANCH   4  12
HETATM   12  C6  UNK     1      18.181   3.322  31.217  1.00  0.00     0.257 C 
HETATM   13  O2  UNK     1      17.864   2.364  31.920  1.00  0.00    -0.267 OA
HETATM   14  N1  UNK     1      18.357   3.307  29.845  1.00  0.00    -0.355 N 
HETATM   15  H5  UNK     1      18.602   4.160  29.352  1.00  0.00     0.162 HD
BRANCH  14  16
HETATM   16  C5  UNK     1      18.184   2.118  29.042  1.00  0.00     0.148 C 
BRANCH  16  17
HETATM   17  C10 UNK     1      19.247   1.079  29.346  1.00  0.00     0.183 C 
BRANCH  17  18
HETATM   18  O3  UNK     1      18.719   0.110  30.241  1.00  0.00    -0.399 OA
HETATM   19  H11 UNK     1      19.351   0.025  30.975  1.00  0.00     0.209 HD
ENDBRANCH  17  18
ENDBRANCH  16  17
ENDBRANCH  14  16
ENDBRANCH   4  12
TORSDOF 4
ENDMDL
MODEL 9
REMARK VINA RESULT:      -6.8     12.543     14.756
REMARK  4 active torsions:
REMARK  status: ('A' for Active; 'I' for Inactive)
REMARK    1  A    between atoms: C10_15  and  O3_3 
REMARK    2  A    between atoms: C5_10  and  N1_5 
REMARK       I    between atoms: C6_11  and  N1_5 
REMARK    3  A    between atoms: C2_7  and  C6_11 
REMARK    4  A    between atoms: C10_15  and  C5_10 
ROOT
HETATM    1  O1  UNK     1      19.446   1.983  17.335  1.00  0.00    -0.274 OA
HETATM    2  O4  UNK     1      19.246   1.412  15.132  1.00  0.00    -0.259 OA
HETATM    3  C1  UNK     1      19.214   0.271  19.045  1.00  0.00    -0.001 A 
HETATM    4  C2  UNK     1      19.000  -0.339  16.710  1.00  0.00     0.108 A 
HETATM    5  C3  UNK     1      19.437   1.598  18.689  1.00  0.00     0.089 A 
HETATM    6  C4  UNK     1      18.991  -0.711  17.995  1.00  0.00     0.037 A 
HETATM    7  C7  UNK     1      19.213  -0.074  20.399  1.00  0.00     0.014 A 
HETATM    8  C8  UNK     1      19.236   1.067  16.308  1.00  0.00     0.304 A 
HETATM    9  C9  UNK     1      19.657   2.586  19.647  1.00  0.00     0.038 A 
HETATM   10  C11 UNK     1      19.432   0.908  21.370  1.00  0.00     0.001 A 
HETATM   11  C12 UNK     1      19.653   2.235  20.994  1.00  0.00     0.003 A 
ENDROOT
BRANCH   4  12
HETATM   12  C6  UNK     1      18.765  -1.401  15.725  1.00  0.00     0.257 C 
HETATM   13  O2  UNK     1      17.895  -2.250  15.908  1.00  0.00    -0.267 OA
HETATM   14  N1  UNK     1      19.611  -1.318  14.633  1.00  0.00    -0.355 N 
HETATM   15  H5  UNK     1      20.286  -0.564  14.566  1.00  0.00     0.162 HD
BRANCH  14  16
HETATM   16  C5  UNK     1      19.571  -2.255  13.533  1.00  0.00     0.148 C 
BRANCH  16  17
HETATM   17  C10 UNK     1      19.638  -1.547  12.193  1.00  0.00     0.183 C 
BRANCH  17  18
HETATM   18  O3  UNK     1      18.493  -0.719  12.038  1.00  0.00    -0.399 OA
HETATM   19  H11 UNK     1      18.241  -0.410  12.925  1.00  0.00     0.209 HD
ENDBRANCH  17  18
ENDBRANCH  16  17
ENDBRANCH  14  16
ENDBRANCH   4  12
TORSDOF 4
ENDMDL
MODEL 10
REMARK VINA RESULT:      -6.8      3.612      5.464
REMARK  4 active torsions:
REMARK  status: ('A' for Active; 'I' for Inactive)
REMARK    1  A    between atoms: C10_15  and  O3_3 
REMARK    2  A    between atoms: C5_10  and  N1_5 
REMARK       I    between atoms: C6_11  and  N1_5 
REMARK    3  A    between atoms: C2_7  and  C6_11 
REMARK    4  A    between atoms: C10_15  and  C5_10 
ROOT
HETATM    1  O1  UNK     1      18.490  -0.852  34.286  1.00  0.00    -0.274 OA
HETATM    2  O4  UNK     1      18.716  -0.365  32.066  1.00  0.00    -0.259 OA
HETATM    3  C1  UNK     1      17.993   0.932  35.861  1.00  0.00    -0.001 A 
HETATM    4  C2  UNK     1      18.231   1.452  33.507  1.00  0.00     0.108 A 
HETATM    5  C3  UNK     1      18.241  -0.412  35.601  1.00  0.00     0.089 A 
HETATM    6  C4  UNK     1      17.993   1.875  34.754  1.00  0.00     0.037 A 
HETATM    7  C7  UNK     1      17.749   1.330  37.178  1.00  0.00     0.014 A 
HETATM    8  C8  UNK     1      18.498   0.027  33.206  1.00  0.00     0.304 A 
HETATM    9  C9  UNK     1      18.255  -1.366  36.617  1.00  0.00     0.038 A 
HETATM   10  C11 UNK     1      17.760   0.384  38.208  1.00  0.00     0.001 A 
HETATM   11  C12 UNK     1      18.013  -0.961  37.927  1.00  0.00     0.003 A 
ENDROOT
BRANCH   4  12
HETATM   12  C6  UNK     1      18.211   2.479  32.458  1.00  0.00     0.257 C 
HETATM   13  O2  UNK     1      17.915   3.643  32.720  1.00  0.00    -0.267 OA
HETATM   14  N1  UNK     1      18.548   1.980  31.212  1.00  0.00    -0.355 N 
HETATM   15  H5  UNK     1      18.796   1.003  31.103  1.00  0.00     0.162 HD
BRANCH  14  16
HETATM   16  C5  UNK     1      18.594   2.801  30.023  1.00  0.00     0.148 C 
BRANCH  16  17
HETATM   17  C10 UNK     1      17.987   2.088  28.829  1.00  0.00     0.183 C 
BRANCH  17  18
HETATM   18  O3  UNK     1      17.819   0.710  29.137  1.00  0.00    -0.399 OA
HETATM   19  H11 UNK     1      16.993   0.630  29.645  1.00  0.00     0.209 HD
ENDBRANCH  17  18
ENDBRANCH  16  17
ENDBRANCH  14  16
ENDBRANCH   4  12
TORSDOF 4
ENDMDL
