MODEL 1
REMARK VINA RESULT:      -9.4      0.000      0.000
REMARK  4 active torsions:
REMARK  status: ('A' for Active; 'I' for Inactive)
REMARK    1  A    between atoms: C11_16  and  N1_5 
REMARK       I    between atoms: C14_19  and  N1_5 
REMARK    2  A    between atoms: C1_6  and  C11_16 
REMARK    3  A    between atoms: C11_16  and  C12_17 
REMARK    4  A    between atoms: C14_19  and  C15_20 
ROOT
HETATM    1  O1  UNK     1      17.991   3.142  30.455  1.00  0.00    -0.267 OA
HETATM    2  N1  UNK     1      18.464   4.459  32.320  1.00  0.00    -0.351 N 
HETATM    3  C14 UNK     1      18.245   3.272  31.648  1.00  0.00     0.258 C 
HETATM    4  H19 UNK     1      18.727   4.438  33.300  1.00  0.00     0.163 HD
ENDROOT
BRANCH   2   5
HETATM    5  C11 UNK     1      18.418   5.746  31.672  1.00  0.00     0.093 C 
BRANCH   5   6
HETATM    6  C1  UNK     1      17.797   6.775  32.620  1.00  0.00    -0.019 C 
HETATM    7  C5  UNK     1      18.896   7.677  33.229  1.00  0.00     0.016 C 
HETATM    8  C2  UNK     1      18.276   8.713  34.183  1.00  0.00    -0.013 C 
HETATM    9  C8  UNK     1      17.276   9.582  33.404  1.00  0.00     0.009 C 
HETATM   10  C9  UNK     1      17.536   7.979  35.313  1.00  0.00     0.009 C 
HETATM   11  C3  UNK     1      16.164   8.703  32.809  1.00  0.00    -0.013 C 
HETATM   12  C10 UNK     1      15.434   7.970  33.946  1.00  0.00     0.009 C 
HETATM   13  C6  UNK     1      16.790   7.669  31.858  1.00  0.00     0.016 C 
HETATM   14  C4  UNK     1      16.425   7.091  34.728  1.00  0.00    -0.013 C 
HETATM   15  C7  UNK     1      17.051   6.060  33.772  1.00  0.00     0.016 C 
ENDBRANCH   5   6
BRANCH   5  16
HETATM   16  C12 UNK     1      19.812   6.199  31.223  1.00  0.00     0.021 C 
HETATM   17  C13 UNK     1      20.067   5.924  29.747  1.00  0.00     0.007 C 
ENDBRANCH   5  16
ENDBRANCH   2   5
BRANCH   3  18
HETATM   18  C15 UNK     1      18.348   2.091  32.525  1.00  0.00     0.108 A 
HETATM   19  C16 UNK     1      18.124   2.301  33.828  1.00  0.00     0.037 A 
HETATM   20  C18 UNK     1      18.204   1.197  34.772  1.00  0.00     0.001 A 
HETATM   21  C19 UNK     1      18.515  -0.074  34.298  1.00  0.00     0.089 A 
HETATM   22  C20 UNK     1      17.978   1.369  36.140  1.00  0.00     0.038 A 
HETATM   23  O2  UNK     1      18.748  -0.288  32.925  1.00  0.00    -0.274 OA
HETATM   24  C21 UNK     1      18.606  -1.173  35.149  1.00  0.00     0.040 A 
HETATM   25  C17 UNK     1      18.680   0.748  31.998  1.00  0.00     0.304 A 
HETATM   26  O3  UNK     1      18.886   0.552  30.805  1.00  0.00    -0.259 OA
HETATM   27  C23 UNK     1      18.380  -0.992  36.512  1.00  0.00     0.026 A 
HETATM   28  C22 UNK     1      18.066   0.276  37.007  1.00  0.00     0.035 A 
HETATM   29 Cl1  UNK     1      17.786   0.493  38.692  1.00  0.00    -0.084 Cl
ENDBRANCH   3  18
TORSDOF 4
ENDMDL
MODEL 2
REMARK VINA RESULT:      -9.3     11.702     14.756
REMARK  4 active torsions:
REMARK  status: ('A' for Active; 'I' for Inactive)
REMARK    1  A    between atoms: C11_16  and  N1_5 
REMARK       I    between atoms: C14_19  and  N1_5 
REMARK    2  A    between atoms: C1_6  and  C11_16 
REMARK    3  A    between atoms: C11_16  and  C12_17 
REMARK    4  A    between atoms: C14_19  and  C15_20 
ROOT
HETATM    1  O1  UNK     1      22.799  -8.376  40.093  1.00  0.00    -0.267 OA
HETATM    2  N1  UNK     1      22.797  -8.676  37.780  1.00  0.00    -0.351 N 
HETATM    3  C14 UNK     1      23.332  -8.283  38.992  1.00  0.00     0.258 C 
HETATM    4  H19 UNK     1      23.359  -8.605  36.938  1.00  0.00     0.163 HD
ENDROOT
BRANCH   2   5
HETATM    5  C11 UNK     1      21.489  -9.270  37.658  1.00  0.00     0.093 C 
BRANCH   5   6
HETATM    6  C1  UNK     1      20.517  -8.248  37.061  1.00  0.00    -0.019 C 
HETATM    7  C5  UNK     1      20.317  -7.063  38.035  1.00  0.00     0.016 C 
HETATM    8  C2  UNK     1      19.340  -6.035  37.439  1.00  0.00    -0.013 C 
HETATM    9  C8  UNK     1      19.907  -5.512  36.109  1.00  0.00     0.009 C 
HETATM   10  C9  UNK     1      17.986  -6.715  37.182  1.00  0.00     0.009 C 
HETATM   11  C3  UNK     1      20.092  -6.675  35.121  1.00  0.00    -0.013 C 
HETATM   12  C10 UNK     1      18.733  -7.350  34.874  1.00  0.00     0.009 C 
HETATM   13  C6  UNK     1      21.067  -7.700  35.723  1.00  0.00     0.016 C 
HETATM   14  C4  UNK     1      18.161  -7.884  36.198  1.00  0.00    -0.013 C 
HETATM   15  C7  UNK     1      19.142  -8.907  36.798  1.00  0.00     0.016 C 
ENDBRANCH   5   6
BRANCH   5  16
HETATM   16  C12 UNK     1      21.526 -10.541  36.802  1.00  0.00     0.021 C 
HETATM   17  C13 UNK     1      22.853 -10.716  36.076  1.00  0.00     0.007 C 
ENDBRANCH   5  16
ENDBRANCH   2   5
BRANCH   3  18
HETATM   18  C15 UNK     1      24.683  -7.708  38.860  1.00  0.00     0.108 A 
HETATM   19  C16 UNK     1      25.691  -8.582  38.756  1.00  0.00     0.037 A 
HETATM   20  C18 UNK     1      27.061  -8.108  38.622  1.00  0.00     0.001 A 
HETATM   21  C19 UNK     1      27.301  -6.738  38.603  1.00  0.00     0.089 A 
HETATM   22  C20 UNK     1      28.143  -8.984  38.512  1.00  0.00     0.038 A 
HETATM   23  O2  UNK     1      26.235  -5.824  38.711  1.00  0.00    -0.274 OA
HETATM   24  C21 UNK     1      28.587  -6.220  38.476  1.00  0.00     0.040 A 
HETATM   25  C17 UNK     1      24.915  -6.246  38.841  1.00  0.00     0.304 A 
HETATM   26  O3  UNK     1      23.993  -5.442  38.936  1.00  0.00    -0.259 OA
HETATM   27  C23 UNK     1      29.662  -7.101  38.368  1.00  0.00     0.026 A 
HETATM   28  C22 UNK     1      29.440  -8.480  38.384  1.00  0.00     0.035 A 
HETATM   29 Cl1  UNK     1      30.772  -9.562  38.247  1.00  0.00    -0.084 Cl
ENDBRANCH   3  18
TORSDOF 4
ENDMDL
MODEL 3
REMARK VINA RESULT:      -9.1     12.631     15.219
REMARK  4 active torsions:
REMARK  status: ('A' for Active; 'I' for Inactive)
REMARK    1  A    between atoms: C11_16  and  N1_5 
REMARK       I    between atoms: C14_19  and  N1_5 
REMARK    2  A    between atoms: C1_6  and  C11_16 
REMARK    3  A    between atoms: C11_16  and  C12_17 
REMARK    4  A    between atoms: C14_19  and  C15_20 
ROOT
HETATM    1  O1  UNK     1      25.209  -9.163  39.559  1.00  0.00    -0.267 OA
HETATM    2  N1  UNK     1      24.208  -8.143  37.717  1.00  0.00    -0.351 N 
HETATM    3  C14 UNK     1      25.147  -8.269  38.722  1.00  0.00     0.258 C 
HETATM    4  H19 UNK     1      24.294  -7.390  37.042  1.00  0.00     0.163 HD
ENDROOT
BRANCH   2   5
HETATM    5  C11 UNK     1      23.138  -9.090  37.522  1.00  0.00     0.093 C 
BRANCH   5   6
HETATM    6  C1  UNK     1      21.795  -8.412  37.807  1.00  0.00    -0.019 C 
HETATM    7  C5  UNK     1      21.246  -8.861  39.181  1.00  0.00     0.016 C 
HETATM    8  C2  UNK     1      19.896  -8.182  39.470  1.00  0.00    -0.013 C 
HETATM    9  C8  UNK     1      20.087  -6.657  39.471  1.00  0.00     0.009 C 
HETATM   10  C9  UNK     1      18.892  -8.567  38.371  1.00  0.00     0.009 C 
HETATM   11  C3  UNK     1      20.613  -6.190  38.104  1.00  0.00    -0.013 C 
HETATM   12  C10 UNK     1      19.605  -6.583  37.012  1.00  0.00     0.009 C 
HETATM   13  C6  UNK     1      21.962  -6.874  37.820  1.00  0.00     0.016 C 
HETATM   14  C4  UNK     1      19.411  -8.109  36.998  1.00  0.00    -0.013 C 
HETATM   15  C7  UNK     1      20.764  -8.788  36.716  1.00  0.00     0.016 C 
ENDBRANCH   5   6
BRANCH   5  16
HETATM   16  C12 UNK     1      23.156  -9.676  36.106  1.00  0.00     0.021 C 
HETATM   17  C13 UNK     1      23.574 -11.140  36.086  1.00  0.00     0.007 C 
ENDBRANCH   5  16
ENDBRANCH   2   5
BRANCH   3  18
HETATM   18  C15 UNK     1      26.140  -7.180  38.714  1.00  0.00     0.108 A 
HETATM   19  C16 UNK     1      27.420  -7.546  38.576  1.00  0.00     0.037 A 
HETATM   20  C18 UNK     1      28.472  -6.541  38.558  1.00  0.00     0.001 A 
HETATM   21  C19 UNK     1      28.125  -5.200  38.685  1.00  0.00     0.089 A 
HETATM   22  C20 UNK     1      29.820  -6.878  38.416  1.00  0.00     0.038 A 
HETATM   23  O2  UNK     1      26.776  -4.821  38.829  1.00  0.00    -0.274 OA
HETATM   24  C21 UNK     1      29.083  -4.189  38.674  1.00  0.00     0.040 A 
HETATM   25  C17 UNK     1      25.747  -5.759  38.851  1.00  0.00     0.304 A 
HETATM   26  O3  UNK     1      24.576  -5.419  38.978  1.00  0.00    -0.259 OA
HETATM   27  C23 UNK     1      30.426  -4.533  38.533  1.00  0.00     0.026 A 
HETATM   28  C22 UNK     1      30.794  -5.875  38.403  1.00  0.00     0.035 A 
HETATM   29 Cl1  UNK     1      32.455  -6.294  38.228  1.00  0.00    -0.084 Cl
ENDBRANCH   3  18
TORSDOF 4
ENDMDL
MODEL 4
REMARK VINA RESULT:      -8.8     23.673     25.812
REMARK  4 active torsions:
REMARK  status: ('A' for Active; 'I' for Inactive)
REMARK    1  A    between atoms: C11_16  and  N1_5 
REMARK       I    between atoms: C14_19  and  N1_5 
REMARK    2  A    between atoms: C1_6  and  C11_16 
REMARK    3  A    between atoms: C11_16  and  C12_17 
REMARK    4  A    between atoms: C14_19  and  C15_20 
ROOT
HETATM    1  O1  UNK     1       7.192   7.183   8.650  1.00  0.00    -0.267 OA
HETATM    2  N1  UNK     1       8.994   5.717   8.456  1.00  0.00    -0.351 N 
HETATM    3  C14 UNK     1       7.765   6.135   8.928  1.00  0.00     0.258 C 
HETATM    4  H19 UNK     1       9.342   4.798   8.709  1.00  0.00     0.163 HD
ENDROOT
BRANCH   2   5
HETATM    5  C11 UNK     1       9.788   6.498   7.539  1.00  0.00     0.093 C 
BRANCH   5   6
HETATM    6  C1  UNK     1      11.218   6.615   8.072  1.00  0.00    -0.019 C 
HETATM    7  C5  UNK     1      11.434   7.995   8.736  1.00  0.00     0.016 C 
HETATM    8  C2  UNK     1      12.871   8.117   9.271  1.00  0.00    -0.013 C 
HETATM    9  C8  UNK     1      13.120   7.008  10.306  1.00  0.00     0.009 C 
HETATM   10  C9  UNK     1      13.860   7.954   8.105  1.00  0.00     0.009 C 
HETATM   11  C3  UNK     1      12.931   5.627   9.657  1.00  0.00    -0.013 C 
HETATM   12  C10 UNK     1      13.920   5.477   8.490  1.00  0.00     0.009 C 
HETATM   13  C6  UNK     1      11.494   5.513   9.122  1.00  0.00     0.016 C 
HETATM   14  C4  UNK     1      13.675   6.577   7.445  1.00  0.00    -0.013 C 
HETATM   15  C7  UNK     1      12.234   6.460   6.915  1.00  0.00     0.016 C 
ENDBRANCH   5   6
BRANCH   5  16
HETATM   16  C12 UNK     1       9.784   5.888   6.133  1.00  0.00     0.021 C 
HETATM   17  C13 UNK     1       9.028   6.747   5.128  1.00  0.00     0.007 C 
ENDBRANCH   5  16
ENDBRANCH   2   5
BRANCH   3  18
HETATM   18  C15 UNK     1       7.147   5.164   9.849  1.00  0.00     0.108 A 
HETATM   19  C16 UNK     1       6.885   5.604  11.085  1.00  0.00     0.037 A 
HETATM   20  C18 UNK     1       6.277   4.718  12.066  1.00  0.00     0.001 A 
HETATM   21  C19 UNK     1       5.973   3.412  11.696  1.00  0.00     0.089 A 
HETATM   22  C20 UNK     1       5.987   5.136  13.367  1.00  0.00     0.038 A 
HETATM   23  O2  UNK     1       6.250   2.955  10.393  1.00  0.00    -0.274 OA
HETATM   24  C21 UNK     1       5.389   2.514  12.587  1.00  0.00     0.040 A 
HETATM   25  C17 UNK     1       6.832   3.778   9.434  1.00  0.00     0.304 A 
HETATM   26  O3  UNK     1       7.070   3.371   8.301  1.00  0.00    -0.259 OA
HETATM   27  C23 UNK     1       5.104   2.938  13.883  1.00  0.00     0.026 A 
HETATM   28  C22 UNK     1       5.400   4.246  14.272  1.00  0.00     0.035 A 
HETATM   29 Cl1  UNK     1       5.044   4.764  15.875  1.00  0.00    -0.084 Cl
ENDBRANCH   3  18
TORSDOF 4
ENDMDL
MODEL 5
REMARK VINA RESULT:      -8.8     23.368     25.772
REMARK  4 active torsions:
REMARK  status: ('A' for Active; 'I' for Inactive)
REMARK    1  A    between atoms: C11_16  and  N1_5 
REMARK       I    between atoms: C14_19  and  N1_5 
REMARK    2  A    between atoms: C1_6  and  C11_16 
REMARK    3  A    between atoms: C11_16  and  C12_17 
REMARK    4  A    between atoms: C14_19  and  C15_20 
ROOT
HETATM    1  O1  UNK     1      11.062   7.321   6.563  1.00  0.00    -0.267 OA
HETATM    2  N1  UNK     1      11.933   6.966   8.696  1.00  0.00    -0.351 N 
HETATM    3  C14 UNK     1      10.928   7.192   7.775  1.00  0.00     0.258 C 
HETATM    4  H19 UNK     1      11.694   6.815   9.671  1.00  0.00     0.163 HD
ENDROOT
BRANCH   2   5
HETATM    5  C11 UNK     1      13.322   6.850   8.327  1.00  0.00     0.093 C 
BRANCH   5   6
HETATM    6  C1  UNK     1      14.168   7.756   9.226  1.00  0.00    -0.019 C 
HETATM    7  C5  UNK     1      13.401   8.091  10.526  1.00  0.00     0.016 C 
HETATM    8  C2  UNK     1      14.249   9.002  11.432  1.00  0.00    -0.013 C 
HETATM    9  C8  UNK     1      15.562   8.284  11.784  1.00  0.00     0.009 C 
HETATM   10  C9  UNK     1      14.569  10.304  10.680  1.00  0.00     0.009 C 
HETATM   11  C3  UNK     1      16.348   7.962  10.503  1.00  0.00    -0.013 C 
HETATM   12  C10 UNK     1      16.658   9.270   9.757  1.00  0.00     0.009 C 
HETATM   13  C6  UNK     1      15.495   7.053   9.601  1.00  0.00     0.016 C 
HETATM   14  C4  UNK     1      15.350   9.993   9.393  1.00  0.00    -0.013 C 
HETATM   15  C7  UNK     1      14.499   9.078   8.493  1.00  0.00     0.016 C 
ENDBRANCH   5   6
BRANCH   5  16
HETATM   16  C12 UNK     1      13.807   5.399   8.415  1.00  0.00     0.021 C 
HETATM   17  C13 UNK     1      12.664   4.396   8.331  1.00  0.00     0.007 C 
ENDBRANCH   5  16
ENDBRANCH   2   5
BRANCH   3  18
HETATM   18  C15 UNK     1       9.593   7.269   8.394  1.00  0.00     0.108 A 
HETATM   19  C16 UNK     1       9.421   8.225   9.315  1.00  0.00     0.037 A 
HETATM   20  C18 UNK     1       8.138   8.379   9.982  1.00  0.00     0.001 A 
HETATM   21  C19 UNK     1       7.097   7.519   9.647  1.00  0.00     0.089 A 
HETATM   22  C20 UNK     1       7.915   9.363  10.949  1.00  0.00     0.038 A 
HETATM   23  O2  UNK     1       7.284   6.515   8.677  1.00  0.00    -0.274 OA
HETATM   24  C21 UNK     1       5.844   7.614  10.248  1.00  0.00     0.040 A 
HETATM   25  C17 UNK     1       8.500   6.343   8.022  1.00  0.00     0.304 A 
HETATM   26  O3  UNK     1       8.653   5.465   7.179  1.00  0.00    -0.259 OA
HETATM   27  C23 UNK     1       5.630   8.597  11.212  1.00  0.00     0.026 A 
HETATM   28  C22 UNK     1       6.663   9.471  11.561  1.00  0.00     0.035 A 
HETATM   29 Cl1  UNK     1       6.391  10.684  12.751  1.00  0.00    -0.084 Cl
ENDBRANCH   3  18
TORSDOF 4
ENDMDL
MODEL 6
REMARK VINA RESULT:      -8.8     23.116     25.460
REMARK  4 active torsions:
REMARK  status: ('A' for Active; 'I' for Inactive)
REMARK    1  A    between atoms: C11_16  and  N1_5 
REMARK       I    between atoms: C14_19  and  N1_5 
REMARK    2  A    between atoms: C1_6  and  C11_16 
REMARK    3  A    between atoms: C11_16  and  C12_17 
REMARK    4  A    between atoms: C14_19  and  C15_20 
ROOT
HETATM    1  O1  UNK     1      10.917   7.328   6.862  1.00  0.00    -0.267 OA
HETATM    2  N1  UNK     1      12.109   7.144   8.858  1.00  0.00    -0.351 N 
HETATM    3  C14 UNK     1      10.968   7.187   8.079  1.00  0.00     0.258 C 
HETATM    4  H19 UNK     1      12.029   6.961   9.853  1.00  0.00     0.163 HD
ENDROOT
BRANCH   2   5
HETATM    5  C11 UNK     1      13.436   7.267   8.309  1.00  0.00     0.093 C 
BRANCH   5   6
HETATM    6  C1  UNK     1      14.330   8.026   9.294  1.00  0.00    -0.019 C 
HETATM    7  C5  UNK     1      13.553   8.338  10.595  1.00  0.00     0.016 C 
HETATM    8  C2  UNK     1      14.447   9.101  11.586  1.00  0.00    -0.013 C 
HETATM    9  C8  UNK     1      15.678   8.244  11.921  1.00  0.00     0.009 C 
HETATM   10  C9  UNK     1      14.907  10.419  10.941  1.00  0.00     0.009 C 
HETATM   11  C3  UNK     1      16.475   7.942  10.641  1.00  0.00    -0.013 C 
HETATM   12  C10 UNK     1      16.925   9.265  10.001  1.00  0.00     0.009 C 
HETATM   13  C6  UNK     1      15.575   7.180   9.653  1.00  0.00     0.016 C 
HETATM   14  C4  UNK     1      15.700  10.128   9.656  1.00  0.00    -0.013 C 
HETATM   15  C7  UNK     1      14.802   9.361   8.669  1.00  0.00     0.016 C 
ENDBRANCH   5   6
BRANCH   5  16
HETATM   16  C12 UNK     1      14.038   5.896   7.983  1.00  0.00     0.021 C 
HETATM   17  C13 UNK     1      13.119   4.747   8.376  1.00  0.00     0.007 C 
ENDBRANCH   5  16
ENDBRANCH   2   5
BRANCH   3  18
HETATM   18  C15 UNK     1       9.732   7.036   8.869  1.00  0.00     0.108 A 
HETATM   19  C16 UNK     1       9.180   5.818   8.878  1.00  0.00     0.037 A 
HETATM   20  C18 UNK     1       7.958   5.572   9.629  1.00  0.00     0.001 A 
HETATM   21  C19 UNK     1       7.379   6.621  10.334  1.00  0.00     0.089 A 
HETATM   22  C20 UNK     1       7.347   4.317   9.666  1.00  0.00     0.038 A 
HETATM   23  O2  UNK     1       7.966   7.902  10.322  1.00  0.00    -0.274 OA
HETATM   24  C21 UNK     1       6.210   6.453  11.073  1.00  0.00     0.040 A 
HETATM   25  C17 UNK     1       9.134   8.168   9.613  1.00  0.00     0.304 A 
HETATM   26  O3  UNK     1       9.637   9.286   9.607  1.00  0.00    -0.259 OA
HETATM   27  C23 UNK     1       5.606   5.198  11.104  1.00  0.00     0.026 A 
HETATM   28  C22 UNK     1       6.174   4.131  10.403  1.00  0.00     0.035 A 
HETATM   29 Cl1  UNK     1       5.424   2.582  10.446  1.00  0.00    -0.084 Cl
ENDBRANCH   3  18
TORSDOF 4
ENDMDL
MODEL 7
REMARK VINA RESULT:      -8.7     11.867     14.645
REMARK  4 active torsions:
REMARK  status: ('A' for Active; 'I' for Inactive)
REMARK    1  A    between atoms: C11_16  and  N1_5 
REMARK       I    between atoms: C14_19  and  N1_5 
REMARK    2  A    between atoms: C1_6  and  C11_16 
REMARK    3  A    between atoms: C11_16  and  C12_17 
REMARK    4  A    between atoms: C14_19  and  C15_20 
ROOT
HETATM    1  O1  UNK     1      23.275  -8.401  39.788  1.00  0.00    -0.267 OA
HETATM    2  N1  UNK     1      22.832  -9.045  37.592  1.00  0.00    -0.351 N 
HETATM    3  C14 UNK     1      23.619  -8.571  38.624  1.00  0.00     0.258 C 
HETATM    4  H19 UNK     1      23.245  -9.202  36.678  1.00  0.00     0.163 HD
ENDROOT
BRANCH   2   5
HETATM    5  C11 UNK     1      21.449  -9.413  37.767  1.00  0.00     0.093 C 
BRANCH   5   6
HETATM    6  C1  UNK     1      20.549  -8.317  37.189  1.00  0.00    -0.019 C 
HETATM    7  C5  UNK     1      21.209  -7.682  35.943  1.00  0.00     0.016 C 
HETATM    8  C2  UNK     1      20.308  -6.579  35.360  1.00  0.00    -0.013 C 
HETATM    9  C8  UNK     1      18.954  -7.190  34.965  1.00  0.00     0.009 C 
HETATM   10  C9  UNK     1      20.084  -5.494  36.426  1.00  0.00     0.009 C 
HETATM   11  C3  UNK     1      18.274  -7.808  36.197  1.00  0.00    -0.013 C 
HETATM   12  C10 UNK     1      18.058  -6.717  37.258  1.00  0.00     0.009 C 
HETATM   13  C6  UNK     1      19.180  -8.908  36.777  1.00  0.00     0.016 C 
HETATM   14  C4  UNK     1      19.409  -6.104  37.666  1.00  0.00    -0.013 C 
HETATM   15  C7  UNK     1      20.313  -7.209  38.242  1.00  0.00     0.016 C 
ENDBRANCH   5   6
BRANCH   5  16
HETATM   16  C12 UNK     1      21.140 -10.765  37.113  1.00  0.00     0.021 C 
HETATM   17  C13 UNK     1      22.069 -11.074  35.947  1.00  0.00     0.007 C 
ENDBRANCH   5  16
ENDBRANCH   2   5
BRANCH   3  18
HETATM   18  C15 UNK     1      24.996  -8.266  38.197  1.00  0.00     0.108 A 
HETATM   19  C16 UNK     1      25.565  -7.191  38.754  1.00  0.00     0.037 A 
HETATM   20  C18 UNK     1      26.923  -6.809  38.395  1.00  0.00     0.001 A 
HETATM   21  C19 UNK     1      27.615  -7.580  37.467  1.00  0.00     0.089 A 
HETATM   22  C20 UNK     1      27.554  -5.695  38.952  1.00  0.00     0.038 A 
HETATM   23  O2  UNK     1      27.011  -8.712  36.884  1.00  0.00    -0.274 OA
HETATM   24  C21 UNK     1      28.917  -7.270  37.080  1.00  0.00     0.040 A 
HETATM   25  C17 UNK     1      25.714  -9.101  37.207  1.00  0.00     0.304 A 
HETATM   26  O3  UNK     1      25.197 -10.088  36.694  1.00  0.00    -0.259 OA
HETATM   27  C23 UNK     1      29.540  -6.156  37.639  1.00  0.00     0.026 A 
HETATM   28  C22 UNK     1      28.861  -5.371  38.574  1.00  0.00     0.035 A 
HETATM   29 Cl1  UNK     1      29.637  -3.997  39.263  1.00  0.00    -0.084 Cl
ENDBRANCH   3  18
TORSDOF 4
ENDMDL
MODEL 8
REMARK VINA RESULT:      -8.5     12.667     15.721
REMARK  4 active torsions:
REMARK  status: ('A' for Active; 'I' for Inactive)
REMARK    1  A    between atoms: C11_16  and  N1_5 
REMARK       I    between atoms: C14_19  and  N1_5 
REMARK    2  A    between atoms: C1_6  and  C11_16 
REMARK    3  A    between atoms: C11_16  and  C12_17 
REMARK    4  A    between atoms: C14_19  and  C15_20 
ROOT
HETATM    1  O1  UNK     1      24.788 -11.212  36.303  1.00  0.00    -0.267 OA
HETATM    2  N1  UNK     1      23.829  -9.219  37.040  1.00  0.00    -0.351 N 
HETATM    3  C14 UNK     1      24.874 -10.079  36.763  1.00  0.00     0.258 C 
HETATM    4  H19 UNK     1      24.027  -8.277  37.364  1.00  0.00     0.163 HD
ENDROOT
BRANCH   2   5
HETATM    5  C11 UNK     1      22.448  -9.566  36.813  1.00  0.00     0.093 C 
BRANCH   5   6
HETATM    6  C1  UNK     1      21.545  -8.444  37.332  1.00  0.00    -0.019 C 
HETATM    7  C5  UNK     1      20.301  -9.037  38.035  1.00  0.00     0.016 C 
HETATM    8  C2  UNK     1      19.391  -7.912  38.557  1.00  0.00    -0.013 C 
HETATM    9  C8  UNK     1      20.177  -7.048  39.556  1.00  0.00     0.009 C 
HETATM   10  C9  UNK     1      18.939  -7.038  37.376  1.00  0.00     0.009 C 
HETATM   11  C3  UNK     1      21.407  -6.433  38.868  1.00  0.00    -0.013 C 
HETATM   12  C10 UNK     1      20.945  -5.566  37.686  1.00  0.00     0.009 C 
HETATM   13  C6  UNK     1      22.312  -7.562  38.346  1.00  0.00     0.016 C 
HETATM   14  C4  UNK     1      20.163  -6.423  36.677  1.00  0.00    -0.013 C 
HETATM   15  C7  UNK     1      21.071  -7.552  36.160  1.00  0.00     0.016 C 
ENDBRANCH   5   6
BRANCH   5  16
HETATM   16  C12 UNK     1      22.174  -9.835  35.329  1.00  0.00     0.021 C 
HETATM   17  C13 UNK     1      21.483 -11.173  35.097  1.00  0.00     0.007 C 
ENDBRANCH   5  16
ENDBRANCH   2   5
BRANCH   3  18
HETATM   18  C15 UNK     1      26.191  -9.496  37.078  1.00  0.00     0.108 A 
HETATM   19  C16 UNK     1      27.162  -9.707  36.181  1.00  0.00     0.037 A 
HETATM   20  C18 UNK     1      28.496  -9.172  36.405  1.00  0.00     0.001 A 
HETATM   21  C19 UNK     1      28.742  -8.438  37.562  1.00  0.00     0.089 A 
HETATM   22  C20 UNK     1      29.539  -9.368  35.497  1.00  0.00     0.038 A 
HETATM   23  O2  UNK     1      27.715  -8.218  38.501  1.00  0.00    -0.274 OA
HETATM   24  C21 UNK     1      29.996  -7.898  37.835  1.00  0.00     0.040 A 
HETATM   25  C17 UNK     1      26.430  -8.718  38.315  1.00  0.00     0.304 A 
HETATM   26  O3  UNK     1      25.542  -8.522  39.139  1.00  0.00    -0.259 OA
HETATM   27  C23 UNK     1      31.032  -8.100  36.925  1.00  0.00     0.026 A 
HETATM   28  C22 UNK     1      30.804  -8.832  35.758  1.00  0.00     0.035 A 
HETATM   29 Cl1  UNK     1      32.087  -9.076  34.636  1.00  0.00    -0.084 Cl
ENDBRANCH   3  18
TORSDOF 4
ENDMDL
MODEL 9
REMARK VINA RESULT:      -8.5     14.368     17.327
REMARK  4 active torsions:
REMARK  status: ('A' for Active; 'I' for Inactive)
REMARK    1  A    between atoms: C11_16  and  N1_5 
REMARK       I    between atoms: C14_19  and  N1_5 
REMARK    2  A    between atoms: C1_6  and  C11_16 
REMARK    3  A    between atoms: C11_16  and  C12_17 
REMARK    4  A    between atoms: C14_19  and  C15_20 
ROOT
HETATM    1  O1  UNK     1      28.783  -5.060  32.265  1.00  0.00    -0.267 OA
HETATM    2  N1  UNK     1      28.613  -7.375  32.038  1.00  0.00    -0.351 N 
HETATM    3  C14 UNK     1      28.807  -6.195  32.730  1.00  0.00     0.258 C 
HETATM    4  H19 UNK     1      28.596  -8.255  32.543  1.00  0.00     0.163 HD
ENDROOT
BRANCH   2   5
HETATM    5  C11 UNK     1      28.345  -7.417  30.622  1.00  0.00     0.093 C 
BRANCH   5   6
HETATM    6  C1  UNK     1      29.238  -8.472  29.963  1.00  0.00    -0.019 C 
HETATM    7  C5  UNK     1      28.378  -9.481  29.165  1.00  0.00     0.016 C 
HETATM    8  C2  UNK     1      29.272 -10.543  28.502  1.00  0.00    -0.013 C 
HETATM    9  C8  UNK     1      30.260  -9.850  27.550  1.00  0.00     0.009 C 
HETATM   10  C9  UNK     1      30.058 -11.293  29.590  1.00  0.00     0.009 C 
HETATM   11  C3  UNK     1      31.138  -8.857  28.331  1.00  0.00    -0.013 C 
HETATM   12  C10 UNK     1      31.914  -9.616  29.419  1.00  0.00     0.009 C 
HETATM   13  C6  UNK     1      30.238  -7.800  28.993  1.00  0.00     0.016 C 
HETATM   14  C4  UNK     1      30.935 -10.308  30.381  1.00  0.00    -0.013 C 
HETATM   15  C7  UNK     1      30.036  -9.246  31.039  1.00  0.00     0.016 C 
ENDBRANCH   5   6
BRANCH   5  16
HETATM   16  C12 UNK     1      26.867  -7.708  30.338  1.00  0.00     0.021 C 
HETATM   17  C13 UNK     1      26.059  -6.439  30.096  1.00  0.00     0.007 C 
ENDBRANCH   5  16
ENDBRANCH   2   5
BRANCH   3  18
HETATM   18  C15 UNK     1      29.061  -6.411  34.166  1.00  0.00     0.108 A 
HETATM   19  C16 UNK     1      28.077  -6.993  34.861  1.00  0.00     0.037 A 
HETATM   20  C18 UNK     1      28.235  -7.247  36.285  1.00  0.00     0.001 A 
HETATM   21  C19 UNK     1      29.422  -6.877  36.907  1.00  0.00     0.089 A 
HETATM   22  C20 UNK     1      27.233  -7.851  37.048  1.00  0.00     0.038 A 
HETATM   23  O2  UNK     1      30.456  -6.265  36.170  1.00  0.00    -0.274 OA
HETATM   24  C21 UNK     1      29.637  -7.092  38.266  1.00  0.00     0.040 A 
HETATM   25  C17 UNK     1      30.334  -6.009  34.807  1.00  0.00     0.304 A 
HETATM   26  O3  UNK     1      31.239  -5.475  34.174  1.00  0.00    -0.259 OA
HETATM   27  C23 UNK     1      28.633  -7.695  39.021  1.00  0.00     0.026 A 
HETATM   28  C22 UNK     1      27.434  -8.075  38.413  1.00  0.00     0.035 A 
HETATM   29 Cl1  UNK     1      26.198  -8.820  39.352  1.00  0.00    -0.084 Cl
ENDBRANCH   3  18
TORSDOF 4
ENDMDL
MODEL 10
REMARK VINA RESULT:      -8.5     14.627     17.809
REMARK  4 active torsions:
REMARK  status: ('A' for Active; 'I' for Inactive)
REMARK    1  A    between atoms: C11_16  and  N1_5 
REMARK       I    between atoms: C14_19  and  N1_5 
REMARK    2  A    between atoms: C1_6  and  C11_16 
REMARK    3  A    between atoms: C11_16  and  C12_17 
REMARK    4  A    between atoms: C14_19  and  C15_20 
ROOT
HETATM    1  O1  UNK     1      29.219  -5.047  32.004  1.00  0.00    -0.267 OA
HETATM    2  N1  UNK     1      28.752  -7.331  31.974  1.00  0.00    -0.351 N 
HETATM    3  C14 UNK     1      29.143  -6.140  32.554  1.00  0.00     0.258 C 
HETATM    4  H19 UNK     1      28.668  -8.164  32.547  1.00  0.00     0.163 HD
ENDROOT
BRANCH   2   5
HETATM    5  C11 UNK     1      28.370  -7.438  30.587  1.00  0.00     0.093 C 
BRANCH   5   6
HETATM    6  C1  UNK     1      29.215  -8.516  29.904  1.00  0.00    -0.019 C 
HETATM    7  C5  UNK     1      28.314  -9.457  29.070  1.00  0.00     0.016 C 
HETATM    8  C2  UNK     1      29.161 -10.543  28.383  1.00  0.00    -0.013 C 
HETATM    9  C8  UNK     1      30.190  -9.872  27.459  1.00  0.00     0.009 C 
HETATM   10  C9  UNK     1      29.898 -11.362  29.454  1.00  0.00     0.009 C 
HETATM   11  C3  UNK     1      31.109  -8.947  28.276  1.00  0.00    -0.013 C 
HETATM   12  C10 UNK     1      31.837  -9.775  29.347  1.00  0.00     0.009 C 
HETATM   13  C6  UNK     1      30.257  -7.866  28.962  1.00  0.00     0.016 C 
HETATM   14  C4  UNK     1      30.816 -10.445  30.281  1.00  0.00    -0.013 C 
HETATM   15  C7  UNK     1      29.964  -9.359  30.963  1.00  0.00     0.016 C 
ENDBRANCH   5   6
BRANCH   5  16
HETATM   16  C12 UNK     1      26.876  -7.749  30.439  1.00  0.00     0.021 C 
HETATM   17  C13 UNK     1      26.048  -6.506  30.142  1.00  0.00     0.007 C 
ENDBRANCH   5  16
ENDBRANCH   2   5
BRANCH   3  18
HETATM   18  C15 UNK     1      29.482  -6.285  33.982  1.00  0.00     0.108 A 
HETATM   19  C16 UNK     1      30.774  -6.145  34.301  1.00  0.00     0.037 A 
HETATM   20  C18 UNK     1      31.206  -6.272  35.685  1.00  0.00     0.001 A 
HETATM   21  C19 UNK     1      30.255  -6.540  36.665  1.00  0.00     0.089 A 
HETATM   22  C20 UNK     1      32.543  -6.134  36.062  1.00  0.00     0.038 A 
HETATM   23  O2  UNK     1      28.896  -6.686  36.322  1.00  0.00    -0.274 OA
HETATM   24  C21 UNK     1      30.602  -6.673  38.007  1.00  0.00     0.040 A 
HETATM   25  C17 UNK     1      28.453  -6.570  35.008  1.00  0.00     0.304 A 
HETATM   26  O3  UNK     1      27.268  -6.699  34.720  1.00  0.00    -0.259 OA
HETATM   27  C23 UNK     1      31.939  -6.535  38.375  1.00  0.00     0.026 A 
HETATM   28  C22 UNK     1      32.907  -6.264  37.406  1.00  0.00     0.035 A 
HETATM   29 Cl1  UNK     1      34.557  -6.093  37.868  1.00  0.00    -0.084 Cl
ENDBRANCH   3  18
TORSDOF 4
ENDMDL
