MODEL 1
REMARK VINA RESULT:      -8.0      0.000      0.000
REMARK  5 active torsions:
REMARK  status: ('A' for Active; 'I' for Inactive)
REMARK    1  A    between atoms: C11_15  and  O2_2 
REMARK    2  A    between atoms: C18_22  and  O2_2 
REMARK    3  A    between atoms: C1_5  and  C4_8 
REMARK    4  A    between atoms: C4_8  and  C6_10 
REMARK    5  A    between atoms: C18_22  and  C19_23 
ROOT
HETATM    1  O1  UNK     1      18.191   3.916  33.516  1.00  0.00    -0.274 OA
HETATM    2  O3  UNK     1      17.816   5.840  34.660  1.00  0.00    -0.259 OA
HETATM    3  C1  UNK     1      18.173   6.060  32.315  1.00  0.00     0.029 A 
HETATM    4  C2  UNK     1      18.458   5.445  31.148  1.00  0.00    -0.036 A 
HETATM    5  C3  UNK     1      18.589   3.974  31.116  1.00  0.00     0.005 A 
HETATM    6  C5  UNK     1      18.452   3.260  32.302  1.00  0.00     0.093 A 
HETATM    7  C7  UNK     1      18.041   5.290  33.586  1.00  0.00     0.295 A 
HETATM    8  C8  UNK     1      18.672   6.177  29.846  1.00  0.00     0.050 C 
HETATM    9  C9  UNK     1      18.836   3.233  29.949  1.00  0.00     0.017 A 
HETATM   10  C10 UNK     1      18.562   1.868  32.361  1.00  0.00     0.075 A 
HETATM   11  C11 UNK     1      18.812   1.155  31.194  1.00  0.00     0.082 A 
HETATM   12  C12 UNK     1      18.949   1.838  29.988  1.00  0.00     0.038 A 
ENDROOT
BRANCH   3  13
HETATM   13  C4  UNK     1      17.951   7.542  32.477  1.00  0.00     0.084 C 
BRANCH  13  14
HETATM   14  C6  UNK     1      16.512   7.873  32.738  1.00  0.00    -0.054 A 
HETATM   15  C13 UNK     1      16.188   8.848  33.677  1.00  0.00     0.007 A 
HETATM   16  C15 UNK     1      14.850   9.155  33.921  1.00  0.00     0.001 A 
HETATM   17  C17 UNK     1      13.843   8.487  33.226  1.00  0.00     0.000 A 
HETATM   18  C16 UNK     1      14.174   7.511  32.286  1.00  0.00     0.001 A 
HETATM   19  C14 UNK     1      15.512   7.203  32.041  1.00  0.00     0.007 A 
ENDBRANCH  13  14
ENDBRANCH   3  13
BRANCH  11  20
HETATM   20  O2  UNK     1      18.922  -0.199  31.230  1.00  0.00    -0.279 OA
BRANCH  20  21
HETATM   21  C18 UNK     1      20.198  -0.688  30.887  1.00  0.00     0.263 C 
HETATM   22  O4  UNK     1      21.246  -0.358  31.425  1.00  0.00    -0.265 OA
BRANCH  21  23
HETATM   23  C19 UNK     1      20.069  -1.682  29.756  1.00  0.00     0.107 C 
HETATM   24  C20 UNK     1      19.966  -0.998  28.405  1.00  0.00     0.015 C 
ENDBRANCH  21  23
ENDBRANCH  20  21
ENDBRANCH  11  20
TORSDOF 5
ENDMDL
MODEL 2
REMARK VINA RESULT:      -7.9      1.354      2.090
REMARK  5 active torsions:
REMARK  status: ('A' for Active; 'I' for Inactive)
REMARK    1  A    between atoms: C11_15  and  O2_2 
REMARK    2  A    between atoms: C18_22  and  O2_2 
REMARK    3  A    between atoms: C1_5  and  C4_8 
REMARK    4  A    between atoms: C4_8  and  C6_10 
REMARK    5  A    between atoms: C18_22  and  C19_23 
ROOT
HETATM    1  O1  UNK     1      18.819   4.098  30.222  1.00  0.00    -0.274 OA
HETATM    2  O3  UNK     1      18.786   6.292  29.644  1.00  0.00    -0.259 OA
HETATM    3  C1  UNK     1      18.373   5.799  31.938  1.00  0.00     0.029 A 
HETATM    4  C2  UNK     1      18.217   4.850  32.884  1.00  0.00    -0.036 A 
HETATM    5  C3  UNK     1      18.400   3.429  32.523  1.00  0.00     0.005 A 
HETATM    6  C5  UNK     1      18.693   3.101  31.203  1.00  0.00     0.093 A 
HETATM    7  C7  UNK     1      18.675   5.441  30.521  1.00  0.00     0.295 A 
HETATM    8  C8  UNK     1      17.843   5.147  34.315  1.00  0.00     0.050 C 
HETATM    9  C9  UNK     1      18.307   2.369  33.439  1.00  0.00     0.017 A 
HETATM   10  C10 UNK     1      18.882   1.784  30.777  1.00  0.00     0.075 A 
HETATM   11  C11 UNK     1      18.779   0.749  31.700  1.00  0.00     0.082 A 
HETATM   12  C12 UNK     1      18.493   1.042  33.031  1.00  0.00     0.038 A 
ENDROOT
BRANCH   3  13
HETATM   13  C4  UNK     1      18.278   7.284  32.182  1.00  0.00     0.084 C 
BRANCH  13  14
HETATM   14  C6  UNK     1      16.896   7.703  32.586  1.00  0.00    -0.054 A 
HETATM   15  C13 UNK     1      16.728   8.629  33.610  1.00  0.00     0.007 A 
HETATM   16  C15 UNK     1      15.443   9.019  33.986  1.00  0.00     0.001 A 
HETATM   17  C17 UNK     1      14.333   8.481  33.336  1.00  0.00     0.000 A 
HETATM   18  C16 UNK     1      14.508   7.553  32.309  1.00  0.00     0.001 A 
HETATM   19  C14 UNK     1      15.793   7.163  31.933  1.00  0.00     0.007 A 
ENDBRANCH  13  14
ENDBRANCH   3  13
BRANCH  11  20
HETATM   20  O2  UNK     1      18.959  -0.539  31.307  1.00  0.00    -0.279 OA
BRANCH  20  21
HETATM   21  C18 UNK     1      20.270  -0.840  30.888  1.00  0.00     0.263 C 
HETATM   22  O4  UNK     1      21.290  -0.552  31.501  1.00  0.00    -0.265 OA
BRANCH  21  23
HETATM   23  C19 UNK     1      20.220  -1.576  29.569  1.00  0.00     0.107 C 
HETATM   24  C20 UNK     1      19.782  -0.674  28.429  1.00  0.00     0.015 C 
ENDBRANCH  21  23
ENDBRANCH  20  21
ENDBRANCH  11  20
TORSDOF 5
ENDMDL
MODEL 3
REMARK VINA RESULT:      -7.8     15.484     17.352
REMARK  5 active torsions:
REMARK  status: ('A' for Active; 'I' for Inactive)
REMARK    1  A    between atoms: C11_15  and  O2_2 
REMARK    2  A    between atoms: C18_22  and  O2_2 
REMARK    3  A    between atoms: C1_5  and  C4_8 
REMARK    4  A    between atoms: C4_8  and  C6_10 
REMARK    5  A    between atoms: C18_22  and  C19_23 
ROOT
HETATM    1  O1  UNK     1      28.416  -5.290  39.316  1.00  0.00    -0.274 OA
HETATM    2  O3  UNK     1      29.914  -3.619  39.654  1.00  0.00    -0.259 OA
HETATM    3  C1  UNK     1      30.059  -4.760  37.568  1.00  0.00     0.029 A 
HETATM    4  C2  UNK     1      29.590  -5.753  36.782  1.00  0.00    -0.036 A 
HETATM    5  C3  UNK     1      28.443  -6.562  37.243  1.00  0.00     0.005 A 
HETATM    6  C5  UNK     1      27.896  -6.303  38.495  1.00  0.00     0.093 A 
HETATM    7  C7  UNK     1      29.476  -4.496  38.916  1.00  0.00     0.295 A 
HETATM    8  C8  UNK     1      30.184  -6.112  35.443  1.00  0.00     0.050 C 
HETATM    9  C9  UNK     1      27.850  -7.585  36.485  1.00  0.00     0.017 A 
HETATM   10  C10 UNK     1      26.812  -7.020  39.007  1.00  0.00     0.075 A 
HETATM   11  C11 UNK     1      26.243  -8.033  38.242  1.00  0.00     0.082 A 
HETATM   12  C12 UNK     1      26.762  -8.315  36.981  1.00  0.00     0.038 A 
ENDROOT
BRANCH   3  13
HETATM   13  C4  UNK     1      31.178  -3.821  37.195  1.00  0.00     0.084 C 
BRANCH  13  14
HETATM   14  C6  UNK     1      32.482  -4.539  37.014  1.00  0.00    -0.054 A 
HETATM   15  C13 UNK     1      33.256  -4.288  35.886  1.00  0.00     0.007 A 
HETATM   16  C15 UNK     1      34.468  -4.956  35.716  1.00  0.00     0.001 A 
HETATM   17  C17 UNK     1      34.900  -5.871  36.677  1.00  0.00     0.000 A 
HETATM   18  C16 UNK     1      34.120  -6.117  37.806  1.00  0.00     0.001 A 
HETATM   19  C14 UNK     1      32.907  -5.450  37.975  1.00  0.00     0.007 A 
ENDBRANCH  13  14
ENDBRANCH   3  13
BRANCH  11  20
HETATM   20  O2  UNK     1      25.187  -8.742  38.721  1.00  0.00    -0.279 OA
BRANCH  20  21
HETATM   21  C18 UNK     1      23.930  -8.273  38.292  1.00  0.00     0.263 C 
HETATM   22  O4  UNK     1      23.481  -8.393  37.160  1.00  0.00    -0.265 OA
BRANCH  21  23
HETATM   23  C19 UNK     1      23.224  -7.602  39.448  1.00  0.00     0.107 C 
HETATM   24  C20 UNK     1      21.931  -8.308  39.813  1.00  0.00     0.015 C 
ENDBRANCH  21  23
ENDBRANCH  20  21
ENDBRANCH  11  20
TORSDOF 5
ENDMDL
MODEL 4
REMARK VINA RESULT:      -7.7     22.618     24.320
REMARK  5 active torsions:
REMARK  status: ('A' for Active; 'I' for Inactive)
REMARK    1  A    between atoms: C11_15  and  O2_2 
REMARK    2  A    between atoms: C18_22  and  O2_2 
REMARK    3  A    between atoms: C1_5  and  C4_8 
REMARK    4  A    between atoms: C4_8  and  C6_10 
REMARK    5  A    between atoms: C18_22  and  C19_23 
ROOT
HETATM    1  O1  UNK     1      16.005   6.544   9.765  1.00  0.00    -0.274 OA
HETATM    2  O3  UNK     1      14.887   4.571   9.682  1.00  0.00    -0.259 OA
HETATM    3  C1  UNK     1      13.548   6.541   9.744  1.00  0.00     0.029 A 
HETATM    4  C2  UNK     1      13.514   7.888   9.829  1.00  0.00    -0.036 A 
HETATM    5  C3  UNK     1      14.782   8.645   9.849  1.00  0.00     0.005 A 
HETATM    6  C5  UNK     1      15.985   7.947   9.818  1.00  0.00     0.093 A 
HETATM    7  C7  UNK     1      14.841   5.797   9.724  1.00  0.00     0.295 A 
HETATM    8  C8  UNK     1      12.239   8.688   9.923  1.00  0.00     0.050 C 
HETATM    9  C9  UNK     1      14.857  10.047   9.888  1.00  0.00     0.017 A 
HETATM   10  C10 UNK     1      17.227   8.585   9.834  1.00  0.00     0.075 A 
HETATM   11  C11 UNK     1      17.279   9.974   9.878  1.00  0.00     0.082 A 
HETATM   12  C12 UNK     1      16.094  10.705   9.905  1.00  0.00     0.038 A 
ENDROOT
BRANCH   3  13
HETATM   13  C4  UNK     1      12.334   5.652   9.651  1.00  0.00     0.084 C 
BRANCH  13  14
HETATM   14  C6  UNK     1      11.562   5.879   8.387  1.00  0.00    -0.054 A 
HETATM   15  C13 UNK     1      10.179   6.019   8.438  1.00  0.00     0.007 A 
HETATM   16  C15 UNK     1       9.460   6.229   7.262  1.00  0.00     0.001 A 
HETATM   17  C17 UNK     1      10.128   6.299   6.040  1.00  0.00     0.000 A 
HETATM   18  C16 UNK     1      11.515   6.158   5.995  1.00  0.00     0.001 A 
HETATM   19  C14 UNK     1      12.234   5.947   7.171  1.00  0.00     0.007 A 
ENDBRANCH  13  14
ENDBRANCH   3  13
BRANCH  11  20
HETATM   20  O2  UNK     1      18.478  10.614   9.894  1.00  0.00    -0.279 OA
BRANCH  20  21
HETATM   21  C18 UNK     1      18.529  11.771   9.092  1.00  0.00     0.263 C 
HETATM   22  O4  UNK     1      18.363  12.915   9.494  1.00  0.00    -0.265 OA
BRANCH  21  23
HETATM   23  C19 UNK     1      18.823  11.379   7.662  1.00  0.00     0.107 C 
HETATM   24  C20 UNK     1      18.128  12.291   6.667  1.00  0.00     0.015 C 
ENDBRANCH  21  23
ENDBRANCH  20  21
ENDBRANCH  11  20
TORSDOF 5
ENDMDL
MODEL 5
REMARK VINA RESULT:      -7.7     22.666     24.112
REMARK  5 active torsions:
REMARK  status: ('A' for Active; 'I' for Inactive)
REMARK    1  A    between atoms: C11_15  and  O2_2 
REMARK    2  A    between atoms: C18_22  and  O2_2 
REMARK    3  A    between atoms: C1_5  and  C4_8 
REMARK    4  A    between atoms: C4_8  and  C6_10 
REMARK    5  A    between atoms: C18_22  and  C19_23 
ROOT
HETATM    1  O1  UNK     1      10.103   5.353   7.822  1.00  0.00    -0.274 OA
HETATM    2  O3  UNK     1       7.856   5.141   7.582  1.00  0.00    -0.259 OA
HETATM    3  C1  UNK     1       8.621   7.139   8.629  1.00  0.00     0.029 A 
HETATM    4  C2  UNK     1       9.674   7.850   9.085  1.00  0.00    -0.036 A 
HETATM    5  C3  UNK     1      11.043   7.329   8.884  1.00  0.00     0.005 A 
HETATM    6  C5  UNK     1      11.209   6.097   8.261  1.00  0.00     0.093 A 
HETATM    7  C7  UNK     1       8.806   5.813   7.972  1.00  0.00     0.295 A 
HETATM    8  C8  UNK     1       9.545   9.162   9.819  1.00  0.00     0.050 C 
HETATM    9  C9  UNK     1      12.206   8.009   9.278  1.00  0.00     0.017 A 
HETATM   10  C10 UNK     1      12.466   5.532   8.032  1.00  0.00     0.075 A 
HETATM   11  C11 UNK     1      13.605   6.221   8.435  1.00  0.00     0.082 A 
HETATM   12  C12 UNK     1      13.475   7.459   9.058  1.00  0.00     0.038 A 
ENDROOT
BRANCH   3  13
HETATM   13  C4  UNK     1       7.182   7.582   8.710  1.00  0.00     0.084 C 
BRANCH  13  14
HETATM   14  C6  UNK     1       6.584   7.316  10.058  1.00  0.00    -0.054 A 
HETATM   15  C13 UNK     1       6.958   6.180  10.767  1.00  0.00     0.007 A 
HETATM   16  C15 UNK     1       6.402   5.932  12.021  1.00  0.00     0.001 A 
HETATM   17  C17 UNK     1       5.473   6.822  12.560  1.00  0.00     0.000 A 
HETATM   18  C16 UNK     1       5.101   7.960  11.844  1.00  0.00     0.001 A 
HETATM   19  C14 UNK     1       5.658   8.208  10.590  1.00  0.00     0.007 A 
ENDBRANCH  13  14
ENDBRANCH   3  13
BRANCH  11  20
HETATM   20  O2  UNK     1      14.838   5.689   8.222  1.00  0.00    -0.279 OA
BRANCH  20  21
HETATM   21  C18 UNK     1      15.528   5.331   9.397  1.00  0.00     0.263 C 
HETATM   22  O4  UNK     1      15.114   4.556  10.249  1.00  0.00    -0.265 OA
BRANCH  21  23
HETATM   23  C19 UNK     1      16.856   6.051   9.439  1.00  0.00     0.107 C 
HETATM   24  C20 UNK     1      16.839   7.225  10.402  1.00  0.00     0.015 C 
ENDBRANCH  21  23
ENDBRANCH  20  21
ENDBRANCH  11  20
TORSDOF 5
ENDMDL
MODEL 6
REMARK VINA RESULT:      -7.6     22.578     24.288
REMARK  5 active torsions:
REMARK  status: ('A' for Active; 'I' for Inactive)
REMARK    1  A    between atoms: C11_15  and  O2_2 
REMARK    2  A    between atoms: C18_22  and  O2_2 
REMARK    3  A    between atoms: C1_5  and  C4_8 
REMARK    4  A    between atoms: C4_8  and  C6_10 
REMARK    5  A    between atoms: C18_22  and  C19_23 
ROOT
HETATM    1  O1  UNK     1      13.180   9.332  10.116  1.00  0.00    -0.274 OA
HETATM    2  O3  UNK     1      11.085   8.483   9.917  1.00  0.00    -0.259 OA
HETATM    3  C1  UNK     1      12.879   6.942   9.631  1.00  0.00     0.029 A 
HETATM    4  C2  UNK     1      14.215   6.753   9.576  1.00  0.00    -0.036 A 
HETATM    5  C3  UNK     1      15.120   7.891   9.836  1.00  0.00     0.005 A 
HETATM    6  C5  UNK     1      14.571   9.143  10.096  1.00  0.00     0.093 A 
HETATM    7  C7  UNK     1      12.297   8.290   9.898  1.00  0.00     0.295 A 
HETATM    8  C8  UNK     1      14.860   5.431   9.242  1.00  0.00     0.050 C 
HETATM    9  C9  UNK     1      16.520   7.792   9.849  1.00  0.00     0.017 A 
HETATM   10  C10 UNK     1      15.354  10.271  10.351  1.00  0.00     0.075 A 
HETATM   11  C11 UNK     1      16.739  10.151  10.354  1.00  0.00     0.082 A 
HETATM   12  C12 UNK     1      17.322   8.912  10.104  1.00  0.00     0.038 A 
ENDROOT
BRANCH   3  13
HETATM   13  C4  UNK     1      11.847   5.859   9.450  1.00  0.00     0.084 C 
BRANCH  13  14
HETATM   14  C6  UNK     1      11.109   5.992   8.152  1.00  0.00    -0.054 A 
HETATM   15  C13 UNK     1       9.718   6.011   8.148  1.00  0.00     0.007 A 
HETATM   16  C15 UNK     1       9.031   6.134   6.941  1.00  0.00     0.001 A 
HETATM   17  C17 UNK     1       9.739   6.237   5.743  1.00  0.00     0.000 A 
HETATM   18  C16 UNK     1      11.134   6.218   5.754  1.00  0.00     0.001 A 
HETATM   19  C14 UNK     1      11.820   6.095   6.961  1.00  0.00     0.007 A 
ENDBRANCH  13  14
ENDBRANCH   3  13
BRANCH  11  20
HETATM   20  O2  UNK     1      17.520  11.237  10.601  1.00  0.00    -0.279 OA
BRANCH  20  21
HETATM   21  C18 UNK     1      18.561  11.426   9.672  1.00  0.00     0.263 C 
HETATM   22  O4  UNK     1      19.746  11.208   9.887  1.00  0.00    -0.265 OA
BRANCH  21  23
HETATM   23  C19 UNK     1      17.987  11.937   8.370  1.00  0.00     0.107 C 
HETATM   24  C20 UNK     1      18.950  11.751   7.211  1.00  0.00     0.015 C 
ENDBRANCH  21  23
ENDBRANCH  20  21
ENDBRANCH  11  20
TORSDOF 5
ENDMDL
MODEL 7
REMARK VINA RESULT:      -7.5     22.155     23.922
REMARK  5 active torsions:
REMARK  status: ('A' for Active; 'I' for Inactive)
REMARK    1  A    between atoms: C11_15  and  O2_2 
REMARK    2  A    between atoms: C18_22  and  O2_2 
REMARK    3  A    between atoms: C1_5  and  C4_8 
REMARK    4  A    between atoms: C4_8  and  C6_10 
REMARK    5  A    between atoms: C18_22  and  C19_23 
ROOT
HETATM    1  O1  UNK     1      12.416   8.283  10.355  1.00  0.00    -0.274 OA
HETATM    2  O3  UNK     1      13.439   9.759  11.742  1.00  0.00    -0.259 OA
HETATM    3  C1  UNK     1      14.841   8.129  10.717  1.00  0.00     0.029 A 
HETATM    4  C2  UNK     1      14.925   7.047   9.913  1.00  0.00    -0.036 A 
HETATM    5  C3  UNK     1      13.707   6.546   9.243  1.00  0.00     0.005 A 
HETATM    6  C5  UNK     1      12.494   7.181   9.488  1.00  0.00     0.093 A 
HETATM    7  C7  UNK     1      13.535   8.797  10.986  1.00  0.00     0.295 A 
HETATM    8  C8  UNK     1      16.204   6.289   9.659  1.00  0.00     0.050 C 
HETATM    9  C9  UNK     1      13.692   5.461   8.353  1.00  0.00     0.017 A 
HETATM   10  C10 UNK     1      11.296   6.771   8.897  1.00  0.00     0.075 A 
HETATM   11  C11 UNK     1      11.303   5.690   8.022  1.00  0.00     0.082 A 
HETATM   12  C12 UNK     1      12.501   5.036   7.750  1.00  0.00     0.038 A 
ENDROOT
BRANCH   3  13
HETATM   13  C4  UNK     1      16.012   8.780  11.409  1.00  0.00     0.084 C 
BRANCH  13  14
HETATM   14  C6  UNK     1      16.570   9.926  10.620  1.00  0.00    -0.054 A 
HETATM   15  C13 UNK     1      16.382  11.229  11.069  1.00  0.00     0.007 A 
HETATM   16  C15 UNK     1      16.900  12.295  10.334  1.00  0.00     0.001 A 
HETATM   17  C17 UNK     1      17.603  12.053   9.154  1.00  0.00     0.000 A 
HETATM   18  C16 UNK     1      17.788  10.744   8.709  1.00  0.00     0.001 A 
HETATM   19  C14 UNK     1      17.270   9.678   9.443  1.00  0.00     0.007 A 
ENDBRANCH  13  14
ENDBRANCH   3  13
BRANCH  11  20
HETATM   20  O2  UNK     1      10.149   5.276   7.436  1.00  0.00    -0.279 OA
BRANCH  20  21
HETATM   21  C18 UNK     1       9.532   6.245   6.620  1.00  0.00     0.263 C 
HETATM   22  O4  UNK     1      10.035   6.753   5.626  1.00  0.00    -0.265 OA
BRANCH  21  23
HETATM   23  C19 UNK     1       8.156   6.556   7.161  1.00  0.00     0.107 C 
HETATM   24  C20 UNK     1       7.812   5.702   8.368  1.00  0.00     0.015 C 
ENDBRANCH  21  23
ENDBRANCH  20  21
ENDBRANCH  11  20
TORSDOF 5
ENDMDL
MODEL 8
REMARK VINA RESULT:      -7.5     15.578     19.182
REMARK  5 active torsions:
REMARK  status: ('A' for Active; 'I' for Inactive)
REMARK    1  A    between atoms: C11_15  and  O2_2 
REMARK    2  A    between atoms: C18_22  and  O2_2 
REMARK    3  A    between atoms: C1_5  and  C4_8 
REMARK    4  A    between atoms: C4_8  and  C6_10 
REMARK    5  A    between atoms: C18_22  and  C19_23 
ROOT
HETATM    1  O1  UNK     1      32.295  -7.068  38.105  1.00  0.00    -0.274 OA
HETATM    2  O3  UNK     1      34.384  -7.668  37.452  1.00  0.00    -0.259 OA
HETATM    3  C1  UNK     1      33.659  -5.492  36.804  1.00  0.00     0.029 A 
HETATM    4  C2  UNK     1      32.661  -4.583  36.799  1.00  0.00    -0.036 A 
HETATM    5  C3  UNK     1      31.402  -4.885  37.510  1.00  0.00     0.005 A 
HETATM    6  C5  UNK     1      31.261  -6.118  38.138  1.00  0.00     0.093 A 
HETATM    7  C7  UNK     1      33.497  -6.819  37.468  1.00  0.00     0.295 A 
HETATM    8  C8  UNK     1      32.741  -3.256  36.086  1.00  0.00     0.050 C 
HETATM    9  C9  UNK     1      30.322  -3.992  37.606  1.00  0.00     0.017 A 
HETATM   10  C10 UNK     1      30.105  -6.484  38.831  1.00  0.00     0.075 A 
HETATM   11  C11 UNK     1      29.045  -5.586  38.909  1.00  0.00     0.082 A 
HETATM   12  C12 UNK     1      29.155  -4.341  38.297  1.00  0.00     0.038 A 
ENDROOT
BRANCH   3  13
HETATM   13  C4  UNK     1      35.014  -5.289  36.175  1.00  0.00     0.084 C 
BRANCH  13  14
HETATM   14  C6  UNK     1      35.191  -6.112  34.935  1.00  0.00    -0.054 A 
HETATM   15  C13 UNK     1      34.175  -6.157  33.985  1.00  0.00     0.007 A 
HETATM   16  C15 UNK     1      34.339  -6.923  32.832  1.00  0.00     0.001 A 
HETATM   17  C17 UNK     1      35.519  -7.640  32.634  1.00  0.00     0.000 A 
HETATM   18  C16 UNK     1      36.534  -7.591  33.589  1.00  0.00     0.001 A 
HETATM   19  C14 UNK     1      36.370  -6.826  34.743  1.00  0.00     0.007 A 
ENDBRANCH  13  14
ENDBRANCH   3  13
BRANCH  11  20
HETATM   20  O2  UNK     1      27.911  -5.922  39.579  1.00  0.00    -0.279 OA
BRANCH  20  21
HETATM   21  C18 UNK     1      26.771  -6.050  38.762  1.00  0.00     0.263 C 
HETATM   22  O4  UNK     1      25.980  -5.151  38.510  1.00  0.00    -0.265 OA
BRANCH  21  23
HETATM   23  C19 UNK     1      26.679  -7.468  38.245  1.00  0.00     0.107 C 
HETATM   24  C20 UNK     1      26.983  -8.490  39.326  1.00  0.00     0.015 C 
ENDBRANCH  21  23
ENDBRANCH  20  21
ENDBRANCH  11  20
TORSDOF 5
ENDMDL
MODEL 9
REMARK VINA RESULT:      -7.5     17.260     19.657
REMARK  5 active torsions:
REMARK  status: ('A' for Active; 'I' for Inactive)
REMARK    1  A    between atoms: C11_15  and  O2_2 
REMARK    2  A    between atoms: C18_22  and  O2_2 
REMARK    3  A    between atoms: C1_5  and  C4_8 
REMARK    4  A    between atoms: C4_8  and  C6_10 
REMARK    5  A    between atoms: C18_22  and  C19_23 
ROOT
HETATM    1  O1  UNK     1      32.884  -9.192  34.708  1.00  0.00    -0.274 OA
HETATM    2  O3  UNK     1      31.709  -9.798  36.553  1.00  0.00    -0.259 OA
HETATM    3  C1  UNK     1      33.129  -7.899  36.783  1.00  0.00     0.029 A 
HETATM    4  C2  UNK     1      34.037  -7.084  36.206  1.00  0.00    -0.036 A 
HETATM    5  C3  UNK     1      34.390  -7.282  34.785  1.00  0.00     0.005 A 
HETATM    6  C5  UNK     1      33.802  -8.331  34.085  1.00  0.00     0.093 A 
HETATM    7  C7  UNK     1      32.511  -9.029  36.031  1.00  0.00     0.295 A 
HETATM    8  C8  UNK     1      34.746  -5.970  36.936  1.00  0.00     0.050 C 
HETATM    9  C9  UNK     1      35.285  -6.464  34.078  1.00  0.00     0.017 A 
HETATM   10  C10 UNK     1      34.079  -8.588  32.741  1.00  0.00     0.075 A 
HETATM   11  C11 UNK     1      34.974  -7.769  32.061  1.00  0.00     0.082 A 
HETATM   12  C12 UNK     1      35.576  -6.707  32.730  1.00  0.00     0.038 A 
ENDROOT
BRANCH   3  13
HETATM   13  C4  UNK     1      32.632  -7.769  38.201  1.00  0.00     0.084 C 
BRANCH  13  14
HETATM   14  C6  UNK     1      31.464  -6.836  38.309  1.00  0.00    -0.054 A 
HETATM   15  C13 UNK     1      31.683  -5.468  38.437  1.00  0.00     0.007 A 
HETATM   16  C15 UNK     1      30.597  -4.600  38.537  1.00  0.00     0.001 A 
HETATM   17  C17 UNK     1      29.297  -5.104  38.509  1.00  0.00     0.000 A 
HETATM   18  C16 UNK     1      29.083  -6.476  38.381  1.00  0.00     0.001 A 
HETATM   19  C14 UNK     1      30.169  -7.345  38.280  1.00  0.00     0.007 A 
ENDBRANCH  13  14
ENDBRANCH   3  13
BRANCH  11  20
HETATM   20  O2  UNK     1      35.257  -8.002  30.752  1.00  0.00    -0.279 OA
BRANCH  20  21
HETATM   21  C18 UNK     1      34.861  -6.970  29.880  1.00  0.00     0.263 C 
HETATM   22  O4  UNK     1      35.605  -6.120  29.410  1.00  0.00    -0.265 OA
BRANCH  21  23
HETATM   23  C19 UNK     1      33.377  -7.079  29.613  1.00  0.00     0.107 C 
HETATM   24  C20 UNK     1      33.024  -8.356  28.872  1.00  0.00     0.015 C 
ENDBRANCH  21  23
ENDBRANCH  20  21
ENDBRANCH  11  20
TORSDOF 5
ENDMDL
MODEL 10
REMARK VINA RESULT:      -7.5     22.582     24.399
REMARK  5 active torsions:
REMARK  status: ('A' for Active; 'I' for Inactive)
REMARK    1  A    between atoms: C11_15  and  O2_2 
REMARK    2  A    between atoms: C18_22  and  O2_2 
REMARK    3  A    between atoms: C1_5  and  C4_8 
REMARK    4  A    between atoms: C4_8  and  C6_10 
REMARK    5  A    between atoms: C18_22  and  C19_23 
ROOT
HETATM    1  O1  UNK     1      13.058   9.535   9.474  1.00  0.00    -0.274 OA
HETATM    2  O3  UNK     1      13.874  11.474  10.324  1.00  0.00    -0.259 OA
HETATM    3  C1  UNK     1      15.404   9.653  10.194  1.00  0.00     0.029 A 
HETATM    4  C2  UNK     1      15.600   8.355   9.878  1.00  0.00    -0.036 A 
HETATM    5  C3  UNK     1      14.491   7.577   9.289  1.00  0.00     0.005 A 
HETATM    6  C5  UNK     1      13.257   8.194   9.108  1.00  0.00     0.093 A 
HETATM    7  C7  UNK     1      14.075  10.305  10.010  1.00  0.00     0.295 A 
HETATM    8  C8  UNK     1      16.899   7.624  10.108  1.00  0.00     0.050 C 
HETATM    9  C9  UNK     1      14.602   6.238   8.882  1.00  0.00     0.017 A 
HETATM   10  C10 UNK     1      12.157   7.532   8.559  1.00  0.00     0.075 A 
HETATM   11  C11 UNK     1      12.287   6.204   8.168  1.00  0.00     0.082 A 
HETATM   12  C12 UNK     1      13.510   5.557   8.329  1.00  0.00     0.038 A 
ENDROOT
BRANCH   3  13
HETATM   13  C4  UNK     1      16.464  10.576  10.741  1.00  0.00     0.084 C 
BRANCH  13  14
HETATM   14  C6  UNK     1      17.351  11.121   9.662  1.00  0.00    -0.054 A 
HETATM   15  C13 UNK     1      16.820  11.395   8.406  1.00  0.00     0.007 A 
HETATM   16  C15 UNK     1      17.645  11.901   7.402  1.00  0.00     0.001 A 
HETATM   17  C17 UNK     1      18.996  12.131   7.660  1.00  0.00     0.000 A 
HETATM   18  C16 UNK     1      19.522  11.855   8.922  1.00  0.00     0.001 A 
HETATM   19  C14 UNK     1      18.698  11.349   9.926  1.00  0.00     0.007 A 
ENDBRANCH  13  14
ENDBRANCH   3  13
BRANCH  11  20
HETATM   20  O2  UNK     1      11.229   5.541   7.630  1.00  0.00    -0.279 OA
BRANCH  20  21
HETATM   21  C18 UNK     1      10.864   5.978   6.342  1.00  0.00     0.263 C 
HETATM   22  O4  UNK     1      11.646   6.231   5.435  1.00  0.00    -0.265 OA
BRANCH  21  23
HETATM   23  C19 UNK     1       9.359   6.082   6.254  1.00  0.00     0.107 C 
HETATM   24  C20 UNK     1       8.701   6.004   7.620  1.00  0.00     0.015 C 
ENDBRANCH  21  23
ENDBRANCH  20  21
ENDBRANCH  11  20
TORSDOF 5
ENDMDL
