MODEL 1
REMARK VINA RESULT:      -8.7      0.000      0.000
REMARK  7 active torsions:
REMARK  status: ('A' for Active; 'I' for Inactive)
REMARK    1  A    between atoms: C21_28  and  O2_2 
REMARK    2  A    between atoms: C6_13  and  O2_2 
REMARK    3  A    between atoms: C22_29  and  O6_6 
REMARK    4  A    between atoms: C1_8  and  C2_9 
REMARK    5  A    between atoms: C2_9  and  C8_15 
REMARK    6  A    between atoms: C10_17  and  C7_14 
REMARK    7  A    between atoms: C21_28  and  C22_29 
ROOT
HETATM    1  O1  UNK     1      18.266  -1.165  36.545  1.00  0.00    -0.321 OA
HETATM    2  O5  UNK     1      20.472  -3.584  34.109  1.00  0.00    -0.286 OA
HETATM    3  C1  UNK     1      18.981   0.078  32.642  1.00  0.00    -0.024 A 
HETATM    4  C3  UNK     1      19.281  -1.572  34.378  1.00  0.00     0.049 A 
HETATM    5  C4  UNK     1      19.512  -1.140  33.069  1.00  0.00     0.028 A 
HETATM    6  C5  UNK     1      18.525  -0.791  35.252  1.00  0.00     0.091 A 
HETATM    7  C6  UNK     1      18.223   0.859  33.516  1.00  0.00     0.078 A 
HETATM    8  C7  UNK     1      19.541  -3.215  36.269  1.00  0.00     0.048 A 
HETATM    9  C9  UNK     1      19.828  -2.855  34.853  1.00  0.00     0.197 A 
HETATM   10  C11 UNK     1      17.995   0.426  34.822  1.00  0.00     0.075 A 
HETATM   11  C14 UNK     1      18.799  -2.354  36.983  1.00  0.00     0.159 A 
ENDROOT
BRANCH   8  12
HETATM   12  C10 UNK     1      20.060  -4.449  36.880  1.00  0.00    -0.017 A 
HETATM   13  C13 UNK     1      21.313  -4.451  37.492  1.00  0.00     0.052 A 
HETATM   14  C12 UNK     1      21.798  -5.620  38.077  1.00  0.00     0.102 A 
HETATM   15  O3  UNK     1      23.028  -5.553  38.680  1.00  0.00    -0.346 OA
HETATM   16  C15 UNK     1      21.044  -6.794  38.024  1.00  0.00     0.102 A 
HETATM   17  C19 UNK     1      23.267  -6.679  39.529  1.00  0.00     0.202 C 
HETATM   18  C20 UNK     1      22.884  -7.963  38.820  1.00  0.00     0.202 C 
HETATM   19  O4  UNK     1      21.480  -7.982  38.552  1.00  0.00    -0.346 OA
HETATM   20  C18 UNK     1      19.784  -6.789  37.426  1.00  0.00     0.040 A 
HETATM   21  C16 UNK     1      19.293  -5.615  36.852  1.00  0.00     0.015 A 
ENDBRANCH   8  12
BRANCH   3  22
HETATM   22  C2  UNK     1      19.234   0.532  31.242  1.00  0.00     0.041 C 
BRANCH  22  23
HETATM   23  C8  UNK     1      20.498  -0.103  30.647  1.00  0.00     0.000 C 
HETATM   24  C17 UNK     1      20.352  -0.366  29.157  1.00  0.00     0.005 C 
ENDBRANCH  22  23
ENDBRANCH   3  22
BRANCH   7  25
HETATM   25  O2  UNK     1      17.698   2.049  33.109  1.00  0.00    -0.341 OA
BRANCH  25  26
HETATM   26  C21 UNK     1      18.180   3.225  33.757  1.00  0.00     0.286 C 
BRANCH  26  27
HETATM   27  C22 UNK     1      18.172   4.363  32.770  1.00  0.00     0.282 C 
HETATM   28  O7  UNK     1      18.372   5.536  33.052  1.00  0.00    -0.263 OA
BRANCH  27  29
HETATM   29  O6  UNK     1      17.911   3.869  31.524  1.00  0.00    -0.325 OA
HETATM   30  C23 UNK     1      18.872   4.199  30.517  1.00  0.00     0.213 C 
ENDBRANCH  27  29
ENDBRANCH  26  27
ENDBRANCH  25  26
ENDBRANCH   7  25
TORSDOF 7
ENDMDL
MODEL 2
REMARK VINA RESULT:      -8.5      5.297     11.937
REMARK  7 active torsions:
REMARK  status: ('A' for Active; 'I' for Inactive)
REMARK    1  A    between atoms: C21_28  and  O2_2 
REMARK    2  A    between atoms: C6_13  and  O2_2 
REMARK    3  A    between atoms: C22_29  and  O6_6 
REMARK    4  A    between atoms: C1_8  and  C2_9 
REMARK    5  A    between atoms: C2_9  and  C8_15 
REMARK    6  A    between atoms: C10_17  and  C7_14 
REMARK    7  A    between atoms: C21_28  and  C22_29 
ROOT
HETATM    1  O1  UNK     1      18.302   5.654  30.718  1.00  0.00    -0.321 OA
HETATM    2  O5  UNK     1      17.548   5.949  34.717  1.00  0.00    -0.286 OA
HETATM    3  C1  UNK     1      18.286   2.172  32.990  1.00  0.00    -0.024 A 
HETATM    4  C3  UNK     1      18.048   4.571  32.875  1.00  0.00     0.049 A 
HETATM    5  C4  UNK     1      18.045   3.391  33.625  1.00  0.00     0.028 A 
HETATM    6  C5  UNK     1      18.289   4.530  31.502  1.00  0.00     0.091 A 
HETATM    7  C6  UNK     1      18.526   2.130  31.616  1.00  0.00     0.078 A 
HETATM    8  C7  UNK     1      17.837   7.069  32.637  1.00  0.00     0.048 A 
HETATM    9  C9  UNK     1      17.793   5.872  33.520  1.00  0.00     0.197 A 
HETATM   10  C11 UNK     1      18.528   3.309  30.870  1.00  0.00     0.075 A 
HETATM   11  C14 UNK     1      18.084   6.864  31.334  1.00  0.00     0.159 A 
ENDROOT
BRANCH   8  12
HETATM   12  C10 UNK     1      17.638   8.431  33.160  1.00  0.00    -0.017 A 
HETATM   13  C13 UNK     1      16.359   8.985  33.195  1.00  0.00     0.052 A 
HETATM   14  C12 UNK     1      16.174  10.272  33.698  1.00  0.00     0.102 A 
HETATM   15  O3  UNK     1      14.890  10.754  33.725  1.00  0.00    -0.346 OA
HETATM   16  C15 UNK     1      17.271  11.017  34.137  1.00  0.00     0.102 A 
HETATM   17  C19 UNK     1      14.772  11.909  34.560  1.00  0.00     0.202 C 
HETATM   18  C20 UNK     1      15.898  12.883  34.273  1.00  0.00     0.202 C 
HETATM   19  O4  UNK     1      17.158  12.298  34.611  1.00  0.00    -0.346 OA
HETATM   20  C18 UNK     1      18.549  10.457  34.116  1.00  0.00     0.040 A 
HETATM   21  C16 UNK     1      18.731   9.164  33.624  1.00  0.00     0.015 A 
ENDBRANCH   8  12
BRANCH   3  22
HETATM   22  C2  UNK     1      18.283   0.917  33.800  1.00  0.00     0.041 C 
BRANCH  22  23
HETATM   23  C8  UNK     1      17.426   1.048  35.067  1.00  0.00     0.000 C 
HETATM   24  C17 UNK     1      16.164   0.204  34.986  1.00  0.00     0.005 C 
ENDBRANCH  22  23
ENDBRANCH   3  22
BRANCH   7  25
HETATM   25  O2  UNK     1      18.760   0.945  30.986  1.00  0.00    -0.341 OA
BRANCH  25  26
HETATM   26  C21 UNK     1      19.579   0.982  29.819  1.00  0.00     0.286 C 
BRANCH  26  27
HETATM   27  C22 UNK     1      20.544  -0.172  29.863  1.00  0.00     0.282 C 
HETATM   28  O7  UNK     1      20.929  -0.802  28.887  1.00  0.00    -0.263 OA
BRANCH  27  29
HETATM   29  O6  UNK     1      20.914  -0.392  31.159  1.00  0.00    -0.325 OA
HETATM   30  C23 UNK     1      20.722  -1.728  31.635  1.00  0.00     0.213 C 
ENDBRANCH  27  29
ENDBRANCH  26  27
ENDBRANCH  25  26
ENDBRANCH   7  25
TORSDOF 7
ENDMDL
MODEL 3
REMARK VINA RESULT:      -8.3      5.765     12.071
REMARK  7 active torsions:
REMARK  status: ('A' for Active; 'I' for Inactive)
REMARK    1  A    between atoms: C21_28  and  O2_2 
REMARK    2  A    between atoms: C6_13  and  O2_2 
REMARK    3  A    between atoms: C22_29  and  O6_6 
REMARK    4  A    between atoms: C1_8  and  C2_9 
REMARK    5  A    between atoms: C2_9  and  C8_15 
REMARK    6  A    between atoms: C10_17  and  C7_14 
REMARK    7  A    between atoms: C21_28  and  C22_29 
ROOT
HETATM    1  O1  UNK     1      18.215   6.159  30.628  1.00  0.00    -0.321 OA
HETATM    2  O5  UNK     1      17.093   6.213  34.551  1.00  0.00    -0.286 OA
HETATM    3  C1  UNK     1      18.344   2.598  32.772  1.00  0.00    -0.024 A 
HETATM    4  C3  UNK     1      17.883   4.967  32.716  1.00  0.00     0.049 A 
HETATM    5  C4  UNK     1      17.931   3.762  33.423  1.00  0.00     0.028 A 
HETATM    6  C5  UNK     1      18.244   5.006  31.370  1.00  0.00     0.091 A 
HETATM    7  C6  UNK     1      18.705   2.637  31.425  1.00  0.00     0.078 A 
HETATM    8  C7  UNK     1      17.449   7.442  32.543  1.00  0.00     0.048 A 
HETATM    9  C9  UNK     1      17.447   6.210  33.378  1.00  0.00     0.197 A 
HETATM   10  C11 UNK     1      18.656   3.841  30.722  1.00  0.00     0.075 A 
HETATM   11  C14 UNK     1      17.827   7.315  31.262  1.00  0.00     0.159 A 
ENDROOT
BRANCH   8  12
HETATM   12  C10 UNK     1      17.073   8.756  33.090  1.00  0.00    -0.017 A 
HETATM   13  C13 UNK     1      18.055   9.606  33.598  1.00  0.00     0.052 A 
HETATM   14  C12 UNK     1      17.697  10.853  34.109  1.00  0.00     0.102 A 
HETATM   15  O3  UNK     1      18.709  11.651  34.576  1.00  0.00    -0.346 OA
HETATM   16  C15 UNK     1      16.354  11.237  34.140  1.00  0.00     0.102 A 
HETATM   17  C19 UNK     1      18.284  13.006  34.745  1.00  0.00     0.202 C 
HETATM   18  C20 UNK     1      16.947  13.052  35.460  1.00  0.00     0.202 C 
HETATM   19  O4  UNK     1      15.936  12.435  34.659  1.00  0.00    -0.346 OA
HETATM   20  C18 UNK     1      15.373  10.393  33.619  1.00  0.00     0.040 A 
HETATM   21  C16 UNK     1      15.735   9.151  33.095  1.00  0.00     0.015 A 
ENDBRANCH   8  12
BRANCH   3  22
HETATM   22  C2  UNK     1      18.394   1.316  33.537  1.00  0.00     0.041 C 
BRANCH  22  23
HETATM   23  C8  UNK     1      17.887   1.480  34.975  1.00  0.00     0.000 C 
HETATM   24  C17 UNK     1      19.032   1.561  35.973  1.00  0.00     0.005 C 
ENDBRANCH  22  23
ENDBRANCH   3  22
BRANCH   7  25
HETATM   25  O2  UNK     1      19.109   1.507  30.780  1.00  0.00    -0.341 OA
BRANCH  25  26
HETATM   26  C21 UNK     1      19.003   1.500  29.357  1.00  0.00     0.286 C 
BRANCH  26  27
HETATM   27  C22 UNK     1      19.511   0.182  28.837  1.00  0.00     0.282 C 
HETATM   28  O7  UNK     1      19.214  -0.306  27.755  1.00  0.00    -0.263 OA
BRANCH  27  29
HETATM   29  O6  UNK     1      20.351  -0.368  29.764  1.00  0.00    -0.325 OA
HETATM   30  C23 UNK     1      20.400  -1.798  29.778  1.00  0.00     0.213 C 
ENDBRANCH  27  29
ENDBRANCH  26  27
ENDBRANCH  25  26
ENDBRANCH   7  25
TORSDOF 7
ENDMDL
MODEL 4
REMARK VINA RESULT:      -8.2      8.442     12.146
REMARK  7 active torsions:
REMARK  status: ('A' for Active; 'I' for Inactive)
REMARK    1  A    between atoms: C21_28  and  O2_2 
REMARK    2  A    between atoms: C6_13  and  O2_2 
REMARK    3  A    between atoms: C22_29  and  O6_6 
REMARK    4  A    between atoms: C1_8  and  C2_9 
REMARK    5  A    between atoms: C2_9  and  C8_15 
REMARK    6  A    between atoms: C10_17  and  C7_14 
REMARK    7  A    between atoms: C21_28  and  C22_29 
ROOT
HETATM    1  O1  UNK     1      27.327  -8.988  38.671  1.00  0.00    -0.321 OA
HETATM    2  O5  UNK     1      25.322  -5.435  38.751  1.00  0.00    -0.286 OA
HETATM    3  C1  UNK     1      29.539  -5.467  38.646  1.00  0.00    -0.024 A 
HETATM    4  C3  UNK     1      27.388  -6.561  38.678  1.00  0.00     0.049 A 
HETATM    5  C4  UNK     1      28.146  -5.387  38.670  1.00  0.00     0.028 A 
HETATM    6  C5  UNK     1      28.019  -7.805  38.662  1.00  0.00     0.091 A 
HETATM    7  C6  UNK     1      30.171  -6.711  38.631  1.00  0.00     0.078 A 
HETATM    8  C7  UNK     1      25.202  -7.812  38.694  1.00  0.00     0.048 A 
HETATM    9  C9  UNK     1      25.915  -6.505  38.707  1.00  0.00     0.197 A 
HETATM   10  C11 UNK     1      29.412  -7.881  38.639  1.00  0.00     0.075 A 
HETATM   11  C14 UNK     1      25.954  -8.923  38.676  1.00  0.00     0.159 A 
ENDROOT
BRANCH   8  12
HETATM   12  C10 UNK     1      23.732  -7.897  38.682  1.00  0.00    -0.017 A 
HETATM   13  C13 UNK     1      23.075  -8.429  37.573  1.00  0.00     0.052 A 
HETATM   14  C12 UNK     1      21.683  -8.516  37.567  1.00  0.00     0.102 A 
HETATM   15  O3  UNK     1      21.095  -9.067  36.458  1.00  0.00    -0.346 OA
HETATM   16  C15 UNK     1      20.947  -8.043  38.657  1.00  0.00     0.102 A 
HETATM   17  C19 UNK     1      19.731  -9.421  36.698  1.00  0.00     0.202 C 
HETATM   18  C20 UNK     1      19.010  -8.289  37.403  1.00  0.00     0.202 C 
HETATM   19  O4  UNK     1      19.577  -8.071  38.697  1.00  0.00    -0.346 OA
HETATM   20  C18 UNK     1      21.606  -7.524  39.772  1.00  0.00     0.040 A 
HETATM   21  C16 UNK     1      23.000  -7.450  39.782  1.00  0.00     0.015 A 
ENDBRANCH   8  12
BRANCH   3  22
HETATM   22  C2  UNK     1      30.340  -4.206  38.636  1.00  0.00     0.041 C 
BRANCH  22  23
HETATM   23  C8  UNK     1      30.540  -3.658  37.217  1.00  0.00     0.000 C 
HETATM   24  C17 UNK     1      31.988  -3.765  36.768  1.00  0.00     0.005 C 
ENDBRANCH  22  23
ENDBRANCH   3  22
BRANCH   7  25
HETATM   25  O2  UNK     1      31.531  -6.800  38.609  1.00  0.00    -0.341 OA
BRANCH  25  26
HETATM   26  C21 UNK     1      32.091  -8.060  38.246  1.00  0.00     0.286 C 
BRANCH  26  27
HETATM   27  C22 UNK     1      33.188  -7.833  37.239  1.00  0.00     0.282 C 
HETATM   28  O7  UNK     1      33.221  -8.319  36.116  1.00  0.00    -0.263 OA
BRANCH  27  29
HETATM   29  O6  UNK     1      34.127  -7.005  37.784  1.00  0.00    -0.325 OA
HETATM   30  C23 UNK     1      34.842  -6.188  36.852  1.00  0.00     0.213 C 
ENDBRANCH  27  29
ENDBRANCH  26  27
ENDBRANCH  25  26
ENDBRANCH   7  25
TORSDOF 7
ENDMDL
MODEL 5
REMARK VINA RESULT:      -8.1      3.400     10.680
REMARK  7 active torsions:
REMARK  status: ('A' for Active; 'I' for Inactive)
REMARK    1  A    between atoms: C21_28  and  O2_2 
REMARK    2  A    between atoms: C6_13  and  O2_2 
REMARK    3  A    between atoms: C22_29  and  O6_6 
REMARK    4  A    between atoms: C1_8  and  C2_9 
REMARK    5  A    between atoms: C2_9  and  C8_15 
REMARK    6  A    between atoms: C10_17  and  C7_14 
REMARK    7  A    between atoms: C21_28  and  C22_29 
ROOT
HETATM    1  O1  UNK     1      18.143   2.971  34.169  1.00  0.00    -0.321 OA
HETATM    2  O5  UNK     1      18.304   5.107  30.696  1.00  0.00    -0.286 OA
HETATM    3  C1  UNK     1      19.033   0.953  30.644  1.00  0.00    -0.024 A 
HETATM    4  C3  UNK     1      18.490   3.019  31.767  1.00  0.00     0.049 A 
HETATM    5  C4  UNK     1      18.791   2.326  30.591  1.00  0.00     0.028 A 
HETATM    6  C5  UNK     1      18.432   2.343  32.985  1.00  0.00     0.091 A 
HETATM    7  C6  UNK     1      18.976   0.276  31.862  1.00  0.00     0.078 A 
HETATM    8  C7  UNK     1      17.904   5.110  33.043  1.00  0.00     0.048 A 
HETATM    9  C9  UNK     1      18.234   4.470  31.740  1.00  0.00     0.197 A 
HETATM   10  C11 UNK     1      18.675   0.970  33.035  1.00  0.00     0.075 A 
HETATM   11  C14 UNK     1      17.885   4.321  34.127  1.00  0.00     0.159 A 
ENDROOT
BRANCH   8  12
HETATM   12  C10 UNK     1      17.589   6.544  33.150  1.00  0.00    -0.017 A 
HETATM   13  C13 UNK     1      18.544   7.433  33.641  1.00  0.00     0.052 A 
HETATM   14  C12 UNK     1      18.245   8.792  33.734  1.00  0.00     0.102 A 
HETATM   15  O3  UNK     1      19.232   9.618  34.206  1.00  0.00    -0.346 OA
HETATM   16  C15 UNK     1      16.981   9.257  33.364  1.00  0.00     0.102 A 
HETATM   17  C19 UNK     1      18.950  10.994  33.935  1.00  0.00     0.202 C 
HETATM   18  C20 UNK     1      17.512  11.316  34.294  1.00  0.00     0.202 C 
HETATM   19  O4  UNK     1      16.616  10.575  33.463  1.00  0.00    -0.346 OA
HETATM   20  C18 UNK     1      16.030   8.370  32.858  1.00  0.00     0.040 A 
HETATM   21  C16 UNK     1      16.335   7.012  32.753  1.00  0.00     0.015 A 
ENDBRANCH   8  12
BRANCH   3  22
HETATM   22  C2  UNK     1      19.353   0.221  29.381  1.00  0.00     0.041 C 
BRANCH  22  23
HETATM   23  C8  UNK     1      20.787  -0.323  29.374  1.00  0.00     0.000 C 
HETATM   24  C17 UNK     1      20.816  -1.843  29.346  1.00  0.00     0.005 C 
ENDBRANCH  22  23
ENDBRANCH   3  22
BRANCH   7  25
HETATM   25  O2  UNK     1      19.212  -1.065  31.926  1.00  0.00    -0.341 OA
BRANCH  25  26
HETATM   26  C21 UNK     1      19.218  -1.661  33.221  1.00  0.00     0.286 C 
BRANCH  26  27
HETATM   27  C22 UNK     1      20.530  -2.372  33.424  1.00  0.00     0.282 C 
HETATM   28  O7  UNK     1      21.112  -3.027  32.570  1.00  0.00    -0.263 OA
BRANCH  27  29
HETATM   29  O6  UNK     1      20.954  -2.165  34.706  1.00  0.00    -0.325 OA
HETATM   30  C23 UNK     1      19.919  -1.940  35.668  1.00  0.00     0.213 C 
ENDBRANCH  27  29
ENDBRANCH  26  27
ENDBRANCH  25  26
ENDBRANCH   7  25
TORSDOF 7
ENDMDL
MODEL 6
REMARK VINA RESULT:      -8.1      5.481      9.044
REMARK  7 active torsions:
REMARK  status: ('A' for Active; 'I' for Inactive)
REMARK    1  A    between atoms: C21_28  and  O2_2 
REMARK    2  A    between atoms: C6_13  and  O2_2 
REMARK    3  A    between atoms: C22_29  and  O6_6 
REMARK    4  A    between atoms: C1_8  and  C2_9 
REMARK    5  A    between atoms: C2_9  and  C8_15 
REMARK    6  A    between atoms: C10_17  and  C7_14 
REMARK    7  A    between atoms: C21_28  and  C22_29 
ROOT
HETATM    1  O1  UNK     1      19.043   6.005  30.222  1.00  0.00    -0.321 OA
HETATM    2  O5  UNK     1      17.746   3.074  32.748  1.00  0.00    -0.286 OA
HETATM    3  C1  UNK     1      17.060   7.126  33.701  1.00  0.00    -0.024 A 
HETATM    4  C3  UNK     1      17.909   5.374  32.273  1.00  0.00     0.049 A 
HETATM    5  C4  UNK     1      17.246   5.767  33.439  1.00  0.00     0.028 A 
HETATM    6  C5  UNK     1      18.384   6.332  31.379  1.00  0.00     0.091 A 
HETATM    7  C6  UNK     1      17.536   8.085  32.806  1.00  0.00     0.078 A 
HETATM    8  C7  UNK     1      18.822   3.633  30.699  1.00  0.00     0.048 A 
HETATM    9  C9  UNK     1      18.121   3.947  31.974  1.00  0.00     0.197 A 
HETATM   10  C11 UNK     1      18.199   7.690  31.644  1.00  0.00     0.075 A 
HETATM   11  C14 UNK     1      19.216   4.669  29.944  1.00  0.00     0.159 A 
ENDROOT
BRANCH   8  12
HETATM   12  C10 UNK     1      19.063   2.248  30.262  1.00  0.00    -0.017 A 
HETATM   13  C13 UNK     1      19.714   1.353  31.109  1.00  0.00     0.052 A 
HETATM   14  C12 UNK     1      19.933   0.039  30.695  1.00  0.00     0.102 A 
HETATM   15  O3  UNK     1      20.560  -0.799  31.580  1.00  0.00    -0.346 OA
HETATM   16  C15 UNK     1      19.529  -0.370  29.422  1.00  0.00     0.102 A 
HETATM   17  C19 UNK     1      20.422  -2.172  31.203  1.00  0.00     0.202 C 
HETATM   18  C20 UNK     1      20.713  -2.342  29.725  1.00  0.00     0.202 C 
HETATM   19  O4  UNK     1      19.745  -1.637  28.945  1.00  0.00    -0.346 OA
HETATM   20  C18 UNK     1      18.864   0.522  28.579  1.00  0.00     0.040 A 
HETATM   21  C16 UNK     1      18.634   1.833  29.001  1.00  0.00     0.015 A 
ENDBRANCH   8  12
BRANCH   3  22
HETATM   22  C2  UNK     1      16.348   7.536  34.948  1.00  0.00     0.041 C 
BRANCH  22  23
HETATM   23  C8  UNK     1      15.054   8.304  34.650  1.00  0.00     0.000 C 
HETATM   24  C17 UNK     1      14.122   7.513  33.746  1.00  0.00     0.005 C 
ENDBRANCH  22  23
ENDBRANCH   3  22
BRANCH   7  25
HETATM   25  O2  UNK     1      17.363   9.414  33.053  1.00  0.00    -0.341 OA
BRANCH  25  26
HETATM   26  C21 UNK     1      18.336  10.052  33.877  1.00  0.00     0.286 C 
BRANCH  26  27
HETATM   27  C22 UNK     1      18.056  11.532  33.906  1.00  0.00     0.282 C 
HETATM   28  O7  UNK     1      18.684  12.376  33.282  1.00  0.00    -0.263 OA
BRANCH  27  29
HETATM   29  O6  UNK     1      16.995  11.767  34.733  1.00  0.00    -0.325 OA
HETATM   30  C23 UNK     1      15.886  12.445  34.134  1.00  0.00     0.213 C 
ENDBRANCH  27  29
ENDBRANCH  26  27
ENDBRANCH  25  26
ENDBRANCH   7  25
TORSDOF 7
ENDMDL
MODEL 7
REMARK VINA RESULT:      -8.0      2.600     10.092
REMARK  7 active torsions:
REMARK  status: ('A' for Active; 'I' for Inactive)
REMARK    1  A    between atoms: C21_28  and  O2_2 
REMARK    2  A    between atoms: C6_13  and  O2_2 
REMARK    3  A    between atoms: C22_29  and  O6_6 
REMARK    4  A    between atoms: C1_8  and  C2_9 
REMARK    5  A    between atoms: C2_9  and  C8_15 
REMARK    6  A    between atoms: C10_17  and  C7_14 
REMARK    7  A    between atoms: C21_28  and  C22_29 
ROOT
HETATM    1  O1  UNK     1      18.867  -6.108  36.367  1.00  0.00    -0.321 OA
HETATM    2  O5  UNK     1      21.287  -3.328  38.118  1.00  0.00    -0.286 OA
HETATM    3  C1  UNK     1      22.305  -7.417  38.307  1.00  0.00    -0.024 A 
HETATM    4  C3  UNK     1      20.880  -5.593  37.622  1.00  0.00     0.049 A 
HETATM    5  C4  UNK     1      22.031  -6.049  38.271  1.00  0.00     0.028 A 
HETATM    6  C5  UNK     1      20.011  -6.499  37.016  1.00  0.00     0.091 A 
HETATM    7  C6  UNK     1      21.435  -8.324  37.701  1.00  0.00     0.078 A 
HETATM    8  C7  UNK     1      19.327  -3.771  36.842  1.00  0.00     0.048 A 
HETATM    9  C9  UNK     1      20.565  -4.154  37.573  1.00  0.00     0.197 A 
HETATM   10  C11 UNK     1      20.286  -7.866  37.054  1.00  0.00     0.075 A 
HETATM   11  C14 UNK     1      18.596  -4.762  36.309  1.00  0.00     0.159 A 
ENDROOT
BRANCH   8  12
HETATM   12  C10 UNK     1      18.918  -2.366  36.684  1.00  0.00    -0.017 A 
HETATM   13  C13 UNK     1      19.152  -1.702  35.480  1.00  0.00     0.052 A 
HETATM   14  C12 UNK     1      18.757  -0.373  35.331  1.00  0.00     0.102 A 
HETATM   15  O3  UNK     1      18.996   0.218  34.117  1.00  0.00    -0.346 OA
HETATM   16  C15 UNK     1      18.154   0.301  36.395  1.00  0.00     0.102 A 
HETATM   17  C19 UNK     1      18.256   1.431  33.960  1.00  0.00     0.202 C 
HETATM   18  C20 UNK     1      18.372   2.283  35.208  1.00  0.00     0.202 C 
HETATM   19  O4  UNK     1      17.772   1.616  36.322  1.00  0.00    -0.346 OA
HETATM   20  C18 UNK     1      17.905  -0.367  37.595  1.00  0.00     0.040 A 
HETATM   21  C16 UNK     1      18.290  -1.701  37.738  1.00  0.00     0.015 A 
ENDBRANCH   8  12
BRANCH   3  22
HETATM   22  C2  UNK     1      23.538  -7.894  39.001  1.00  0.00     0.041 C 
BRANCH  22  23
HETATM   23  C8  UNK     1      24.654  -8.259  38.014  1.00  0.00     0.000 C 
HETATM   24  C17 UNK     1      26.034  -8.010  38.602  1.00  0.00     0.005 C 
ENDBRANCH  22  23
ENDBRANCH   3  22
BRANCH   7  25
HETATM   25  O2  UNK     1      21.691  -9.662  37.732  1.00  0.00    -0.341 OA
BRANCH  25  26
HETATM   26  C21 UNK     1      21.101 -10.458  36.706  1.00  0.00     0.286 C 
BRANCH  26  27
HETATM   27  C22 UNK     1      22.093 -10.621  35.585  1.00  0.00     0.282 C 
HETATM   28  O7  UNK     1      21.817 -10.575  34.393  1.00  0.00    -0.263 OA
BRANCH  27  29
HETATM   29  O6  UNK     1      23.334 -10.825  36.115  1.00  0.00    -0.325 OA
HETATM   30  C23 UNK     1      23.974 -12.046  35.731  1.00  0.00     0.213 C 
ENDBRANCH  27  29
ENDBRANCH  26  27
ENDBRANCH  25  26
ENDBRANCH   7  25
TORSDOF 7
ENDMDL
MODEL 8
REMARK VINA RESULT:      -8.0      3.318     10.877
REMARK  7 active torsions:
REMARK  status: ('A' for Active; 'I' for Inactive)
REMARK    1  A    between atoms: C21_28  and  O2_2 
REMARK    2  A    between atoms: C6_13  and  O2_2 
REMARK    3  A    between atoms: C22_29  and  O6_6 
REMARK    4  A    between atoms: C1_8  and  C2_9 
REMARK    5  A    between atoms: C2_9  and  C8_15 
REMARK    6  A    between atoms: C10_17  and  C7_14 
REMARK    7  A    between atoms: C21_28  and  C22_29 
ROOT
HETATM    1  O1  UNK     1      18.134   3.218  34.346  1.00  0.00    -0.321 OA
HETATM    2  O5  UNK     1      18.324   5.602  31.039  1.00  0.00    -0.286 OA
HETATM    3  C1  UNK     1      18.785   1.427  30.650  1.00  0.00    -0.024 A 
HETATM    4  C3  UNK     1      18.409   3.430  31.944  1.00  0.00     0.049 A 
HETATM    5  C4  UNK     1      18.630   2.813  30.709  1.00  0.00     0.028 A 
HETATM    6  C5  UNK     1      18.346   2.667  33.109  1.00  0.00     0.091 A 
HETATM    7  C6  UNK     1      18.722   0.663  31.816  1.00  0.00     0.078 A 
HETATM    8  C7  UNK     1      17.997   5.449  33.392  1.00  0.00     0.048 A 
HETATM    9  C9  UNK     1      18.246   4.892  32.034  1.00  0.00     0.197 A 
HETATM   10  C11 UNK     1      18.502   1.282  33.047  1.00  0.00     0.075 A 
HETATM   11  C14 UNK     1      17.962   4.581  34.415  1.00  0.00     0.159 A 
ENDROOT
BRANCH   8  12
HETATM   12  C10 UNK     1      17.778   6.887  33.618  1.00  0.00    -0.017 A 
HETATM   13  C13 UNK     1      16.491   7.366  33.858  1.00  0.00     0.052 A 
HETATM   14  C12 UNK     1      16.287   8.728  34.079  1.00  0.00     0.102 A 
HETATM   15  O3  UNK     1      15.002   9.135  34.330  1.00  0.00    -0.346 OA
HETATM   16  C15 UNK     1      17.366   9.614  34.029  1.00  0.00     0.102 A 
HETATM   17  C19 UNK     1      14.959  10.457  34.875  1.00  0.00     0.202 C 
HETATM   18  C20 UNK     1      15.863  11.381  34.083  1.00  0.00     0.202 C 
HETATM   19  O4  UNK     1      17.226  10.966  34.205  1.00  0.00    -0.346 OA
HETATM   20  C18 UNK     1      18.656   9.132  33.803  1.00  0.00     0.040 A 
HETATM   21  C16 UNK     1      18.860   7.767  33.595  1.00  0.00     0.015 A 
ENDBRANCH   8  12
BRANCH   3  22
HETATM   22  C2  UNK     1      19.018   0.777  29.326  1.00  0.00     0.041 C 
BRANCH  22  23
HETATM   23  C8  UNK     1      20.405   0.127  29.236  1.00  0.00     0.000 C 
HETATM   24  C17 UNK     1      20.314  -1.362  28.940  1.00  0.00     0.005 C 
ENDBRANCH  22  23
ENDBRANCH   3  22
BRANCH   7  25
HETATM   25  O2  UNK     1      18.874  -0.690  31.770  1.00  0.00    -0.341 OA
BRANCH  25  26
HETATM   26  C21 UNK     1      19.007  -1.370  33.017  1.00  0.00     0.286 C 
BRANCH  26  27
HETATM   27  C22 UNK     1      20.340  -2.069  33.052  1.00  0.00     0.282 C 
HETATM   28  O7  UNK     1      21.254  -1.875  32.262  1.00  0.00    -0.263 OA
BRANCH  27  29
HETATM   29  O6  UNK     1      20.356  -2.944  34.100  1.00  0.00    -0.325 OA
HETATM   30  C23 UNK     1      20.161  -2.360  35.392  1.00  0.00     0.213 C 
ENDBRANCH  27  29
ENDBRANCH  26  27
ENDBRANCH  25  26
ENDBRANCH   7  25
TORSDOF 7
ENDMDL
MODEL 9
REMARK VINA RESULT:      -8.0      2.798     10.252
REMARK  7 active torsions:
REMARK  status: ('A' for Active; 'I' for Inactive)
REMARK    1  A    between atoms: C21_28  and  O2_2 
REMARK    2  A    between atoms: C6_13  and  O2_2 
REMARK    3  A    between atoms: C22_29  and  O6_6 
REMARK    4  A    between atoms: C1_8  and  C2_9 
REMARK    5  A    between atoms: C2_9  and  C8_15 
REMARK    6  A    between atoms: C10_17  and  C7_14 
REMARK    7  A    between atoms: C21_28  and  C22_29 
ROOT
HETATM    1  O1  UNK     1      21.894  -5.172  37.293  1.00  0.00    -0.321 OA
HETATM    2  O5  UNK     1      17.881  -5.138  36.556  1.00  0.00    -0.286 OA
HETATM    3  C1  UNK     1      19.910  -8.812  36.975  1.00  0.00    -0.024 A 
HETATM    4  C3  UNK     1      19.830  -6.400  36.942  1.00  0.00     0.049 A 
HETATM    5  C4  UNK     1      19.179  -7.632  36.837  1.00  0.00     0.028 A 
HETATM    6  C5  UNK     1      21.203  -6.350  37.182  1.00  0.00     0.091 A 
HETATM    7  C6  UNK     1      21.284  -8.763  37.215  1.00  0.00     0.078 A 
HETATM    8  C7  UNK     1      19.866  -3.882  36.944  1.00  0.00     0.048 A 
HETATM    9  C9  UNK     1      19.082  -5.139  36.796  1.00  0.00     0.197 A 
HETATM   10  C11 UNK     1      21.932  -7.532  37.319  1.00  0.00     0.075 A 
HETATM   11  C14 UNK     1      21.182  -4.002  37.176  1.00  0.00     0.159 A 
ENDROOT
BRANCH   8  12
HETATM   12  C10 UNK     1      19.234  -2.555  36.860  1.00  0.00    -0.017 A 
HETATM   13  C13 UNK     1      19.380  -1.785  35.707  1.00  0.00     0.052 A 
HETATM   14  C12 UNK     1      18.774  -0.531  35.628  1.00  0.00     0.102 A 
HETATM   15  O3  UNK     1      18.937   0.170  34.461  1.00  0.00    -0.346 OA
HETATM   16  C15 UNK     1      18.048  -0.035  36.713  1.00  0.00     0.102 A 
HETATM   17  C19 UNK     1      18.010   1.253  34.356  1.00  0.00     0.202 C 
HETATM   18  C20 UNK     1      17.960   2.029  35.657  1.00  0.00     0.202 C 
HETATM   19  O4  UNK     1      17.457   1.202  36.709  1.00  0.00    -0.346 OA
HETATM   20  C18 UNK     1      17.890  -0.812  37.862  1.00  0.00     0.040 A 
HETATM   21  C16 UNK     1      18.486  -2.072  37.934  1.00  0.00     0.015 A 
ENDBRANCH   8  12
BRANCH   3  22
HETATM   22  C2  UNK     1      19.204 -10.123  36.863  1.00  0.00     0.041 C 
BRANCH  22  23
HETATM   23  C8  UNK     1      19.425 -11.008  38.097  1.00  0.00     0.000 C 
HETATM   24  C17 UNK     1      19.297 -10.217  39.390  1.00  0.00     0.005 C 
ENDBRANCH  22  23
ENDBRANCH   3  22
BRANCH   7  25
HETATM   25  O2  UNK     1      22.009  -9.909  37.350  1.00  0.00    -0.341 OA
BRANCH  25  26
HETATM   26  C21 UNK     1      23.103 -10.093  36.454  1.00  0.00     0.286 C 
BRANCH  26  27
HETATM   27  C22 UNK     1      22.639 -10.911  35.278  1.00  0.00     0.282 C 
HETATM   28  O7  UNK     1      21.773 -10.569  34.485  1.00  0.00    -0.263 OA
BRANCH  27  29
HETATM   29  O6  UNK     1      23.341 -12.082  35.247  1.00  0.00    -0.325 OA
HETATM   30  C23 UNK     1      24.596 -12.066  35.934  1.00  0.00     0.213 C 
ENDBRANCH  27  29
ENDBRANCH  26  27
ENDBRANCH  25  26
ENDBRANCH   7  25
TORSDOF 7
ENDMDL
MODEL 10
REMARK VINA RESULT:      -8.0     26.760     29.100
REMARK  7 active torsions:
REMARK  status: ('A' for Active; 'I' for Inactive)
REMARK    1  A    between atoms: C21_28  and  O2_2 
REMARK    2  A    between atoms: C6_13  and  O2_2 
REMARK    3  A    between atoms: C22_29  and  O6_6 
REMARK    4  A    between atoms: C1_8  and  C2_9 
REMARK    5  A    between atoms: C2_9  and  C8_15 
REMARK    6  A    between atoms: C10_17  and  C7_14 
REMARK    7  A    between atoms: C21_28  and  C22_29 
ROOT
HETATM    1  O1  UNK     1      14.230   7.316  11.086  1.00  0.00    -0.321 OA
HETATM    2  O5  UNK     1      14.939   9.664   7.825  1.00  0.00    -0.286 OA
HETATM    3  C1  UNK     1      12.267   6.414   7.533  1.00  0.00    -0.024 A 
HETATM    4  C3  UNK     1      13.797   7.827   8.753  1.00  0.00     0.049 A 
HETATM    5  C4  UNK     1      13.130   7.510   7.566  1.00  0.00     0.028 A 
HETATM    6  C5  UNK     1      13.602   7.052   9.896  1.00  0.00     0.091 A 
HETATM    7  C6  UNK     1      12.072   5.639   8.676  1.00  0.00     0.078 A 
HETATM    8  C7  UNK     1      15.363   9.240  10.129  1.00  0.00     0.048 A 
HETATM    9  C9  UNK     1      14.717   8.977   8.814  1.00  0.00     0.197 A 
HETATM   10  C11 UNK     1      12.739   5.957   9.860  1.00  0.00     0.075 A 
HETATM   11  C14 UNK     1      15.069   8.403  11.136  1.00  0.00     0.159 A 
ENDROOT
BRANCH   8  12
HETATM   12  C10 UNK     1      16.272  10.379  10.337  1.00  0.00    -0.017 A 
HETATM   13  C13 UNK     1      17.582  10.320   9.864  1.00  0.00     0.052 A 
HETATM   14  C12 UNK     1      18.439  11.404  10.056  1.00  0.00     0.102 A 
HETATM   15  O3  UNK     1      19.708  11.295   9.550  1.00  0.00    -0.346 OA
HETATM   16  C15 UNK     1      17.995  12.533  10.747  1.00  0.00     0.102 A 
HETATM   17  C19 UNK     1      20.371  12.561   9.494  1.00  0.00     0.202 C 
HETATM   18  C20 UNK     1      20.180  13.311  10.797  1.00  0.00     0.202 C 
HETATM   19  O4  UNK     1      18.798  13.616  10.996  1.00  0.00    -0.346 OA
HETATM   20  C18 UNK     1      16.679  12.598  11.208  1.00  0.00     0.040 A 
HETATM   21  C16 UNK     1      15.819  11.518  11.004  1.00  0.00     0.015 A 
ENDBRANCH   8  12
BRANCH   3  22
HETATM   22  C2  UNK     1      11.558   6.084   6.260  1.00  0.00     0.041 C 
BRANCH  22  23
HETATM   23  C8  UNK     1      10.330   6.976   6.034  1.00  0.00     0.000 C 
HETATM   24  C17 UNK     1       9.034   6.247   6.356  1.00  0.00     0.005 C 
ENDBRANCH  22  23
ENDBRANCH   3  22
BRANCH   7  25
HETATM   25  O2  UNK     1      11.233   4.565   8.655  1.00  0.00    -0.341 OA
BRANCH  25  26
HETATM   26  C21 UNK     1      10.488   4.300   9.842  1.00  0.00     0.286 C 
BRANCH  26  27
HETATM   27  C22 UNK     1       9.123   4.921   9.711  1.00  0.00     0.282 C 
HETATM   28  O7  UNK     1       8.868   6.102   9.903  1.00  0.00    -0.263 OA
BRANCH  27  29
HETATM   29  O6  UNK     1       8.229   3.955   9.343  1.00  0.00    -0.325 OA
HETATM   30  C23 UNK     1       6.948   4.031   9.975  1.00  0.00     0.213 C 
ENDBRANCH  27  29
ENDBRANCH  26  27
ENDBRANCH  25  26
ENDBRANCH   7  25
TORSDOF 7
ENDMDL
