MODEL 1
REMARK VINA RESULT:      -8.7      0.000      0.000
REMARK  5 active torsions:
REMARK  status: ('A' for Active; 'I' for Inactive)
REMARK    1  A    between atoms: C1_6  and  O1_1 
REMARK    2  A    between atoms: C5_10  and  O1_1 
REMARK    3  A    between atoms: C18_23  and  O4_4 
REMARK    4  A    between atoms: C2_7  and  C7_12 
REMARK    5  A    between atoms: C13_18  and  C5_10 
ROOT
HETATM    1  O2  UNK     1      19.409   1.742  30.727  1.00  0.00    -0.306 OA
HETATM    2  O3  UNK     1      18.280  -0.949  33.572  1.00  0.00    -0.284 OA
HETATM    3  C1  UNK     1      18.310   1.302  32.836  1.00  0.00     0.155 A 
HETATM    4  C2  UNK     1      18.719   2.136  31.863  1.00  0.00     0.123 A 
HETATM    5  C3  UNK     1      19.370  -0.553  31.518  1.00  0.00     0.051 A 
HETATM    6  C4  UNK     1      19.724   0.415  30.581  1.00  0.00     0.090 A 
HETATM    7  C6  UNK     1      18.624  -0.142  32.718  1.00  0.00     0.221 A 
HETATM    8  C8  UNK     1      19.719  -1.890  31.317  1.00  0.00     0.018 A 
HETATM    9  C9  UNK     1      20.429   0.051  29.434  1.00  0.00     0.038 A 
HETATM   10  C14 UNK     1      20.425  -2.252  30.169  1.00  0.00     0.001 A 
HETATM   11  C15 UNK     1      20.780  -1.283  29.229  1.00  0.00     0.003 A 
ENDROOT
BRANCH   4  12
HETATM   12  C7  UNK     1      18.445   3.583  31.895  1.00  0.00     0.001 A 
HETATM   13  C10 UNK     1      17.932   4.172  33.052  1.00  0.00     0.017 A 
HETATM   14  C16 UNK     1      17.674   5.543  33.082  1.00  0.00     0.037 A 
HETATM   15  C18 UNK     1      17.928   6.326  31.956  1.00  0.00     0.068 A 
HETATM   16  C17 UNK     1      18.440   5.738  30.799  1.00  0.00     0.037 A 
HETATM   17  C11 UNK     1      18.699   4.367  30.769  1.00  0.00     0.017 A 
BRANCH  15  18
HETATM   18  O4  UNK     1      17.675   7.662  31.986  1.00  0.00    -0.356 OA
HETATM   19  C20 UNK     1      16.353   8.081  31.651  1.00  0.00     0.210 C 
ENDBRANCH  15  18
ENDBRANCH   4  12
BRANCH   3  20
HETATM   20  O1  UNK     1      17.597   1.722  33.937  1.00  0.00    -0.332 OA
BRANCH  20  21
HETATM   21  C5  UNK     1      18.134   1.174  35.125  1.00  0.00     0.194 C 
HETATM   22  C12 UNK     1      19.117   2.174  35.707  1.00  0.00     0.048 C 
BRANCH  21  23
HETATM   23  C13 UNK     1      16.999   0.878  36.096  1.00  0.00     0.151 C 
HETATM   24  O5  UNK     1      15.914   0.434  35.719  1.00  0.00    -0.296 OA
HETATM   25  C19 UNK     1      17.256   1.147  37.557  1.00  0.00     0.093 C 
ENDBRANCH  21  23
ENDBRANCH  20  21
ENDBRANCH   3  20
TORSDOF 5
ENDMDL
MODEL 2
REMARK VINA RESULT:      -8.7      1.503      4.814
REMARK  5 active torsions:
REMARK  status: ('A' for Active; 'I' for Inactive)
REMARK    1  A    between atoms: C1_6  and  O1_1 
REMARK    2  A    between atoms: C5_10  and  O1_1 
REMARK    3  A    between atoms: C18_23  and  O4_4 
REMARK    4  A    between atoms: C2_7  and  C7_12 
REMARK    5  A    between atoms: C13_18  and  C5_10 
ROOT
HETATM    1  O2  UNK     1      19.114  -0.038  32.539  1.00  0.00    -0.306 OA
HETATM    2  O3  UNK     1      18.654   2.779  29.631  1.00  0.00    -0.284 OA
HETATM    3  C1  UNK     1      18.314   2.149  31.889  1.00  0.00     0.155 A 
HETATM    4  C2  UNK     1      18.493   1.174  32.797  1.00  0.00     0.123 A 
HETATM    5  C3  UNK     1      19.435   0.635  30.229  1.00  0.00     0.051 A 
HETATM    6  C4  UNK     1      19.564  -0.284  31.267  1.00  0.00     0.090 A 
HETATM    7  C6  UNK     1      18.790   1.930  30.502  1.00  0.00     0.221 A 
HETATM    8  C8  UNK     1      19.912   0.330  28.953  1.00  0.00     0.018 A 
HETATM    9  C9  UNK     1      20.174  -1.517  31.036  1.00  0.00     0.038 A 
HETATM   10  C14 UNK     1      20.522  -0.904  28.723  1.00  0.00     0.001 A 
HETATM   11  C15 UNK     1      20.652  -1.826  29.763  1.00  0.00     0.003 A 
ENDROOT
BRANCH   4  12
HETATM   12  C7  UNK     1      18.058   1.309  34.199  1.00  0.00     0.001 A 
HETATM   13  C10 UNK     1      18.848   2.007  35.112  1.00  0.00     0.017 A 
HETATM   14  C16 UNK     1      18.436   2.136  36.438  1.00  0.00     0.037 A 
HETATM   15  C18 UNK     1      17.232   1.565  36.853  1.00  0.00     0.068 A 
HETATM   16  C17 UNK     1      16.442   0.866  35.940  1.00  0.00     0.037 A 
HETATM   17  C11 UNK     1      16.854   0.738  34.614  1.00  0.00     0.017 A 
BRANCH  15  18
HETATM   18  O4  UNK     1      16.831   1.689  38.146  1.00  0.00    -0.356 OA
HETATM   19  C20 UNK     1      17.795   1.401  39.157  1.00  0.00     0.210 C 
ENDBRANCH  15  18
ENDBRANCH   4  12
BRANCH   3  20
HETATM   20  O1  UNK     1      17.721   3.357  32.187  1.00  0.00    -0.332 OA
BRANCH  20  21
HETATM   21  C5  UNK     1      18.681   4.395  32.223  1.00  0.00     0.194 C 
HETATM   22  C12 UNK     1      18.431   5.313  31.040  1.00  0.00     0.048 C 
BRANCH  21  23
HETATM   23  C13 UNK     1      18.559   5.142  33.544  1.00  0.00     0.151 C 
HETATM   24  O5  UNK     1      17.521   5.138  34.205  1.00  0.00    -0.296 OA
HETATM   25  C19 UNK     1      19.776   5.892  34.024  1.00  0.00     0.093 C 
ENDBRANCH  21  23
ENDBRANCH  20  21
ENDBRANCH   3  20
TORSDOF 5
ENDMDL
MODEL 3
REMARK VINA RESULT:      -8.4     23.291     25.403
REMARK  5 active torsions:
REMARK  status: ('A' for Active; 'I' for Inactive)
REMARK    1  A    between atoms: C1_6  and  O1_1 
REMARK    2  A    between atoms: C5_10  and  O1_1 
REMARK    3  A    between atoms: C18_23  and  O4_4 
REMARK    4  A    between atoms: C2_7  and  C7_12 
REMARK    5  A    between atoms: C13_18  and  C5_10 
ROOT
HETATM    1  O2  UNK     1      12.751   7.615   7.605  1.00  0.00    -0.306 OA
HETATM    2  O3  UNK     1       9.573   8.251  10.076  1.00  0.00    -0.284 OA
HETATM    3  C1  UNK     1      11.889   8.535   9.669  1.00  0.00     0.155 A 
HETATM    4  C2  UNK     1      12.894   8.285   8.810  1.00  0.00     0.123 A 
HETATM    5  C3  UNK     1      10.383   7.331   8.060  1.00  0.00     0.051 A 
HETATM    6  C4  UNK     1      11.508   7.149   7.259  1.00  0.00     0.090 A 
HETATM    7  C6  UNK     1      10.527   8.055   9.333  1.00  0.00     0.221 A 
HETATM    8  C8  UNK     1       9.142   6.834   7.657  1.00  0.00     0.018 A 
HETATM    9  C9  UNK     1      11.398   6.469   6.046  1.00  0.00     0.038 A 
HETATM   10  C14 UNK     1       9.034   6.154   6.444  1.00  0.00     0.001 A 
HETATM   11  C15 UNK     1      10.160   5.971   5.640  1.00  0.00     0.003 A 
ENDROOT
BRANCH   4  12
HETATM   12  C7  UNK     1      14.276   8.730   9.059  1.00  0.00     0.001 A 
HETATM   13  C10 UNK     1      14.770   9.868   8.421  1.00  0.00     0.017 A 
HETATM   14  C16 UNK     1      16.078  10.290   8.658  1.00  0.00     0.037 A 
HETATM   15  C18 UNK     1      16.895   9.572   9.531  1.00  0.00     0.068 A 
HETATM   16  C17 UNK     1      16.402   8.433  10.169  1.00  0.00     0.037 A 
HETATM   17  C11 UNK     1      15.093   8.012   9.933  1.00  0.00     0.017 A 
BRANCH  15  18
HETATM   18  O4  UNK     1      18.171   9.983   9.761  1.00  0.00    -0.356 OA
HETATM   19  C20 UNK     1      18.412  11.389   9.759  1.00  0.00     0.210 C 
ENDBRANCH  15  18
ENDBRANCH   4  12
BRANCH   3  20
HETATM   20  O1  UNK     1      12.059   9.232  10.844  1.00  0.00    -0.332 OA
BRANCH  20  21
HETATM   21  C5  UNK     1      11.718  10.595  10.676  1.00  0.00     0.194 C 
HETATM   22  C12 UNK     1      10.603  10.928  11.652  1.00  0.00     0.048 C 
BRANCH  21  23
HETATM   23  C13 UNK     1      12.951  11.453  10.925  1.00  0.00     0.151 C 
HETATM   24  O5  UNK     1      13.160  12.494  10.302  1.00  0.00    -0.296 OA
HETATM   25  C19 UNK     1      13.918  10.978  11.980  1.00  0.00     0.093 C 
ENDBRANCH  21  23
ENDBRANCH  20  21
ENDBRANCH   3  20
TORSDOF 5
ENDMDL
MODEL 4
REMARK VINA RESULT:      -8.3      3.603      7.046
REMARK  5 active torsions:
REMARK  status: ('A' for Active; 'I' for Inactive)
REMARK    1  A    between atoms: C1_6  and  O1_1 
REMARK    2  A    between atoms: C5_10  and  O1_1 
REMARK    3  A    between atoms: C18_23  and  O4_4 
REMARK    4  A    between atoms: C2_7  and  C7_12 
REMARK    5  A    between atoms: C13_18  and  C5_10 
ROOT
HETATM    1  O2  UNK     1      20.348  -2.496  32.840  1.00  0.00    -0.306 OA
HETATM    2  O3  UNK     1      18.276   1.009  33.023  1.00  0.00    -0.284 OA
HETATM    3  C1  UNK     1      19.112  -0.892  34.162  1.00  0.00     0.155 A 
HETATM    4  C2  UNK     1      19.800  -2.040  34.029  1.00  0.00     0.123 A 
HETATM    5  C3  UNK     1      19.466  -0.541  31.702  1.00  0.00     0.051 A 
HETATM    6  C4  UNK     1      20.166  -1.745  31.707  1.00  0.00     0.090 A 
HETATM    7  C6  UNK     1      18.896  -0.045  32.964  1.00  0.00     0.221 A 
HETATM    8  C8  UNK     1      19.312   0.181  30.516  1.00  0.00     0.018 A 
HETATM    9  C9  UNK     1      20.720  -2.236  30.524  1.00  0.00     0.038 A 
HETATM   10  C14 UNK     1      19.866  -0.312  29.334  1.00  0.00     0.001 A 
HETATM   11  C15 UNK     1      20.568  -1.518  29.338  1.00  0.00     0.003 A 
ENDROOT
BRANCH   4  12
HETATM   12  C7  UNK     1      20.067  -2.938  35.166  1.00  0.00     0.001 A 
HETATM   13  C10 UNK     1      20.685  -2.445  36.316  1.00  0.00     0.017 A 
HETATM   14  C16 UNK     1      20.937  -3.296  37.393  1.00  0.00     0.037 A 
HETATM   15  C18 UNK     1      20.574  -4.640  37.320  1.00  0.00     0.068 A 
HETATM   16  C17 UNK     1      19.957  -5.134  36.170  1.00  0.00     0.037 A 
HETATM   17  C11 UNK     1      19.704  -4.284  35.093  1.00  0.00     0.017 A 
BRANCH  15  18
HETATM   18  O4  UNK     1      20.821  -5.469  38.369  1.00  0.00    -0.356 OA
HETATM   19  C20 UNK     1      19.920  -6.559  38.562  1.00  0.00     0.210 C 
ENDBRANCH  15  18
ENDBRANCH   4  12
BRANCH   3  20
HETATM   20  O1  UNK     1      18.608  -0.452  35.366  1.00  0.00    -0.332 OA
BRANCH  20  21
HETATM   21  C5  UNK     1      17.308  -0.965  35.586  1.00  0.00     0.194 C 
HETATM   22  C12 UNK     1      17.309  -1.702  36.914  1.00  0.00     0.048 C 
BRANCH  21  23
HETATM   23  C13 UNK     1      16.311   0.186  35.588  1.00  0.00     0.151 C 
HETATM   24  O5  UNK     1      15.652   0.482  34.591  1.00  0.00    -0.296 OA
HETATM   25  C19 UNK     1      16.152   0.957  36.874  1.00  0.00     0.093 C 
ENDBRANCH  21  23
ENDBRANCH  20  21
ENDBRANCH   3  20
TORSDOF 5
ENDMDL
MODEL 5
REMARK VINA RESULT:      -8.1     23.077     25.324
REMARK  5 active torsions:
REMARK  status: ('A' for Active; 'I' for Inactive)
REMARK    1  A    between atoms: C1_6  and  O1_1 
REMARK    2  A    between atoms: C5_10  and  O1_1 
REMARK    3  A    between atoms: C18_23  and  O4_4 
REMARK    4  A    between atoms: C2_7  and  C7_12 
REMARK    5  A    between atoms: C13_18  and  C5_10 
ROOT
HETATM    1  O2  UNK     1      14.164   9.832   8.225  1.00  0.00    -0.306 OA
HETATM    2  O3  UNK     1      16.673   7.954  10.830  1.00  0.00    -0.284 OA
HETATM    3  C1  UNK     1      14.543   8.035   9.799  1.00  0.00     0.155 A 
HETATM    4  C2  UNK     1      13.766   8.707   8.930  1.00  0.00     0.123 A 
HETATM    5  C3  UNK     1      16.333   9.726   9.310  1.00  0.00     0.051 A 
HETATM    6  C4  UNK     1      15.429  10.319   8.432  1.00  0.00     0.090 A 
HETATM    7  C6  UNK     1      15.920   8.523  10.050  1.00  0.00     0.221 A 
HETATM    8  C8  UNK     1      17.609  10.267   9.481  1.00  0.00     0.018 A 
HETATM    9  C9  UNK     1      15.796  11.459   7.717  1.00  0.00     0.038 A 
HETATM   10  C14 UNK     1      17.974  11.408   8.765  1.00  0.00     0.001 A 
HETATM   11  C15 UNK     1      17.070  12.002   7.885  1.00  0.00     0.003 A 
ENDROOT
BRANCH   4  12
HETATM   12  C7  UNK     1      12.388   8.290   8.616  1.00  0.00     0.001 A 
HETATM   13  C10 UNK     1      12.115   7.619   7.423  1.00  0.00     0.017 A 
HETATM   14  C16 UNK     1      10.811   7.224   7.126  1.00  0.00     0.037 A 
HETATM   15  C18 UNK     1       9.777   7.500   8.021  1.00  0.00     0.068 A 
HETATM   16  C17 UNK     1      10.049   8.172   9.214  1.00  0.00     0.037 A 
HETATM   17  C11 UNK     1      11.353   8.567   9.511  1.00  0.00     0.017 A 
BRANCH  15  18
HETATM   18  O4  UNK     1       8.505   7.116   7.731  1.00  0.00    -0.356 OA
HETATM   19  C20 UNK     1       8.165   5.753   7.981  1.00  0.00     0.210 C 
ENDBRANCH  15  18
ENDBRANCH   4  12
BRANCH   3  20
HETATM   20  O1  UNK     1      14.127   6.900  10.460  1.00  0.00    -0.332 OA
BRANCH  20  21
HETATM   21  C5  UNK     1      14.159   5.777   9.601  1.00  0.00     0.194 C 
HETATM   22  C12 UNK     1      15.233   4.828  10.103  1.00  0.00     0.048 C 
BRANCH  21  23
HETATM   23  C13 UNK     1      12.788   5.113   9.595  1.00  0.00     0.151 C 
HETATM   24  O5  UNK     1      11.975   5.282  10.504  1.00  0.00    -0.296 OA
HETATM   25  C19 UNK     1      12.455   4.235   8.416  1.00  0.00     0.093 C 
ENDBRANCH  21  23
ENDBRANCH  20  21
ENDBRANCH   3  20
TORSDOF 5
ENDMDL
MODEL 6
REMARK VINA RESULT:      -8.0     13.127     15.316
REMARK  5 active torsions:
REMARK  status: ('A' for Active; 'I' for Inactive)
REMARK    1  A    between atoms: C1_6  and  O1_1 
REMARK    2  A    between atoms: C5_10  and  O1_1 
REMARK    3  A    between atoms: C18_23  and  O4_4 
REMARK    4  A    between atoms: C2_7  and  C7_12 
REMARK    5  A    between atoms: C13_18  and  C5_10 
ROOT
HETATM    1  O2  UNK     1      28.200  -6.998  34.261  1.00  0.00    -0.306 OA
HETATM    2  O3  UNK     1      31.693  -5.035  33.518  1.00  0.00    -0.284 OA
HETATM    3  C1  UNK     1      30.307  -6.144  35.085  1.00  0.00     0.155 A 
HETATM    4  C2  UNK     1      29.133  -6.777  35.261  1.00  0.00     0.123 A 
HETATM    5  C3  UNK     1      29.640  -5.843  32.683  1.00  0.00     0.051 A 
HETATM    6  C4  UNK     1      28.468  -6.524  33.001  1.00  0.00     0.090 A 
HETATM    7  C6  UNK     1      30.641  -5.620  33.739  1.00  0.00     0.221 A 
HETATM    8  C8  UNK     1      29.859  -5.384  31.383  1.00  0.00     0.018 A 
HETATM    9  C9  UNK     1      27.504  -6.751  32.018  1.00  0.00     0.038 A 
HETATM   10  C14 UNK     1      28.894  -5.611  30.401  1.00  0.00     0.001 A 
HETATM   11  C15 UNK     1      27.719  -6.294  30.719  1.00  0.00     0.003 A 
ENDROOT
BRANCH   4  12
HETATM   12  C7  UNK     1      28.723  -7.334  36.562  1.00  0.00     0.001 A 
HETATM   13  C10 UNK     1      29.266  -8.539  37.009  1.00  0.00     0.017 A 
HETATM   14  C16 UNK     1      28.878  -9.066  38.241  1.00  0.00     0.037 A 
HETATM   15  C18 UNK     1      27.945  -8.390  39.026  1.00  0.00     0.068 A 
HETATM   16  C17 UNK     1      27.400  -7.185  38.580  1.00  0.00     0.037 A 
HETATM   17  C11 UNK     1      27.789  -6.658  37.348  1.00  0.00     0.017 A 
BRANCH  15  18
HETATM   18  O4  UNK     1      27.565  -8.904  40.227  1.00  0.00    -0.356 OA
HETATM   19  C20 UNK     1      27.912 -10.263  40.491  1.00  0.00     0.210 C 
ENDBRANCH  15  18
ENDBRANCH   4  12
BRANCH   3  20
HETATM   20  O1  UNK     1      31.227  -5.970  36.095  1.00  0.00    -0.332 OA
BRANCH  20  21
HETATM   21  C5  UNK     1      30.952  -4.794  36.831  1.00  0.00     0.194 C 
HETATM   22  C12 UNK     1      30.945  -5.149  38.307  1.00  0.00     0.048 C 
BRANCH  21  23
HETATM   23  C13 UNK     1      32.013  -3.748  36.515  1.00  0.00     0.151 C 
HETATM   24  O5  UNK     1      31.763  -2.542  36.513  1.00  0.00    -0.296 OA
HETATM   25  C19 UNK     1      33.401  -4.248  36.204  1.00  0.00     0.093 C 
ENDBRANCH  21  23
ENDBRANCH  20  21
ENDBRANCH   3  20
TORSDOF 5
ENDMDL
MODEL 7
REMARK VINA RESULT:      -8.0     13.835     16.061
REMARK  5 active torsions:
REMARK  status: ('A' for Active; 'I' for Inactive)
REMARK    1  A    between atoms: C1_6  and  O1_1 
REMARK    2  A    between atoms: C5_10  and  O1_1 
REMARK    3  A    between atoms: C18_23  and  O4_4 
REMARK    4  A    between atoms: C2_7  and  C7_12 
REMARK    5  A    between atoms: C13_18  and  C5_10 
ROOT
HETATM    1  O2  UNK     1      28.857  -6.766  35.248  1.00  0.00    -0.306 OA
HETATM    2  O3  UNK     1      31.846  -4.841  37.238  1.00  0.00    -0.284 OA
HETATM    3  C1  UNK     1      30.996  -5.641  35.178  1.00  0.00     0.155 A 
HETATM    4  C2  UNK     1      29.977  -6.291  34.586  1.00  0.00     0.123 A 
HETATM    5  C3  UNK     1      29.764  -5.944  37.344  1.00  0.00     0.051 A 
HETATM    6  C4  UNK     1      28.776  -6.590  36.606  1.00  0.00     0.090 A 
HETATM    7  C6  UNK     1      30.948  -5.423  36.644  1.00  0.00     0.221 A 
HETATM    8  C8  UNK     1      29.628  -5.793  38.726  1.00  0.00     0.018 A 
HETATM    9  C9  UNK     1      27.641  -7.090  37.246  1.00  0.00     0.038 A 
HETATM   10  C14 UNK     1      28.493  -6.295  39.364  1.00  0.00     0.001 A 
HETATM   11  C15 UNK     1      27.502  -6.942  38.625  1.00  0.00     0.003 A 
ENDROOT
BRANCH   4  12
HETATM   12  C7  UNK     1      29.939  -6.545  33.135  1.00  0.00     0.001 A 
HETATM   13  C10 UNK     1      30.199  -7.825  32.643  1.00  0.00     0.017 A 
HETATM   14  C16 UNK     1      30.161  -8.066  31.270  1.00  0.00     0.037 A 
HETATM   15  C18 UNK     1      29.865  -7.028  30.387  1.00  0.00     0.068 A 
HETATM   16  C17 UNK     1      29.605  -5.748  30.878  1.00  0.00     0.037 A 
HETATM   17  C11 UNK     1      29.642  -5.507  32.252  1.00  0.00     0.017 A 
BRANCH  15  18
HETATM   18  O4  UNK     1      29.829  -7.262  29.048  1.00  0.00    -0.356 OA
HETATM   19  C20 UNK     1      30.012  -8.611  28.619  1.00  0.00     0.210 C 
ENDBRANCH  15  18
ENDBRANCH   4  12
BRANCH   3  20
HETATM   20  O1  UNK     1      32.081  -5.152  34.485  1.00  0.00    -0.332 OA
BRANCH  20  21
HETATM   21  C5  UNK     1      33.221  -5.963  34.694  1.00  0.00     0.194 C 
HETATM   22  C12 UNK     1      33.511  -6.715  33.407  1.00  0.00     0.048 C 
BRANCH  21  23
HETATM   23  C13 UNK     1      34.394  -5.081  35.101  1.00  0.00     0.151 C 
HETATM   24  O5  UNK     1      34.648  -4.024  34.525  1.00  0.00    -0.296 OA
HETATM   25  C19 UNK     1      35.241  -5.554  36.256  1.00  0.00     0.093 C 
ENDBRANCH  21  23
ENDBRANCH  20  21
ENDBRANCH   3  20
TORSDOF 5
ENDMDL
MODEL 8
REMARK VINA RESULT:      -8.0     15.314     19.024
REMARK  5 active torsions:
REMARK  status: ('A' for Active; 'I' for Inactive)
REMARK    1  A    between atoms: C1_6  and  O1_1 
REMARK    2  A    between atoms: C5_10  and  O1_1 
REMARK    3  A    between atoms: C18_23  and  O4_4 
REMARK    4  A    between atoms: C2_7  and  C7_12 
REMARK    5  A    between atoms: C13_18  and  C5_10 
ROOT
HETATM    1  O2  UNK     1      19.531   0.727  14.981  1.00  0.00    -0.306 OA
HETATM    2  O3  UNK     1      18.764  -1.630  18.215  1.00  0.00    -0.284 OA
HETATM    3  C1  UNK     1      19.216  -1.490  15.895  1.00  0.00     0.155 A 
HETATM    4  C2  UNK     1      19.458  -0.653  14.870  1.00  0.00     0.123 A 
HETATM    5  C3  UNK     1      19.054   0.547  17.354  1.00  0.00     0.051 A 
HETATM    6  C4  UNK     1      19.323   1.296  16.211  1.00  0.00     0.090 A 
HETATM    7  C6  UNK     1      18.990  -0.919  17.245  1.00  0.00     0.221 A 
HETATM    8  C8  UNK     1      18.850   1.180  18.582  1.00  0.00     0.018 A 
HETATM    9  C9  UNK     1      19.391   2.687  16.289  1.00  0.00     0.038 A 
HETATM   10  C14 UNK     1      18.918   2.572  18.657  1.00  0.00     0.001 A 
HETATM   11  C15 UNK     1      19.188   3.324  17.513  1.00  0.00     0.003 A 
ENDROOT
BRANCH   4  12
HETATM   12  C7  UNK     1      19.700  -1.132  13.498  1.00  0.00     0.001 A 
HETATM   13  C10 UNK     1      18.643  -1.633  12.736  1.00  0.00     0.017 A 
HETATM   14  C16 UNK     1      18.872  -2.086  11.437  1.00  0.00     0.037 A 
HETATM   15  C18 UNK     1      20.158  -2.040  10.898  1.00  0.00     0.068 A 
HETATM   16  C17 UNK     1      21.215  -1.540  11.659  1.00  0.00     0.037 A 
HETATM   17  C11 UNK     1      20.986  -1.086  12.959  1.00  0.00     0.017 A 
BRANCH  15  18
HETATM   18  O4  UNK     1      20.382  -2.483   9.632  1.00  0.00    -0.356 OA
HETATM   19  C20 UNK     1      21.741  -2.597   9.214  1.00  0.00     0.210 C 
ENDBRANCH  15  18
ENDBRANCH   4  12
BRANCH   3  20
HETATM   20  O1  UNK     1      19.182  -2.860  15.756  1.00  0.00    -0.332 OA
BRANCH  20  21
HETATM   21  C5  UNK     1      20.466  -3.368  15.452  1.00  0.00     0.194 C 
HETATM   22  C12 UNK     1      21.205  -3.602  16.758  1.00  0.00     0.048 C 
BRANCH  21  23
HETATM   23  C13 UNK     1      20.318  -4.658  14.657  1.00  0.00     0.151 C 
HETATM   24  O5  UNK     1      20.631  -4.734  13.468  1.00  0.00    -0.296 OA
HETATM   25  C19 UNK     1      19.771  -5.857  15.388  1.00  0.00     0.093 C 
ENDBRANCH  21  23
ENDBRANCH  20  21
ENDBRANCH   3  20
TORSDOF 5
ENDMDL
MODEL 9
REMARK VINA RESULT:      -7.9     22.520     24.889
REMARK  5 active torsions:
REMARK  status: ('A' for Active; 'I' for Inactive)
REMARK    1  A    between atoms: C1_6  and  O1_1 
REMARK    2  A    between atoms: C5_10  and  O1_1 
REMARK    3  A    between atoms: C18_23  and  O4_4 
REMARK    4  A    between atoms: C2_7  and  C7_12 
REMARK    5  A    between atoms: C13_18  and  C5_10 
ROOT
HETATM    1  O2  UNK     1      13.337   7.948   7.872  1.00  0.00    -0.306 OA
HETATM    2  O3  UNK     1      10.216   9.104  10.224  1.00  0.00    -0.284 OA
HETATM    3  C1  UNK     1      12.519   9.297   9.705  1.00  0.00     0.155 A 
HETATM    4  C2  UNK     1      13.504   8.867   8.897  1.00  0.00     0.123 A 
HETATM    5  C3  UNK     1      10.984   7.766   8.439  1.00  0.00     0.051 A 
HETATM    6  C4  UNK     1      12.090   7.415   7.669  1.00  0.00     0.090 A 
HETATM    7  C6  UNK     1      11.152   8.752   9.518  1.00  0.00     0.221 A 
HETATM    8  C8  UNK     1       9.737   7.189   8.187  1.00  0.00     0.018 A 
HETATM    9  C9  UNK     1      11.956   6.485   6.638  1.00  0.00     0.038 A 
HETATM   10  C14 UNK     1       9.606   6.258   7.156  1.00  0.00     0.001 A 
HETATM   11  C15 UNK     1      10.713   5.907   6.383  1.00  0.00     0.003 A 
ENDROOT
BRANCH   4  12
HETATM   12  C7  UNK     1      14.888   9.359   9.007  1.00  0.00     0.001 A 
HETATM   13  C10 UNK     1      15.849   8.602   9.680  1.00  0.00     0.017 A 
HETATM   14  C16 UNK     1      17.159   9.068   9.783  1.00  0.00     0.037 A 
HETATM   15  C18 UNK     1      17.511  10.292   9.215  1.00  0.00     0.068 A 
HETATM   16  C17 UNK     1      16.552  11.050   8.543  1.00  0.00     0.037 A 
HETATM   17  C11 UNK     1      15.241  10.584   8.438  1.00  0.00     0.017 A 
BRANCH  15  18
HETATM   18  O4  UNK     1      18.789  10.747   9.316  1.00  0.00    -0.356 OA
HETATM   19  C20 UNK     1      18.979  12.161   9.297  1.00  0.00     0.210 C 
ENDBRANCH  15  18
ENDBRANCH   4  12
BRANCH   3  20
HETATM   20  O1  UNK     1      12.712  10.236  10.694  1.00  0.00    -0.332 OA
BRANCH  20  21
HETATM   21  C5  UNK     1      12.746   9.626  11.969  1.00  0.00     0.194 C 
HETATM   22  C12 UNK     1      14.190   9.584  12.437  1.00  0.00     0.048 C 
BRANCH  21  23
HETATM   23  C13 UNK     1      11.873  10.424  12.928  1.00  0.00     0.151 C 
HETATM   24  O5  UNK     1      10.991  11.185  12.531  1.00  0.00    -0.296 OA
HETATM   25  C19 UNK     1      12.127  10.241  14.403  1.00  0.00     0.093 C 
ENDBRANCH  21  23
ENDBRANCH  20  21
ENDBRANCH   3  20
TORSDOF 5
ENDMDL
MODEL 10
REMARK VINA RESULT:      -7.9     13.330     15.418
REMARK  5 active torsions:
REMARK  status: ('A' for Active; 'I' for Inactive)
REMARK    1  A    between atoms: C1_6  and  O1_1 
REMARK    2  A    between atoms: C5_10  and  O1_1 
REMARK    3  A    between atoms: C18_23  and  O4_4 
REMARK    4  A    between atoms: C2_7  and  C7_12 
REMARK    5  A    between atoms: C13_18  and  C5_10 
ROOT
HETATM    1  O2  UNK     1      27.887  -8.567  35.858  1.00  0.00    -0.306 OA
HETATM    2  O3  UNK     1      29.556  -6.125  38.662  1.00  0.00    -0.284 OA
HETATM    3  C1  UNK     1      29.205  -6.605  36.369  1.00  0.00     0.155 A 
HETATM    4  C2  UNK     1      28.633  -7.456  35.499  1.00  0.00     0.123 A 
HETATM    5  C3  UNK     1      28.277  -8.052  38.199  1.00  0.00     0.051 A 
HETATM    6  C4  UNK     1      27.730  -8.844  37.192  1.00  0.00     0.090 A 
HETATM    7  C6  UNK     1      29.056  -6.863  37.822  1.00  0.00     0.221 A 
HETATM    8  C8  UNK     1      28.084  -8.384  39.541  1.00  0.00     0.018 A 
HETATM    9  C9  UNK     1      26.984  -9.976  37.523  1.00  0.00     0.038 A 
HETATM   10  C14 UNK     1      27.338  -9.517  39.870  1.00  0.00     0.001 A 
HETATM   11  C15 UNK     1      26.789 -10.311  38.863  1.00  0.00     0.003 A 
ENDROOT
BRANCH   4  12
HETATM   12  C7  UNK     1      28.724  -7.273  34.039  1.00  0.00     0.001 A 
HETATM   13  C10 UNK     1      28.001  -6.256  33.415  1.00  0.00     0.017 A 
HETATM   14  C16 UNK     1      28.087  -6.083  32.034  1.00  0.00     0.037 A 
HETATM   15  C18 UNK     1      28.896  -6.928  31.275  1.00  0.00     0.068 A 
HETATM   16  C17 UNK     1      29.619  -7.946  31.897  1.00  0.00     0.037 A 
HETATM   17  C11 UNK     1      29.533  -8.119  33.279  1.00  0.00     0.017 A 
BRANCH  15  18
HETATM   18  O4  UNK     1      28.980  -6.760  29.928  1.00  0.00    -0.356 OA
HETATM   19  C20 UNK     1      29.606  -7.802  29.181  1.00  0.00     0.210 C 
ENDBRANCH  15  18
ENDBRANCH   4  12
BRANCH   3  20
HETATM   20  O1  UNK     1      29.913  -5.490  35.978  1.00  0.00    -0.332 OA
BRANCH  20  21
HETATM   21  C5  UNK     1      31.299  -5.768  35.919  1.00  0.00     0.194 C 
HETATM   22  C12 UNK     1      31.758  -5.589  34.483  1.00  0.00     0.048 C 
BRANCH  21  23
HETATM   23  C13 UNK     1      32.037  -4.828  36.863  1.00  0.00     0.151 C 
HETATM   24  O5  UNK     1      32.553  -5.223  37.909  1.00  0.00    -0.296 OA
HETATM   25  C19 UNK     1      32.120  -3.377  36.461  1.00  0.00     0.093 C 
ENDBRANCH  21  23
ENDBRANCH  20  21
ENDBRANCH   3  20
TORSDOF 5
ENDMDL
