MODEL 1
REMARK VINA RESULT:      -9.4      0.000      0.000
REMARK  3 active torsions:
REMARK  status: ('A' for Active; 'I' for Inactive)
REMARK    1  A    between atoms: N1_6  and  N2_7 
REMARK       I    between atoms: C13_20  and  N2_7 
REMARK    2  A    between atoms: C2_9  and  C5_12 
REMARK    3  A    between atoms: C12_19  and  C13_20 
ROOT
HETATM    1  N1  UNK     1      17.511   3.883  31.923  1.00  0.00    -0.176 NA
HETATM    2  C5  UNK     1      18.327   3.606  30.942  1.00  0.00     0.067 C 
HETATM    3  C11 UNK     1      18.949   4.823  30.273  1.00  0.00     0.073 C 
ENDROOT
BRANCH   2   4
HETATM    4  C2  UNK     1      18.726   2.298  30.408  1.00  0.00     0.066 A 
HETATM    5  C4  UNK     1      19.234   1.430  31.290  1.00  0.00     0.034 A 
HETATM    6  C1  UNK     1      19.658   0.107  30.856  1.00  0.00     0.000 A 
HETATM    7  C3  UNK     1      19.527  -0.236  29.514  1.00  0.00     0.089 A 
HETATM    8  C6  UNK     1      20.194  -0.831  31.742  1.00  0.00     0.033 A 
HETATM    9  O1  UNK     1      18.991   0.684  28.590  1.00  0.00    -0.274 OA
HETATM   10  C8  UNK     1      19.914  -1.484  29.033  1.00  0.00     0.039 A 
HETATM   11  C7  UNK     1      18.577   1.956  28.975  1.00  0.00     0.300 A 
HETATM   12  O2  UNK     1      18.112   2.749  28.164  1.00  0.00    -0.259 OA
HETATM   13  C10 UNK     1      20.448  -2.414  29.923  1.00  0.00     0.022 A 
HETATM   14  C9  UNK     1      20.587  -2.089  31.275  1.00  0.00     0.011 A 
HETATM   15 Br1  UNK     1      21.311  -3.356  32.477  1.00  0.00    -0.051 Br
ENDBRANCH   2   4
BRANCH   1  16
HETATM   16  N2  UNK     1      17.303   5.183  32.229  1.00  0.00    -0.243 N 
HETATM   17  C13 UNK     1      17.851   5.674  33.400  1.00  0.00     0.271 C 
HETATM   18  O3  UNK     1      18.521   5.017  34.193  1.00  0.00    -0.266 OA
HETATM   19  H8  UNK     1      16.696   5.751  31.659  1.00  0.00     0.192 HD
BRANCH  17  20
HETATM   20  C12 UNK     1      17.570   7.103  33.694  1.00  0.00     0.033 A 
HETATM   21  C14 UNK     1      18.566   8.034  33.489  1.00  0.00     0.019 A 
HETATM   22  C16 UNK     1      18.302   9.376  33.764  1.00  0.00     0.025 A 
HETATM   23  C18 UNK     1      17.046   9.756  34.238  1.00  0.00     0.034 A 
HETATM   24  C17 UNK     1      16.055   8.795  34.435  1.00  0.00     0.025 A 
HETATM   25 Cl1  UNK     1      16.718  11.411  34.576  1.00  0.00    -0.084 Cl
HETATM   26  C15 UNK     1      16.319   7.453  34.160  1.00  0.00     0.019 A 
ENDBRANCH  17  20
ENDBRANCH   1  16
TORSDOF 3
ENDMDL
MODEL 2
REMARK VINA RESULT:      -9.1      4.945      9.688
REMARK  3 active torsions:
REMARK  status: ('A' for Active; 'I' for Inactive)
REMARK    1  A    between atoms: N1_6  and  N2_7 
REMARK       I    between atoms: C13_20  and  N2_7 
REMARK    2  A    between atoms: C2_9  and  C5_12 
REMARK    3  A    between atoms: C12_19  and  C13_20 
ROOT
HETATM    1  N1  UNK     1      17.563   4.768  32.374  1.00  0.00    -0.176 NA
HETATM    2  C5  UNK     1      18.115   5.933  32.168  1.00  0.00     0.067 C 
HETATM    3  C11 UNK     1      19.279   5.918  31.190  1.00  0.00     0.073 C 
ENDROOT
BRANCH   2   4
HETATM    4  C2  UNK     1      17.764   7.240  32.738  1.00  0.00     0.066 A 
HETATM    5  C4  UNK     1      16.535   7.693  32.467  1.00  0.00     0.034 A 
HETATM    6  C1  UNK     1      16.096   8.978  32.988  1.00  0.00     0.000 A 
HETATM    7  C3  UNK     1      16.972   9.723  33.769  1.00  0.00     0.089 A 
HETATM    8  C6  UNK     1      14.822   9.491  32.729  1.00  0.00     0.033 A 
HETATM    9  O1  UNK     1      18.265   9.241  34.052  1.00  0.00    -0.274 OA
HETATM   10  C8  UNK     1      16.614  10.961  34.298  1.00  0.00     0.039 A 
HETATM   11  C7  UNK     1      18.714   8.015  33.568  1.00  0.00     0.300 A 
HETATM   12  O2  UNK     1      19.841   7.602  33.819  1.00  0.00    -0.259 OA
HETATM   13  C10 UNK     1      15.342  11.465  34.036  1.00  0.00     0.022 A 
HETATM   14  C9  UNK     1      14.447  10.732  33.253  1.00  0.00     0.011 A 
HETATM   15 Br1  UNK     1      12.722  11.421  32.902  1.00  0.00    -0.051 Br
ENDBRANCH   2   4
BRANCH   1  16
HETATM   16  N2  UNK     1      18.073   3.699  31.724  1.00  0.00    -0.243 N 
HETATM   17  C13 UNK     1      18.210   2.513  32.422  1.00  0.00     0.271 C 
HETATM   18  O3  UNK     1      17.902   2.351  33.600  1.00  0.00    -0.266 OA
HETATM   19  H8  UNK     1      18.418   3.791  30.781  1.00  0.00     0.192 HD
BRANCH  17  20
HETATM   20  C12 UNK     1      18.796   1.379  31.660  1.00  0.00     0.033 A 
HETATM   21  C14 UNK     1      18.991   0.175  32.303  1.00  0.00     0.019 A 
HETATM   22  C16 UNK     1      19.540  -0.890  31.587  1.00  0.00     0.025 A 
HETATM   23  C18 UNK     1      19.883  -0.724  30.245  1.00  0.00     0.034 A 
HETATM   24  C17 UNK     1      19.675   0.504  29.618  1.00  0.00     0.025 A 
HETATM   25 Cl1  UNK     1      20.559  -2.036  29.362  1.00  0.00    -0.084 Cl
HETATM   26  C15 UNK     1      19.125   1.569  30.334  1.00  0.00     0.019 A 
ENDBRANCH  17  20
ENDBRANCH   1  16
TORSDOF 3
ENDMDL
MODEL 3
REMARK VINA RESULT:      -9.0      7.081     10.631
REMARK  3 active torsions:
REMARK  status: ('A' for Active; 'I' for Inactive)
REMARK    1  A    between atoms: N1_6  and  N2_7 
REMARK       I    between atoms: C13_20  and  N2_7 
REMARK    2  A    between atoms: C2_9  and  C5_12 
REMARK    3  A    between atoms: C12_19  and  C13_20 
ROOT
HETATM    1  N1  UNK     1      19.879  -1.677  36.135  1.00  0.00    -0.176 NA
HETATM    2  C5  UNK     1      18.811  -0.934  36.028  1.00  0.00     0.067 C 
HETATM    3  C11 UNK     1      17.588  -1.476  36.752  1.00  0.00     0.073 C 
ENDROOT
BRANCH   2   4
HETATM    4  C2  UNK     1      18.634   0.340  35.320  1.00  0.00     0.066 A 
HETATM    5  C4  UNK     1      18.630   0.278  33.984  1.00  0.00     0.034 A 
HETATM    6  C1  UNK     1      18.460   1.489  33.195  1.00  0.00     0.000 A 
HETATM    7  C3  UNK     1      18.304   2.705  33.851  1.00  0.00     0.089 A 
HETATM    8  C6  UNK     1      18.451   1.471  31.798  1.00  0.00     0.033 A 
HETATM    9  O1  UNK     1      18.308   2.763  35.259  1.00  0.00    -0.274 OA
HETATM   10  C8  UNK     1      18.138   3.900  33.155  1.00  0.00     0.039 A 
HETATM   11  C7  UNK     1      18.468   1.622  36.041  1.00  0.00     0.300 A 
HETATM   12  O2  UNK     1      18.471   1.683  37.266  1.00  0.00    -0.259 OA
HETATM   13  C10 UNK     1      18.129   3.874  31.762  1.00  0.00     0.022 A 
HETATM   14  C9  UNK     1      18.285   2.662  31.084  1.00  0.00     0.011 A 
HETATM   15 Br1  UNK     1      18.271   2.634  29.194  1.00  0.00    -0.051 Br
ENDBRANCH   2   4
BRANCH   1  16
HETATM   16  N2  UNK     1      19.789  -2.821  36.850  1.00  0.00    -0.243 N 
HETATM   17  C13 UNK     1      20.059  -4.016  36.208  1.00  0.00     0.271 C 
HETATM   18  O3  UNK     1      20.377  -4.123  35.026  1.00  0.00    -0.266 OA
HETATM   19  H8  UNK     1      19.456  -2.804  37.801  1.00  0.00     0.192 HD
BRANCH  17  20
HETATM   20  C12 UNK     1      19.923  -5.240  37.039  1.00  0.00     0.033 A 
HETATM   21  C14 UNK     1      20.760  -5.406  38.122  1.00  0.00     0.019 A 
HETATM   22  C16 UNK     1      20.632  -6.554  38.904  1.00  0.00     0.025 A 
HETATM   23  C18 UNK     1      19.668  -7.511  38.583  1.00  0.00     0.034 A 
HETATM   24  C17 UNK     1      18.833  -7.318  37.483  1.00  0.00     0.025 A 
HETATM   25 Cl1  UNK     1      19.508  -8.927  39.547  1.00  0.00    -0.084 Cl
HETATM   26  C15 UNK     1      18.961  -6.170  36.702  1.00  0.00     0.019 A 
ENDBRANCH  17  20
ENDBRANCH   1  16
TORSDOF 3
ENDMDL
MODEL 4
REMARK VINA RESULT:      -8.8     16.073     18.612
REMARK  3 active torsions:
REMARK  status: ('A' for Active; 'I' for Inactive)
REMARK    1  A    between atoms: N1_6  and  N2_7 
REMARK       I    between atoms: C13_20  and  N2_7 
REMARK    2  A    between atoms: C2_9  and  C5_12 
REMARK    3  A    between atoms: C12_19  and  C13_20 
ROOT
HETATM    1  N1  UNK     1      18.958  -1.252  14.811  1.00  0.00    -0.176 NA
HETATM    2  C5  UNK     1      19.472  -2.416  14.516  1.00  0.00     0.067 C 
HETATM    3  C11 UNK     1      20.115  -3.139  15.689  1.00  0.00     0.073 C 
ENDROOT
BRANCH   2   4
HETATM    4  C2  UNK     1      19.508  -3.113  13.225  1.00  0.00     0.066 A 
HETATM    5  C4  UNK     1      20.318  -2.595  12.295  1.00  0.00     0.034 A 
HETATM    6  C1  UNK     1      20.421  -3.217  10.983  1.00  0.00     0.000 A 
HETATM    7  C3  UNK     1      19.666  -4.354  10.716  1.00  0.00     0.089 A 
HETATM    8  C6  UNK     1      21.253  -2.709   9.982  1.00  0.00     0.033 A 
HETATM    9  O1  UNK     1      18.816  -4.896  11.700  1.00  0.00    -0.274 OA
HETATM   10  C8  UNK     1      19.719  -4.997   9.481  1.00  0.00     0.039 A 
HETATM   11  C7  UNK     1      18.695  -4.323  12.963  1.00  0.00     0.300 A 
HETATM   12  O2  UNK     1      17.953  -4.801  13.814  1.00  0.00    -0.259 OA
HETATM   13  C10 UNK     1      20.551  -4.485   8.488  1.00  0.00     0.022 A 
HETATM   14  C9  UNK     1      21.317  -3.344   8.737  1.00  0.00     0.011 A 
HETATM   15 Br1  UNK     1      22.445  -2.655   7.386  1.00  0.00    -0.051 Br
ENDBRANCH   2   4
BRANCH   1  16
HETATM   16  N2  UNK     1      19.052  -0.821  16.088  1.00  0.00    -0.243 N 
HETATM   17  C13 UNK     1      19.157   0.540  16.312  1.00  0.00     0.271 C 
HETATM   18  O3  UNK     1      19.170   1.398  15.434  1.00  0.00    -0.266 OA
HETATM   19  H8  UNK     1      19.127  -1.481  16.847  1.00  0.00     0.192 HD
BRANCH  17  20
HETATM   20  C12 UNK     1      19.280   0.952  17.735  1.00  0.00     0.033 A 
HETATM   21  C14 UNK     1      19.400  -0.023  18.702  1.00  0.00     0.019 A 
HETATM   22  C16 UNK     1      19.517   0.363  20.038  1.00  0.00     0.025 A 
HETATM   23  C18 UNK     1      19.511   1.717  20.375  1.00  0.00     0.034 A 
HETATM   24  C17 UNK     1      19.389   2.684  19.377  1.00  0.00     0.025 A 
HETATM   25 Cl1  UNK     1      19.656   2.194  22.021  1.00  0.00    -0.084 Cl
HETATM   26  C15 UNK     1      19.272   2.297  18.041  1.00  0.00     0.019 A 
ENDBRANCH  17  20
ENDBRANCH   1  16
TORSDOF 3
ENDMDL
MODEL 5
REMARK VINA RESULT:      -8.8      6.783     10.238
REMARK  3 active torsions:
REMARK  status: ('A' for Active; 'I' for Inactive)
REMARK    1  A    between atoms: N1_6  and  N2_7 
REMARK       I    between atoms: C13_20  and  N2_7 
REMARK    2  A    between atoms: C2_9  and  C5_12 
REMARK    3  A    between atoms: C12_19  and  C13_20 
ROOT
HETATM    1  N1  UNK     1      19.908  -1.379  35.171  1.00  0.00    -0.176 NA
HETATM    2  C5  UNK     1      18.817  -0.710  34.910  1.00  0.00     0.067 C 
HETATM    3  C11 UNK     1      17.588  -1.183  35.670  1.00  0.00     0.073 C 
ENDROOT
BRANCH   2   4
HETATM    4  C2  UNK     1      18.621   0.427  34.002  1.00  0.00     0.066 A 
HETATM    5  C4  UNK     1      18.510   1.630  34.575  1.00  0.00     0.034 A 
HETATM    6  C1  UNK     1      18.313   2.817  33.756  1.00  0.00     0.000 A 
HETATM    7  C3  UNK     1      18.242   2.678  32.375  1.00  0.00     0.089 A 
HETATM    8  C6  UNK     1      18.191   4.093  34.313  1.00  0.00     0.033 A 
HETATM    9  O1  UNK     1      18.360   1.407  31.776  1.00  0.00    -0.274 OA
HETATM   10  C8  UNK     1      18.054   3.773  31.534  1.00  0.00     0.039 A 
HETATM   11  C7  UNK     1      18.549   0.254  32.533  1.00  0.00     0.300 A 
HETATM   12  O2  UNK     1      18.650  -0.848  32.004  1.00  0.00    -0.259 OA
HETATM   13  C10 UNK     1      17.934   5.042  32.097  1.00  0.00     0.022 A 
HETATM   14  C9  UNK     1      18.003   5.202  33.483  1.00  0.00     0.011 A 
HETATM   15 Br1  UNK     1      17.840   6.928  34.239  1.00  0.00    -0.051 Br
ENDBRANCH   2   4
BRANCH   1  16
HETATM   16  N2  UNK     1      19.833  -2.397  36.056  1.00  0.00    -0.243 N 
HETATM   17  C13 UNK     1      20.112  -3.675  35.606  1.00  0.00     0.271 C 
HETATM   18  O3  UNK     1      20.425  -3.963  34.454  1.00  0.00    -0.266 OA
HETATM   19  H8  UNK     1      19.504  -2.235  36.995  1.00  0.00     0.192 HD
BRANCH  17  20
HETATM   20  C12 UNK     1      19.992  -4.756  36.620  1.00  0.00     0.033 A 
HETATM   21  C14 UNK     1      18.942  -5.645  36.523  1.00  0.00     0.019 A 
HETATM   22  C16 UNK     1      18.830  -6.661  37.474  1.00  0.00     0.025 A 
HETATM   23  C18 UNK     1      19.770  -6.762  38.500  1.00  0.00     0.034 A 
HETATM   24  C17 UNK     1      20.823  -5.850  38.574  1.00  0.00     0.025 A 
HETATM   25 Cl1  UNK     1      19.633  -8.014  39.671  1.00  0.00    -0.084 Cl
HETATM   26  C15 UNK     1      20.935  -4.835  37.623  1.00  0.00     0.019 A 
ENDBRANCH  17  20
ENDBRANCH   1  16
TORSDOF 3
ENDMDL
MODEL 6
REMARK VINA RESULT:      -8.7      3.009      3.913
REMARK  3 active torsions:
REMARK  status: ('A' for Active; 'I' for Inactive)
REMARK    1  A    between atoms: N1_6  and  N2_7 
REMARK       I    between atoms: C13_20  and  N2_7 
REMARK    2  A    between atoms: C2_9  and  C5_12 
REMARK    3  A    between atoms: C12_19  and  C13_20 
ROOT
HETATM    1  N1  UNK     1      17.378   6.030  33.203  1.00  0.00    -0.176 NA
HETATM    2  C5  UNK     1      18.339   5.192  33.484  1.00  0.00     0.067 C 
HETATM    3  C11 UNK     1      19.653   5.847  33.883  1.00  0.00     0.073 C 
ENDROOT
BRANCH   2   4
HETATM    4  C2  UNK     1      18.323   3.724  33.475  1.00  0.00     0.066 A 
HETATM    5  C4  UNK     1      18.305   3.126  34.671  1.00  0.00     0.034 A 
HETATM    6  C1  UNK     1      18.288   1.674  34.764  1.00  0.00     0.000 A 
HETATM    7  C3  UNK     1      18.290   0.924  33.593  1.00  0.00     0.089 A 
HETATM    8  C6  UNK     1      18.269   1.006  35.991  1.00  0.00     0.033 A 
HETATM    9  O1  UNK     1      18.308   1.560  32.336  1.00  0.00    -0.274 OA
HETATM   10  C8  UNK     1      18.275  -0.469  33.612  1.00  0.00     0.039 A 
HETATM   11  C7  UNK     1      18.325   2.947  32.215  1.00  0.00     0.300 A 
HETATM   12  O2  UNK     1      18.341   3.493  31.116  1.00  0.00    -0.259 OA
HETATM   13  C10 UNK     1      18.256  -1.127  34.840  1.00  0.00     0.022 A 
HETATM   14  C9  UNK     1      18.253  -0.392  36.027  1.00  0.00     0.011 A 
HETATM   15 Br1  UNK     1      18.228  -1.291  37.690  1.00  0.00    -0.051 Br
ENDBRANCH   2   4
BRANCH   1  16
HETATM   16  N2  UNK     1      17.643   7.353  33.285  1.00  0.00    -0.243 N 
HETATM   17  C13 UNK     1      16.763   8.153  33.991  1.00  0.00     0.271 C 
HETATM   18  O3  UNK     1      15.748   7.754  34.557  1.00  0.00    -0.266 OA
HETATM   19  H8  UNK     1      18.416   7.752  32.776  1.00  0.00     0.192 HD
BRANCH  17  20
HETATM   20  C12 UNK     1      17.095   9.601  34.028  1.00  0.00     0.033 A 
HETATM   21  C14 UNK     1      16.072  10.515  34.169  1.00  0.00     0.019 A 
HETATM   22  C16 UNK     1      16.383  11.875  34.204  1.00  0.00     0.025 A 
HETATM   23  C18 UNK     1      17.711  12.289  34.097  1.00  0.00     0.034 A 
HETATM   24  C17 UNK     1      18.727  11.344  33.956  1.00  0.00     0.025 A 
HETATM   25 Cl1  UNK     1      18.096  13.965  34.141  1.00  0.00    -0.084 Cl
HETATM   26  C15 UNK     1      18.415   9.984  33.921  1.00  0.00     0.019 A 
ENDBRANCH  17  20
ENDBRANCH   1  16
TORSDOF 3
ENDMDL
MODEL 7
REMARK VINA RESULT:      -8.7      4.893      9.620
REMARK  3 active torsions:
REMARK  status: ('A' for Active; 'I' for Inactive)
REMARK    1  A    between atoms: N1_6  and  N2_7 
REMARK       I    between atoms: C13_20  and  N2_7 
REMARK    2  A    between atoms: C2_9  and  C5_12 
REMARK    3  A    between atoms: C12_19  and  C13_20 
ROOT
HETATM    1  N1  UNK     1      17.342   4.864  32.309  1.00  0.00    -0.176 NA
HETATM    2  C5  UNK     1      17.359   6.071  31.810  1.00  0.00     0.067 C 
HETATM    3  C11 UNK     1      18.116   6.202  30.497  1.00  0.00     0.073 C 
ENDROOT
BRANCH   2   4
HETATM    4  C2  UNK     1      16.748   7.299  32.332  1.00  0.00     0.066 A 
HETATM    5  C4  UNK     1      17.587   8.202  32.852  1.00  0.00     0.034 A 
HETATM    6  C1  UNK     1      17.075   9.452  33.394  1.00  0.00     0.000 A 
HETATM    7  C3  UNK     1      15.706   9.689  33.363  1.00  0.00     0.089 A 
HETATM    8  C6  UNK     1      17.915  10.423  33.946  1.00  0.00     0.033 A 
HETATM    9  O1  UNK     1      14.827   8.733  32.814  1.00  0.00    -0.274 OA
HETATM   10  C8  UNK     1      15.151  10.863  33.866  1.00  0.00     0.039 A 
HETATM   11  C7  UNK     1      15.286   7.529  32.288  1.00  0.00     0.300 A 
HETATM   12  O2  UNK     1      14.514   6.704  31.813  1.00  0.00    -0.259 OA
HETATM   13  C10 UNK     1      15.995  11.827  34.415  1.00  0.00     0.022 A 
HETATM   14  C9  UNK     1      17.374  11.608  34.455  1.00  0.00     0.011 A 
HETATM   15 Br1  UNK     1      18.513  12.920  35.200  1.00  0.00    -0.051 Br
ENDBRANCH   2   4
BRANCH   1  16
HETATM   16  N2  UNK     1      17.986   3.887  31.633  1.00  0.00    -0.243 N 
HETATM   17  C13 UNK     1      18.006   2.617  32.180  1.00  0.00     0.271 C 
HETATM   18  O3  UNK     1      17.478   2.302  33.244  1.00  0.00    -0.266 OA
HETATM   19  H8  UNK     1      18.506   4.102  30.796  1.00  0.00     0.192 HD
BRANCH  17  20
HETATM   20  C12 UNK     1      18.748   1.591  31.403  1.00  0.00     0.033 A 
HETATM   21  C14 UNK     1      19.148   0.434  32.039  1.00  0.00     0.019 A 
HETATM   22  C16 UNK     1      19.844  -0.530  31.309  1.00  0.00     0.025 A 
HETATM   23  C18 UNK     1      20.123  -0.315  29.959  1.00  0.00     0.034 A 
HETATM   24  C17 UNK     1      19.706   0.863  29.339  1.00  0.00     0.025 A 
HETATM   25 Cl1  UNK     1      20.980  -1.503  29.058  1.00  0.00    -0.084 Cl
HETATM   26  C15 UNK     1      19.011   1.828  30.069  1.00  0.00     0.019 A 
ENDBRANCH  17  20
ENDBRANCH   1  16
TORSDOF 3
ENDMDL
MODEL 8
REMARK VINA RESULT:      -8.5      6.751      9.518
REMARK  3 active torsions:
REMARK  status: ('A' for Active; 'I' for Inactive)
REMARK    1  A    between atoms: N1_6  and  N2_7 
REMARK       I    between atoms: C13_20  and  N2_7 
REMARK    2  A    between atoms: C2_9  and  C5_12 
REMARK    3  A    between atoms: C12_19  and  C13_20 
ROOT
HETATM    1  N1  UNK     1      20.559  -3.077  34.131  1.00  0.00    -0.176 NA
HETATM    2  C5  UNK     1      20.015  -3.257  35.304  1.00  0.00     0.067 C 
HETATM    3  C11 UNK     1      18.948  -2.236  35.670  1.00  0.00     0.073 C 
ENDROOT
BRANCH   2   4
HETATM    4  C2  UNK     1      20.284  -4.300  36.301  1.00  0.00     0.066 A 
HETATM    5  C4  UNK     1      19.902  -5.540  35.977  1.00  0.00     0.034 A 
HETATM    6  C1  UNK     1      20.127  -6.642  36.901  1.00  0.00     0.000 A 
HETATM    7  C3  UNK     1      20.741  -6.383  38.121  1.00  0.00     0.089 A 
HETATM    8  C6  UNK     1      19.744  -7.952  36.604  1.00  0.00     0.033 A 
HETATM    9  O1  UNK     1      21.141  -5.074  38.457  1.00  0.00    -0.274 OA
HETATM   10  C8  UNK     1      20.985  -7.391  39.050  1.00  0.00     0.039 A 
HETATM   11  C7  UNK     1      20.940  -4.000  37.594  1.00  0.00     0.300 A 
HETATM   12  O2  UNK     1      21.292  -2.864  37.894  1.00  0.00    -0.259 OA
HETATM   13  C10 UNK     1      20.600  -8.696  38.747  1.00  0.00     0.022 A 
HETATM   14  C9  UNK     1      19.982  -8.976  37.526  1.00  0.00     0.011 A 
HETATM   15 Br1  UNK     1      19.464 -10.749  37.120  1.00  0.00    -0.051 Br
ENDBRANCH   2   4
BRANCH   1  16
HETATM   16  N2  UNK     1      20.137  -2.030  33.388  1.00  0.00    -0.243 N 
HETATM   17  C13 UNK     1      20.374  -2.058  32.025  1.00  0.00     0.271 C 
HETATM   18  O3  UNK     1      20.943  -2.968  31.429  1.00  0.00    -0.266 OA
HETATM   19  H8  UNK     1      19.736  -1.217  33.830  1.00  0.00     0.192 HD
BRANCH  17  20
HETATM   20  C12 UNK     1      19.907  -0.869  31.265  1.00  0.00     0.033 A 
HETATM   21  C14 UNK     1      20.231  -0.764  29.928  1.00  0.00     0.019 A 
HETATM   22  C16 UNK     1      19.792   0.351  29.214  1.00  0.00     0.025 A 
HETATM   23  C18 UNK     1      19.039   1.336  29.854  1.00  0.00     0.034 A 
HETATM   24  C17 UNK     1      18.724   1.205  31.206  1.00  0.00     0.025 A 
HETATM   25 Cl1  UNK     1      18.496   2.711  28.973  1.00  0.00    -0.084 Cl
HETATM   26  C15 UNK     1      19.163   0.090  31.920  1.00  0.00     0.019 A 
ENDBRANCH  17  20
ENDBRANCH   1  16
TORSDOF 3
ENDMDL
MODEL 9
REMARK VINA RESULT:      -8.5     15.116     17.066
REMARK  3 active torsions:
REMARK  status: ('A' for Active; 'I' for Inactive)
REMARK    1  A    between atoms: N1_6  and  N2_7 
REMARK       I    between atoms: C13_20  and  N2_7 
REMARK    2  A    between atoms: C2_9  and  C5_12 
REMARK    3  A    between atoms: C12_19  and  C13_20 
ROOT
HETATM    1  N1  UNK     1      26.836  -8.393  38.987  1.00  0.00    -0.176 NA
HETATM    2  C5  UNK     1      27.677  -8.740  38.050  1.00  0.00     0.067 C 
HETATM    3  C11 UNK     1      27.052  -9.500  36.890  1.00  0.00     0.073 C 
ENDROOT
BRANCH   2   4
HETATM    4  C2  UNK     1      29.121  -8.495  37.962  1.00  0.00     0.066 A 
HETATM    5  C4  UNK     1      29.494  -7.382  37.321  1.00  0.00     0.034 A 
HETATM    6  C1  UNK     1      30.905  -7.054  37.182  1.00  0.00     0.000 A 
HETATM    7  C3  UNK     1      31.853  -7.914  37.726  1.00  0.00     0.089 A 
HETATM    8  C6  UNK     1      31.340  -5.903  36.520  1.00  0.00     0.033 A 
HETATM    9  O1  UNK     1      31.454  -9.084  38.401  1.00  0.00    -0.274 OA
HETATM   10  C8  UNK     1      33.219  -7.658  37.628  1.00  0.00     0.039 A 
HETATM   11  C7  UNK     1      30.112  -9.426  38.549  1.00  0.00     0.300 A 
HETATM   12  O2  UNK     1      29.774 -10.447  39.138  1.00  0.00    -0.259 OA
HETATM   13  C10 UNK     1      33.645  -6.508  36.966  1.00  0.00     0.022 A 
HETATM   14  C9  UNK     1      32.708  -5.632  36.414  1.00  0.00     0.011 A 
HETATM   15 Br1  UNK     1      33.292  -4.072  35.518  1.00  0.00    -0.051 Br
ENDBRANCH   2   4
BRANCH   1  16
HETATM   16  N2  UNK     1      25.538  -8.739  38.838  1.00  0.00    -0.243 N 
HETATM   17  C13 UNK     1      24.599  -7.728  38.742  1.00  0.00     0.271 C 
HETATM   18  O3  UNK     1      24.852  -6.527  38.781  1.00  0.00    -0.266 OA
HETATM   19  H8  UNK     1      25.260  -9.707  38.878  1.00  0.00     0.192 HD
BRANCH  17  20
HETATM   20  C12 UNK     1      23.187  -8.171  38.602  1.00  0.00     0.033 A 
HETATM   21  C14 UNK     1      22.353  -8.093  39.698  1.00  0.00     0.019 A 
HETATM   22  C16 UNK     1      21.028  -8.508  39.566  1.00  0.00     0.025 A 
HETATM   23  C18 UNK     1      20.567  -8.991  38.341  1.00  0.00     0.034 A 
HETATM   24  C17 UNK     1      21.430  -9.058  37.248  1.00  0.00     0.025 A 
HETATM   25 Cl1  UNK     1      18.932  -9.501  38.178  1.00  0.00    -0.084 Cl
HETATM   26  C15 UNK     1      22.756  -8.644  37.380  1.00  0.00     0.019 A 
ENDBRANCH  17  20
ENDBRANCH   1  16
TORSDOF 3
ENDMDL
MODEL 10
REMARK VINA RESULT:      -8.4     16.200     18.710
REMARK  3 active torsions:
REMARK  status: ('A' for Active; 'I' for Inactive)
REMARK    1  A    between atoms: N1_6  and  N2_7 
REMARK       I    between atoms: C13_20  and  N2_7 
REMARK    2  A    between atoms: C2_9  and  C5_12 
REMARK    3  A    between atoms: C12_19  and  C13_20 
ROOT
HETATM    1  N1  UNK     1      19.148  -0.997  14.430  1.00  0.00    -0.176 NA
HETATM    2  C5  UNK     1      19.719  -2.125  14.105  1.00  0.00     0.067 C 
HETATM    3  C11 UNK     1      20.314  -2.893  15.275  1.00  0.00     0.073 C 
ENDROOT
BRANCH   2   4
HETATM    4  C2  UNK     1      19.856  -2.748  12.783  1.00  0.00     0.066 A 
HETATM    5  C4  UNK     1      19.144  -3.862  12.577  1.00  0.00     0.034 A 
HETATM    6  C1  UNK     1      19.215  -4.551  11.297  1.00  0.00     0.000 A 
HETATM    7  C3  UNK     1      20.032  -4.034  10.298  1.00  0.00     0.089 A 
HETATM    8  C6  UNK     1      18.489  -5.716  11.039  1.00  0.00     0.033 A 
HETATM    9  O1  UNK     1      20.780  -2.860  10.521  1.00  0.00    -0.274 OA
HETATM   10  C8  UNK     1      20.145  -4.645   9.051  1.00  0.00     0.039 A 
HETATM   11  C7  UNK     1      20.733  -2.179  11.734  1.00  0.00     0.300 A 
HETATM   12  O2  UNK     1      21.387  -1.158  11.920  1.00  0.00    -0.259 OA
HETATM   13  C10 UNK     1      19.418  -5.807   8.801  1.00  0.00     0.022 A 
HETATM   14  C9  UNK     1      18.592  -6.342   9.792  1.00  0.00     0.011 A 
HETATM   15 Br1  UNK     1      17.607  -7.918   9.445  1.00  0.00    -0.051 Br
ENDBRANCH   2   4
BRANCH   1  16
HETATM   16  N2  UNK     1      19.151  -0.634  15.732  1.00  0.00    -0.243 N 
HETATM   17  C13 UNK     1      19.248   0.711  16.036  1.00  0.00     0.271 C 
HETATM   18  O3  UNK     1      19.333   1.615  15.208  1.00  0.00    -0.266 OA
HETATM   19  H8  UNK     1      19.164  -1.335  16.458  1.00  0.00     0.192 HD
BRANCH  17  20
HETATM   20  C12 UNK     1      19.268   1.046  17.483  1.00  0.00     0.033 A 
HETATM   21  C14 UNK     1      19.331   0.020  18.403  1.00  0.00     0.019 A 
HETATM   22  C16 UNK     1      19.351   0.334  19.762  1.00  0.00     0.025 A 
HETATM   23  C18 UNK     1      19.308   1.668  20.170  1.00  0.00     0.034 A 
HETATM   24  C17 UNK     1      19.247   2.686  19.220  1.00  0.00     0.025 A 
HETATM   25 Cl1  UNK     1      19.334   2.056  21.846  1.00  0.00    -0.084 Cl
HETATM   26  C15 UNK     1      19.226   2.372  17.861  1.00  0.00     0.019 A 
ENDBRANCH  17  20
ENDBRANCH   1  16
TORSDOF 3
ENDMDL
