MODEL 1
REMARK VINA RESULT:      -9.0      0.000      0.000
REMARK  4 active torsions:
REMARK  status: ('A' for Active; 'I' for Inactive)
REMARK    1  A    between atoms: C10_16  and  O3_3 
REMARK    2  A    between atoms: C19_25  and  O3_3 
REMARK    3  A    between atoms: C14_20  and  O4_4 
REMARK    4  A    between atoms: C1_7  and  C2_8 
ROOT
HETATM    1  O1  UNK     1      17.025   7.809  33.089  1.00  0.00    -0.271 OA
HETATM    2  O5  UNK     1      16.013   5.850  32.515  1.00  0.00    -0.259 OA
HETATM    3  C2  UNK     1      18.255   5.691  33.304  1.00  0.00     0.052 A 
HETATM    4  C4  UNK     1      19.308   7.806  33.909  1.00  0.00     0.002 A 
HETATM    5  C5  UNK     1      19.326   6.359  33.761  1.00  0.00     0.032 A 
HETATM    6  C6  UNK     1      18.154   8.499  33.568  1.00  0.00     0.123 A 
HETATM    7  C8  UNK     1      17.012   6.425  32.935  1.00  0.00     0.299 A 
HETATM    8  C10 UNK     1      18.068   9.884  33.686  1.00  0.00     0.103 A 
HETATM    9  C12 UNK     1      20.411   8.521  34.383  1.00  0.00     0.014 A 
HETATM   10  C16 UNK     1      19.172  10.591  34.158  1.00  0.00     0.040 A 
HETATM   11  C18 UNK     1      20.341   9.912  34.507  1.00  0.00     0.004 A 
ENDROOT
BRANCH   3  12
HETATM   12  C1  UNK     1      18.289   4.250  33.164  1.00  0.00    -0.001 A 
HETATM   13  C3  UNK     1      18.436   3.535  31.881  1.00  0.00     0.009 A 
HETATM   14  C11 UNK     1      18.582   4.183  30.645  1.00  0.00     0.018 A 
HETATM   15  C7  UNK     1      18.438   2.139  31.876  1.00  0.00     0.093 A 
HETATM   16  C15 UNK     1      18.718   3.451  29.460  1.00  0.00     0.038 A 
HETATM   17  C14 UNK     1      18.712   2.058  29.488  1.00  0.00     0.070 A 
HETATM   18  C13 UNK     1      18.572   1.395  30.701  1.00  0.00     0.075 A 
HETATM   19  O2  UNK     1      18.307   1.402  33.068  1.00  0.00    -0.275 OA
HETATM   20  C17 UNK     1      18.179   2.035  34.291  1.00  0.00     0.289 A 
HETATM   21  O6  UNK     1      18.073   1.409  35.340  1.00  0.00    -0.260 OA
HETATM   22  C9  UNK     1      18.172   3.508  34.279  1.00  0.00     0.096 A 
BRANCH  17  23
HETATM   23  O4  UNK     1      18.845   1.352  28.333  1.00  0.00    -0.356 OA
HETATM   24  C21 UNK     1      19.253  -0.011  28.447  1.00  0.00     0.210 C 
ENDBRANCH  17  23
ENDBRANCH   3  12
BRANCH   8  25
HETATM   25  O3  UNK     1      16.932  10.550  33.347  1.00  0.00    -0.349 OA
BRANCH  25  26
HETATM   26  C19 UNK     1      16.255  11.253  34.389  1.00  0.00     0.171 C 
HETATM   27  C20 UNK     1      15.121  10.395  34.905  1.00  0.00     0.034 C 
ENDBRANCH  25  26
ENDBRANCH   8  25
TORSDOF 4
ENDMDL
MODEL 2
REMARK VINA RESULT:      -8.9      1.109      3.400
REMARK  4 active torsions:
REMARK  status: ('A' for Active; 'I' for Inactive)
REMARK    1  A    between atoms: C10_16  and  O3_3 
REMARK    2  A    between atoms: C19_25  and  O3_3 
REMARK    3  A    between atoms: C14_20  and  O4_4 
REMARK    4  A    between atoms: C1_7  and  C2_8 
ROOT
HETATM    1  O1  UNK     1      16.983   7.689  32.834  1.00  0.00    -0.271 OA
HETATM    2  O5  UNK     1      16.002   5.804  32.010  1.00  0.00    -0.259 OA
HETATM    3  C2  UNK     1      18.267   5.595  32.719  1.00  0.00     0.052 A 
HETATM    4  C4  UNK     1      19.286   7.629  33.595  1.00  0.00     0.002 A 
HETATM    5  C5  UNK     1      19.334   6.219  33.242  1.00  0.00     0.032 A 
HETATM    6  C6  UNK     1      18.108   8.333  33.382  1.00  0.00     0.123 A 
HETATM    7  C8  UNK     1      16.999   6.340  32.485  1.00  0.00     0.299 A 
HETATM    8  C10 UNK     1      17.993   9.685  33.698  1.00  0.00     0.103 A 
HETATM    9  C12 UNK     1      20.384   8.299  34.142  1.00  0.00     0.014 A 
HETATM   10  C16 UNK     1      19.092  10.347  34.241  1.00  0.00     0.040 A 
HETATM   11  C18 UNK     1      20.285   9.656  34.464  1.00  0.00     0.004 A 
ENDROOT
BRANCH   3  12
HETATM   12  C1  UNK     1      18.330   4.189  32.374  1.00  0.00    -0.001 A 
HETATM   13  C3  UNK     1      18.310   3.084  33.352  1.00  0.00     0.009 A 
HETATM   14  C11 UNK     1      18.205   3.278  34.738  1.00  0.00     0.018 A 
HETATM   15  C7  UNK     1      18.394   1.768  32.894  1.00  0.00     0.093 A 
HETATM   16  C15 UNK     1      18.192   2.189  35.618  1.00  0.00     0.038 A 
HETATM   17  C14 UNK     1      18.280   0.887  35.129  1.00  0.00     0.070 A 
HETATM   18  C13 UNK     1      18.381   0.672  33.760  1.00  0.00     0.075 A 
HETATM   19  O2  UNK     1      18.491   1.475  31.522  1.00  0.00    -0.275 OA
HETATM   20  C17 UNK     1      18.501   2.482  30.573  1.00  0.00     0.289 A 
HETATM   21  O6  UNK     1      18.578   2.245  29.372  1.00  0.00    -0.260 OA
HETATM   22  C9  UNK     1      18.420   3.866  31.072  1.00  0.00     0.096 A 
BRANCH  17  23
HETATM   23  O4  UNK     1      18.265  -0.167  35.990  1.00  0.00    -0.356 OA
HETATM   24  C21 UNK     1      17.593   0.021  37.235  1.00  0.00     0.210 C 
ENDBRANCH  17  23
ENDBRANCH   3  12
BRANCH   8  25
HETATM   25  O3  UNK     1      16.834  10.362  33.482  1.00  0.00    -0.349 OA
BRANCH  25  26
HETATM   26  C19 UNK     1      16.162  10.882  34.629  1.00  0.00     0.171 C 
HETATM   27  C20 UNK     1      15.077   9.913  35.046  1.00  0.00     0.034 C 
ENDBRANCH  25  26
ENDBRANCH   8  25
TORSDOF 4
ENDMDL
MODEL 3
REMARK VINA RESULT:      -8.7      1.922      7.904
REMARK  4 active torsions:
REMARK  status: ('A' for Active; 'I' for Inactive)
REMARK    1  A    between atoms: C10_16  and  O3_3 
REMARK    2  A    between atoms: C19_25  and  O3_3 
REMARK    3  A    between atoms: C14_20  and  O4_4 
REMARK    4  A    between atoms: C1_7  and  C2_8 
ROOT
HETATM    1  O1  UNK     1      18.876   3.896  30.703  1.00  0.00    -0.271 OA
HETATM    2  O5  UNK     1      18.906   6.147  30.348  1.00  0.00    -0.259 OA
HETATM    3  C2  UNK     1      18.430   5.433  32.570  1.00  0.00     0.052 A 
HETATM    4  C4  UNK     1      18.405   3.020  32.916  1.00  0.00     0.002 A 
HETATM    5  C5  UNK     1      18.270   4.386  33.395  1.00  0.00     0.032 A 
HETATM    6  C6  UNK     1      18.706   2.806  31.577  1.00  0.00     0.123 A 
HETATM    7  C8  UNK     1      18.751   5.216  31.132  1.00  0.00     0.299 A 
HETATM    8  C10 UNK     1      18.850   1.524  31.052  1.00  0.00     0.103 A 
HETATM    9  C12 UNK     1      18.244   1.915  33.756  1.00  0.00     0.014 A 
HETATM   10  C16 UNK     1      18.686   0.427  31.896  1.00  0.00     0.040 A 
HETATM   11  C18 UNK     1      18.385   0.622  33.245  1.00  0.00     0.004 A 
ENDROOT
BRANCH   3  12
HETATM   12  C1  UNK     1      18.293   6.789  33.063  1.00  0.00    -0.001 A 
HETATM   13  C3  UNK     1      17.042   7.570  33.034  1.00  0.00     0.009 A 
HETATM   14  C11 UNK     1      15.828   7.071  32.537  1.00  0.00     0.018 A 
HETATM   15  C7  UNK     1      17.043   8.876  33.526  1.00  0.00     0.093 A 
HETATM   16  C15 UNK     1      14.672   7.860  32.535  1.00  0.00     0.038 A 
HETATM   17  C14 UNK     1      14.707   9.162  33.030  1.00  0.00     0.070 A 
HETATM   18  C13 UNK     1      15.897   9.676  33.530  1.00  0.00     0.075 A 
HETATM   19  O2  UNK     1      18.210   9.459  34.053  1.00  0.00    -0.275 OA
HETATM   20  C17 UNK     1      19.400   8.755  34.109  1.00  0.00     0.289 A 
HETATM   21  O6  UNK     1      20.424   9.245  34.573  1.00  0.00    -0.260 OA
HETATM   22  C9  UNK     1      19.384   7.381  33.579  1.00  0.00     0.096 A 
BRANCH  17  23
HETATM   23  O4  UNK     1      13.580   9.924  33.026  1.00  0.00    -0.356 OA
HETATM   24  C21 UNK     1      13.752  11.338  32.930  1.00  0.00     0.210 C 
ENDBRANCH  17  23
ENDBRANCH   3  12
BRANCH   8  25
HETATM   25  O3  UNK     1      19.143   1.330  29.738  1.00  0.00    -0.349 OA
BRANCH  25  26
HETATM   26  C19 UNK     1      20.096   0.313  29.428  1.00  0.00     0.171 C 
HETATM   27  C20 UNK     1      19.537  -0.566  28.331  1.00  0.00     0.034 C 
ENDBRANCH  25  26
ENDBRANCH   8  25
TORSDOF 4
ENDMDL
MODEL 4
REMARK VINA RESULT:      -8.7     22.853     25.428
REMARK  4 active torsions:
REMARK  status: ('A' for Active; 'I' for Inactive)
REMARK    1  A    between atoms: C10_16  and  O3_3 
REMARK    2  A    between atoms: C19_25  and  O3_3 
REMARK    3  A    between atoms: C14_20  and  O4_4 
REMARK    4  A    between atoms: C1_7  and  C2_8 
ROOT
HETATM    1  O1  UNK     1      11.431   7.545   9.823  1.00  0.00    -0.271 OA
HETATM    2  O5  UNK     1      13.028   8.356  11.232  1.00  0.00    -0.259 OA
HETATM    3  C2  UNK     1      13.722   7.893   9.000  1.00  0.00     0.052 A 
HETATM    4  C4  UNK     1      11.989   7.027   7.519  1.00  0.00     0.002 A 
HETATM    5  C5  UNK     1      13.354   7.452   7.787  1.00  0.00     0.032 A 
HETATM    6  C6  UNK     1      11.056   7.084   8.547  1.00  0.00     0.123 A 
HETATM    7  C8  UNK     1      12.730   7.957  10.110  1.00  0.00     0.299 A 
HETATM    8  C10 UNK     1       9.733   6.693   8.360  1.00  0.00     0.103 A 
HETATM    9  C12 UNK     1      11.584   6.566   6.265  1.00  0.00     0.014 A 
HETATM   10  C16 UNK     1       9.336   6.233   7.106  1.00  0.00     0.040 A 
HETATM   11  C18 UNK     1      10.258   6.169   6.060  1.00  0.00     0.004 A 
ENDROOT
BRANCH   3  12
HETATM   12  C1  UNK     1      15.085   8.314   9.250  1.00  0.00    -0.001 A 
HETATM   13  C3  UNK     1      15.646   9.620   8.850  1.00  0.00     0.009 A 
HETATM   14  C11 UNK     1      14.904  10.614   8.196  1.00  0.00     0.018 A 
HETATM   15  C7  UNK     1      16.984   9.901   9.135  1.00  0.00     0.093 A 
HETATM   16  C15 UNK     1      15.491  11.834   7.841  1.00  0.00     0.038 A 
HETATM   17  C14 UNK     1      16.830  12.084   8.135  1.00  0.00     0.070 A 
HETATM   18  C13 UNK     1      17.583  11.114   8.786  1.00  0.00     0.075 A 
HETATM   19  O2  UNK     1      17.803   8.970   9.797  1.00  0.00    -0.275 OA
HETATM   20  C17 UNK     1      17.311   7.740  10.198  1.00  0.00     0.289 A 
HETATM   21  O6  UNK     1      18.010   6.920  10.784  1.00  0.00    -0.260 OA
HETATM   22  C9  UNK     1      15.901   7.455   9.885  1.00  0.00     0.096 A 
BRANCH  17  23
HETATM   23  O4  UNK     1      17.395  13.272   7.789  1.00  0.00    -0.356 OA
HETATM   24  C21 UNK     1      17.936  13.374   6.472  1.00  0.00     0.210 C 
ENDBRANCH  17  23
ENDBRANCH   3  12
BRANCH   8  25
HETATM   25  O3  UNK     1       8.831   6.753   9.376  1.00  0.00    -0.349 OA
BRANCH  25  26
HETATM   26  C19 UNK     1       7.888   5.686   9.472  1.00  0.00     0.171 C 
HETATM   27  C20 UNK     1       8.530   4.524  10.198  1.00  0.00     0.034 C 
ENDBRANCH  25  26
ENDBRANCH   8  25
TORSDOF 4
ENDMDL
MODEL 5
REMARK VINA RESULT:      -8.6      8.109     13.295
REMARK  4 active torsions:
REMARK  status: ('A' for Active; 'I' for Inactive)
REMARK    1  A    between atoms: C10_16  and  O3_3 
REMARK    2  A    between atoms: C19_25  and  O3_3 
REMARK    3  A    between atoms: C14_20  and  O4_4 
REMARK    4  A    between atoms: C1_7  and  C2_8 
ROOT
HETATM    1  O1  UNK     1      19.186  -6.785  37.754  1.00  0.00    -0.271 OA
HETATM    2  O5  UNK     1      17.883  -5.455  36.439  1.00  0.00    -0.259 OA
HETATM    3  C2  UNK     1      20.082  -4.662  36.895  1.00  0.00     0.052 A 
HETATM    4  C4  UNK     1      21.450  -6.108  38.304  1.00  0.00     0.002 A 
HETATM    5  C5  UNK     1      21.247  -4.901  37.518  1.00  0.00     0.032 A 
HETATM    6  C6  UNK     1      20.411  -7.024  38.404  1.00  0.00     0.123 A 
HETATM    7  C8  UNK     1      18.961  -5.638  36.996  1.00  0.00     0.299 A 
HETATM    8  C10 UNK     1      20.538  -8.200  39.139  1.00  0.00     0.103 A 
HETATM    9  C12 UNK     1      22.653  -6.376  38.960  1.00  0.00     0.014 A 
HETATM   10  C16 UNK     1      21.740  -8.462  39.792  1.00  0.00     0.040 A 
HETATM   11  C18 UNK     1      22.797  -7.553  39.703  1.00  0.00     0.004 A 
ENDROOT
BRANCH   3  12
HETATM   12  C1  UNK     1      19.897  -3.455  36.115  1.00  0.00    -0.001 A 
HETATM   13  C3  UNK     1      19.216  -2.239  36.601  1.00  0.00     0.009 A 
HETATM   14  C11 UNK     1      18.688  -2.111  37.894  1.00  0.00     0.018 A 
HETATM   15  C7  UNK     1      19.086  -1.144  35.744  1.00  0.00     0.093 A 
HETATM   16  C15 UNK     1      18.053  -0.931  38.298  1.00  0.00     0.038 A 
HETATM   17  C14 UNK     1      17.935   0.143  37.418  1.00  0.00     0.070 A 
HETATM   18  C13 UNK     1      18.455   0.039  36.134  1.00  0.00     0.075 A 
HETATM   19  O2  UNK     1      19.594  -1.176  34.432  1.00  0.00    -0.275 OA
HETATM   20  C17 UNK     1      20.248  -2.293  33.944  1.00  0.00     0.289 A 
HETATM   21  O6  UNK     1      20.704  -2.335  32.807  1.00  0.00    -0.260 OA
HETATM   22  C9  UNK     1      20.371  -3.443  34.857  1.00  0.00     0.096 A 
BRANCH  17  23
HETATM   23  O4  UNK     1      17.317   1.288  37.817  1.00  0.00    -0.356 OA
HETATM   24  C21 UNK     1      16.100   1.634  37.156  1.00  0.00     0.210 C 
ENDBRANCH  17  23
ENDBRANCH   3  12
BRANCH   8  25
HETATM   25  O3  UNK     1      19.512  -9.088  39.229  1.00  0.00    -0.349 OA
BRANCH  25  26
HETATM   26  C19 UNK     1      19.722 -10.384  38.668  1.00  0.00     0.171 C 
HETATM   27  C20 UNK     1      19.384 -10.343  37.194  1.00  0.00     0.034 C 
ENDBRANCH  25  26
ENDBRANCH   8  25
TORSDOF 4
ENDMDL
MODEL 6
REMARK VINA RESULT:      -8.4      1.656      4.031
REMARK  4 active torsions:
REMARK  status: ('A' for Active; 'I' for Inactive)
REMARK    1  A    between atoms: C10_16  and  O3_3 
REMARK    2  A    between atoms: C19_25  and  O3_3 
REMARK    3  A    between atoms: C14_20  and  O4_4 
REMARK    4  A    between atoms: C1_7  and  C2_8 
ROOT
HETATM    1  O1  UNK     1      18.890   7.826  33.076  1.00  0.00    -0.271 OA
HETATM    2  O5  UNK     1      20.273   6.081  32.589  1.00  0.00    -0.259 OA
HETATM    3  C2  UNK     1      17.936   5.622  32.551  1.00  0.00     0.052 A 
HETATM    4  C4  UNK     1      16.485   7.510  33.076  1.00  0.00     0.002 A 
HETATM    5  C5  UNK     1      16.700   6.117  32.716  1.00  0.00     0.032 A 
HETATM    6  C6  UNK     1      17.589   8.334  33.248  1.00  0.00     0.123 A 
HETATM    7  C8  UNK     1      19.128   6.497  32.734  1.00  0.00     0.299 A 
HETATM    8  C10 UNK     1      17.456   9.677  33.592  1.00  0.00     0.103 A 
HETATM    9  C12 UNK     1      15.207   8.046  33.253  1.00  0.00     0.014 A 
HETATM   10  C16 UNK     1      16.179  10.205  33.768  1.00  0.00     0.040 A 
HETATM   11  C18 UNK     1      15.056   9.392  33.598  1.00  0.00     0.004 A 
ENDROOT
BRANCH   3  12
HETATM   12  C1  UNK     1      18.133   4.232  32.191  1.00  0.00    -0.001 A 
HETATM   13  C3  UNK     1      18.249   3.124  33.158  1.00  0.00     0.009 A 
HETATM   14  C11 UNK     1      18.160   3.295  34.548  1.00  0.00     0.018 A 
HETATM   15  C7  UNK     1      18.454   1.826  32.685  1.00  0.00     0.093 A 
HETATM   16  C15 UNK     1      18.279   2.205  35.417  1.00  0.00     0.038 A 
HETATM   17  C14 UNK     1      18.487   0.922  34.914  1.00  0.00     0.070 A 
HETATM   18  C13 UNK     1      18.575   0.728  33.541  1.00  0.00     0.075 A 
HETATM   19  O2  UNK     1      18.546   1.555  31.308  1.00  0.00    -0.275 OA
HETATM   20  C17 UNK     1      18.430   2.565  30.369  1.00  0.00     0.289 A 
HETATM   21  O6  UNK     1      18.499   2.345  29.165  1.00  0.00    -0.260 OA
HETATM   22  C9  UNK     1      18.221   3.929  30.884  1.00  0.00     0.096 A 
BRANCH  17  23
HETATM   23  O4  UNK     1      18.601  -0.134  35.764  1.00  0.00    -0.356 OA
HETATM   24  C21 UNK     1      17.909  -0.043  37.009  1.00  0.00     0.210 C 
ENDBRANCH  17  23
ENDBRANCH   3  12
BRANCH   8  25
HETATM   25  O3  UNK     1      18.546  10.473  33.758  1.00  0.00    -0.349 OA
BRANCH  25  26
HETATM   26  C19 UNK     1      18.329  11.762  34.331  1.00  0.00     0.171 C 
HETATM   27  C20 UNK     1      18.718  12.821  33.322  1.00  0.00     0.034 C 
ENDBRANCH  25  26
ENDBRANCH   8  25
TORSDOF 4
ENDMDL
MODEL 7
REMARK VINA RESULT:      -8.4      1.277      2.269
REMARK  4 active torsions:
REMARK  status: ('A' for Active; 'I' for Inactive)
REMARK    1  A    between atoms: C10_16  and  O3_3 
REMARK    2  A    between atoms: C19_25  and  O3_3 
REMARK    3  A    between atoms: C14_20  and  O4_4 
REMARK    4  A    between atoms: C1_7  and  C2_8 
ROOT
HETATM    1  O1  UNK     1      18.880   7.947  33.419  1.00  0.00    -0.271 OA
HETATM    2  O5  UNK     1      20.304   6.184  33.186  1.00  0.00    -0.259 OA
HETATM    3  C2  UNK     1      17.989   5.656  33.381  1.00  0.00     0.052 A 
HETATM    4  C4  UNK     1      16.493   7.564  33.630  1.00  0.00     0.002 A 
HETATM    5  C5  UNK     1      16.745   6.136  33.527  1.00  0.00     0.032 A 
HETATM    6  C6  UNK     1      17.570   8.440  33.573  1.00  0.00     0.123 A 
HETATM    7  C8  UNK     1      19.152   6.585  33.320  1.00  0.00     0.299 A 
HETATM    8  C10 UNK     1      17.401   9.819  33.664  1.00  0.00     0.103 A 
HETATM    9  C12 UNK     1      15.206   8.086  33.781  1.00  0.00     0.014 A 
HETATM   10  C16 UNK     1      16.115  10.332  33.817  1.00  0.00     0.040 A 
HETATM   11  C18 UNK     1      15.019   9.469  33.875  1.00  0.00     0.004 A 
ENDROOT
BRANCH   3  12
HETATM   12  C1  UNK     1      18.223   4.229  33.279  1.00  0.00    -0.001 A 
HETATM   13  C3  UNK     1      18.423   3.501  32.011  1.00  0.00     0.009 A 
HETATM   14  C11 UNK     1      18.428   4.122  30.753  1.00  0.00     0.018 A 
HETATM   15  C7  UNK     1      18.623   2.120  32.044  1.00  0.00     0.093 A 
HETATM   16  C15 UNK     1      18.622   3.378  29.584  1.00  0.00     0.038 A 
HETATM   17  C14 UNK     1      18.816   2.000  29.649  1.00  0.00     0.070 A 
HETATM   18  C13 UNK     1      18.818   1.364  30.885  1.00  0.00     0.075 A 
HETATM   19  O2  UNK     1      18.644   1.412  33.259  1.00  0.00    -0.275 OA
HETATM   20  C17 UNK     1      18.472   2.060  34.469  1.00  0.00     0.289 A 
HETATM   21  O6  UNK     1      18.496   1.459  35.538  1.00  0.00    -0.260 OA
HETATM   22  C9  UNK     1      18.255   3.516  34.418  1.00  0.00     0.096 A 
BRANCH  17  23
HETATM   23  O4  UNK     1      19.005   1.282  28.509  1.00  0.00    -0.356 OA
HETATM   24  C21 UNK     1      19.499  -0.049  28.653  1.00  0.00     0.210 C 
ENDBRANCH  17  23
ENDBRANCH   3  12
BRANCH   8  25
HETATM   25  O3  UNK     1      18.465  10.664  33.609  1.00  0.00    -0.349 OA
BRANCH  25  26
HETATM   26  C19 UNK     1      18.339  11.914  34.286  1.00  0.00     0.171 C 
HETATM   27  C20 UNK     1      18.615  13.035  33.308  1.00  0.00     0.034 C 
ENDBRANCH  25  26
ENDBRANCH   8  25
TORSDOF 4
ENDMDL
MODEL 8
REMARK VINA RESULT:      -8.4      7.365     10.645
REMARK  4 active torsions:
REMARK  status: ('A' for Active; 'I' for Inactive)
REMARK    1  A    between atoms: C10_16  and  O3_3 
REMARK    2  A    between atoms: C19_25  and  O3_3 
REMARK    3  A    between atoms: C14_20  and  O4_4 
REMARK    4  A    between atoms: C1_7  and  C2_8 
ROOT
HETATM    1  O1  UNK     1      19.246  -1.730  34.799  1.00  0.00    -0.271 OA
HETATM    2  O5  UNK     1      20.550  -3.561  34.424  1.00  0.00    -0.259 OA
HETATM    3  C2  UNK     1      19.775  -3.253  36.655  1.00  0.00     0.052 A 
HETATM    4  C4  UNK     1      18.382  -1.286  37.023  1.00  0.00     0.002 A 
HETATM    5  C5  UNK     1      19.055  -2.488  37.490  1.00  0.00     0.032 A 
HETATM    6  C6  UNK     1      18.494  -0.934  35.684  1.00  0.00     0.123 A 
HETATM    7  C8  UNK     1      19.902  -2.885  35.217  1.00  0.00     0.299 A 
HETATM    8  C10 UNK     1      17.876   0.203  35.169  1.00  0.00     0.103 A 
HETATM    9  C12 UNK     1      17.628  -0.474  37.874  1.00  0.00     0.014 A 
HETATM   10  C16 UNK     1      17.126   1.009  36.024  1.00  0.00     0.040 A 
HETATM   11  C18 UNK     1      17.001   0.671  37.373  1.00  0.00     0.004 A 
ENDROOT
BRANCH   3  12
HETATM   12  C1  UNK     1      20.437  -4.449  37.136  1.00  0.00    -0.001 A 
HETATM   13  C3  UNK     1      19.890  -5.815  37.021  1.00  0.00     0.009 A 
HETATM   14  C11 UNK     1      18.664  -6.109  36.406  1.00  0.00     0.018 A 
HETATM   15  C7  UNK     1      20.619  -6.886  37.540  1.00  0.00     0.093 A 
HETATM   16  C15 UNK     1      18.196  -7.425  36.327  1.00  0.00     0.038 A 
HETATM   17  C14 UNK     1      18.946  -8.473  36.858  1.00  0.00     0.070 A 
HETATM   18  C13 UNK     1      20.165  -8.205  37.468  1.00  0.00     0.075 A 
HETATM   19  O2  UNK     1      21.864  -6.689  38.165  1.00  0.00    -0.275 OA
HETATM   20  C17 UNK     1      22.416  -5.426  38.283  1.00  0.00     0.289 A 
HETATM   21  O6  UNK     1      23.503  -5.238  38.817  1.00  0.00    -0.260 OA
HETATM   22  C9  UNK     1      21.631  -4.306  37.736  1.00  0.00     0.096 A 
BRANCH  17  23
HETATM   23  O4  UNK     1      18.486  -9.751  36.777  1.00  0.00    -0.356 OA
HETATM   24  C21 UNK     1      19.367 -10.787  37.212  1.00  0.00     0.210 C 
ENDBRANCH  17  23
ENDBRANCH   3  12
BRANCH   8  25
HETATM   25  O3  UNK     1      17.995   0.537  33.856  1.00  0.00    -0.349 OA
BRANCH  25  26
HETATM   26  C19 UNK     1      18.178   1.919  33.550  1.00  0.00     0.171 C 
HETATM   27  C20 UNK     1      18.384   2.070  32.059  1.00  0.00     0.034 C 
ENDBRANCH  25  26
ENDBRANCH   8  25
TORSDOF 4
ENDMDL
MODEL 9
REMARK VINA RESULT:      -8.2      6.661     11.689
REMARK  4 active torsions:
REMARK  status: ('A' for Active; 'I' for Inactive)
REMARK    1  A    between atoms: C10_16  and  O3_3 
REMARK    2  A    between atoms: C19_25  and  O3_3 
REMARK    3  A    between atoms: C14_20  and  O4_4 
REMARK    4  A    between atoms: C1_7  and  C2_8 
ROOT
HETATM    1  O1  UNK     1      21.178  -4.674  36.772  1.00  0.00    -0.271 OA
HETATM    2  O5  UNK     1      21.569  -2.453  36.448  1.00  0.00    -0.259 OA
HETATM    3  C2  UNK     1      19.287  -3.137  36.446  1.00  0.00     0.052 A 
HETATM    4  C4  UNK     1      18.904  -5.519  36.795  1.00  0.00     0.002 A 
HETATM    5  C5  UNK     1      18.431  -4.163  36.565  1.00  0.00     0.032 A 
HETATM    6  C6  UNK     1      20.271  -5.743  36.894  1.00  0.00     0.123 A 
HETATM    7  C8  UNK     1      20.756  -3.366  36.549  1.00  0.00     0.299 A 
HETATM    8  C10 UNK     1      20.792  -7.016  37.114  1.00  0.00     0.103 A 
HETATM    9  C12 UNK     1      18.031  -6.602  36.922  1.00  0.00     0.014 A 
HETATM   10  C16 UNK     1      19.915  -8.092  37.238  1.00  0.00     0.040 A 
HETATM   11  C18 UNK     1      18.538  -7.886  37.143  1.00  0.00     0.004 A 
ENDROOT
BRANCH   3  12
HETATM   12  C1  UNK     1      18.800  -1.791  36.218  1.00  0.00    -0.001 A 
HETATM   13  C3  UNK     1      18.795  -1.112  34.908  1.00  0.00     0.009 A 
HETATM   14  C11 UNK     1      19.248  -1.710  33.723  1.00  0.00     0.018 A 
HETATM   15  C7  UNK     1      18.312   0.195  34.821  1.00  0.00     0.093 A 
HETATM   16  C15 UNK     1      19.220  -1.015  32.509  1.00  0.00     0.038 A 
HETATM   17  C14 UNK     1      18.735   0.290  32.456  1.00  0.00     0.070 A 
HETATM   18  C13 UNK     1      18.278   0.902  33.617  1.00  0.00     0.075 A 
HETATM   19  O2  UNK     1      17.827   0.873  35.955  1.00  0.00    -0.275 OA
HETATM   20  C17 UNK     1      17.804   0.267  37.198  1.00  0.00     0.289 A 
HETATM   21  O6  UNK     1      17.377   0.840  38.194  1.00  0.00    -0.260 OA
HETATM   22  C9  UNK     1      18.323  -1.110  37.274  1.00  0.00     0.096 A 
BRANCH  17  23
HETATM   23  O4  UNK     1      18.709   0.961  31.272  1.00  0.00    -0.356 OA
HETATM   24  C21 UNK     1      19.558   0.476  30.232  1.00  0.00     0.210 C 
ENDBRANCH  17  23
ENDBRANCH   3  12
BRANCH   8  25
HETATM   25  O3  UNK     1      22.133  -7.221  37.207  1.00  0.00    -0.349 OA
BRANCH  25  26
HETATM   26  C19 UNK     1      22.603  -7.941  38.346  1.00  0.00     0.171 C 
HETATM   27  C20 UNK     1      22.697  -6.994  39.523  1.00  0.00     0.034 C 
ENDBRANCH  25  26
ENDBRANCH   8  25
TORSDOF 4
ENDMDL
MODEL 10
REMARK VINA RESULT:      -8.2      1.924      7.920
REMARK  4 active torsions:
REMARK  status: ('A' for Active; 'I' for Inactive)
REMARK    1  A    between atoms: C10_16  and  O3_3 
REMARK    2  A    between atoms: C19_25  and  O3_3 
REMARK    3  A    between atoms: C14_20  and  O4_4 
REMARK    4  A    between atoms: C1_7  and  C2_8 
ROOT
HETATM    1  O1  UNK     1      18.422   2.853  33.009  1.00  0.00    -0.271 OA
HETATM    2  O5  UNK     1      18.231   4.335  34.730  1.00  0.00    -0.259 OA
HETATM    3  C2  UNK     1      18.354   5.265  32.541  1.00  0.00     0.052 A 
HETATM    4  C4  UNK     1      18.557   3.653  30.723  1.00  0.00     0.002 A 
HETATM    5  C5  UNK     1      18.462   5.014  31.227  1.00  0.00     0.032 A 
HETATM    6  C6  UNK     1      18.535   2.601  31.629  1.00  0.00     0.123 A 
HETATM    7  C8  UNK     1      18.330   4.145  33.522  1.00  0.00     0.299 A 
HETATM    8  C10 UNK     1      18.622   1.274  31.216  1.00  0.00     0.103 A 
HETATM    9  C12 UNK     1      18.670   3.369  29.360  1.00  0.00     0.014 A 
HETATM   10  C16 UNK     1      18.735   0.997  29.855  1.00  0.00     0.040 A 
HETATM   11  C18 UNK     1      18.758   2.042  28.928  1.00  0.00     0.004 A 
ENDROOT
BRANCH   3  12
HETATM   12  C1  UNK     1      18.258   6.627  33.026  1.00  0.00    -0.001 A 
HETATM   13  C3  UNK     1      17.023   7.435  33.017  1.00  0.00     0.009 A 
HETATM   14  C11 UNK     1      15.789   6.959  32.551  1.00  0.00     0.018 A 
HETATM   15  C7  UNK     1      17.064   8.745  33.499  1.00  0.00     0.093 A 
HETATM   16  C15 UNK     1      14.651   7.773  32.567  1.00  0.00     0.038 A 
HETATM   17  C14 UNK     1      14.724   9.078  33.051  1.00  0.00     0.070 A 
HETATM   18  C13 UNK     1      15.936   9.569  33.521  1.00  0.00     0.075 A 
HETATM   19  O2  UNK     1      18.254   9.306  33.997  1.00  0.00    -0.275 OA
HETATM   20  C17 UNK     1      19.429   8.577  34.033  1.00  0.00     0.289 A 
HETATM   21  O6  UNK     1      20.474   9.047  34.471  1.00  0.00    -0.260 OA
HETATM   22  C9  UNK     1      19.372   7.199  33.514  1.00  0.00     0.096 A 
BRANCH  17  23
HETATM   23  O4  UNK     1      13.614   9.864  33.065  1.00  0.00    -0.356 OA
HETATM   24  C21 UNK     1      13.817  11.276  33.009  1.00  0.00     0.210 C 
ENDBRANCH  17  23
ENDBRANCH   3  12
BRANCH   8  25
HETATM   25  O3  UNK     1      18.601   0.253  32.114  1.00  0.00    -0.349 OA
BRANCH  25  26
HETATM   26  C19 UNK     1      19.352  -0.916  31.789  1.00  0.00     0.171 C 
HETATM   27  C20 UNK     1      19.524  -1.754  33.037  1.00  0.00     0.034 C 
ENDBRANCH  25  26
ENDBRANCH   8  25
TORSDOF 4
ENDMDL
