MODEL 1
REMARK VINA RESULT:      -8.1      0.000      0.000
REMARK  4 active torsions:
REMARK  status: ('A' for Active; 'I' for Inactive)
REMARK    1  A    between atoms: C9_14  and  O2_2 
REMARK    2  A    between atoms: C6_11  and  O3_3 
REMARK    3  A    between atoms: C15_20  and  O5_5 
REMARK    4  A    between atoms: C3_8  and  C5_10 
ROOT
HETATM    1  O1  UNK     1      17.754   8.332  33.246  1.00  0.00    -0.309 OA
HETATM    2  O4  UNK     1      14.419   7.151  31.228  1.00  0.00    -0.287 OA
HETATM    3  C1  UNK     1      15.361   8.540  32.891  1.00  0.00     0.081 A 
HETATM    4  C2  UNK     1      16.540   8.899  33.540  1.00  0.00     0.095 A 
HETATM    5  C3  UNK     1      17.806   7.355  32.263  1.00  0.00     0.090 A 
HETATM    6  C4  UNK     1      15.413   7.511  31.841  1.00  0.00     0.190 A 
HETATM    7  C6  UNK     1      14.152   9.152  33.232  1.00  0.00     0.085 A 
HETATM    8  C7  UNK     1      16.742   6.930  31.563  1.00  0.00     0.094 A 
HETATM    9  C8  UNK     1      16.518   9.874  34.538  1.00  0.00     0.075 A 
HETATM   10  C9  UNK     1      15.313  10.487  34.881  1.00  0.00     0.073 A 
HETATM   11  C10 UNK     1      14.133  10.126  34.230  1.00  0.00     0.074 A 
ENDROOT
BRANCH   5  12
HETATM   12  C5  UNK     1      19.160   6.817  32.022  1.00  0.00    -0.002 A 
HETATM   13  C11 UNK     1      20.141   6.916  33.011  1.00  0.00     0.017 A 
HETATM   14  C13 UNK     1      21.420   6.408  32.783  1.00  0.00     0.037 A 
HETATM   15  C15 UNK     1      21.722   5.801  31.564  1.00  0.00     0.065 A 
HETATM   16  C14 UNK     1      20.746   5.701  30.573  1.00  0.00     0.037 A 
HETATM   17  C12 UNK     1      19.467   6.209  30.802  1.00  0.00     0.017 A 
BRANCH  15  18
HETATM   18  O5  UNK     1      22.971   5.307  31.341  1.00  0.00    -0.361 OA
HETATM   19  H12 UNK     1      23.034   5.015  30.416  1.00  0.00     0.217 HD
ENDBRANCH  15  18
ENDBRANCH   5  12
BRANCH   7  20
HETATM   20  O3  UNK     1      12.974   8.837  32.626  1.00  0.00    -0.360 OA
HETATM   21  H8  UNK     1      13.134   8.348  31.805  1.00  0.00     0.217 HD
ENDBRANCH   7  20
BRANCH  10  22
HETATM   22  O2  UNK     1      15.289  11.439  35.854  1.00  0.00    -0.356 OA
HETATM   23  C16 UNK     1      15.924  12.683  35.561  1.00  0.00     0.210 C 
ENDBRANCH  10  22
TORSDOF 4
ENDMDL
MODEL 2
REMARK VINA RESULT:      -8.1      5.346      9.214
REMARK  4 active torsions:
REMARK  status: ('A' for Active; 'I' for Inactive)
REMARK    1  A    between atoms: C9_14  and  O2_2 
REMARK    2  A    between atoms: C6_11  and  O3_3 
REMARK    3  A    between atoms: C15_20  and  O5_5 
REMARK    4  A    between atoms: C3_8  and  C5_10 
ROOT
HETATM    1  O1  UNK     1      19.265   1.967  31.396  1.00  0.00    -0.309 OA
HETATM    2  O4  UNK     1      17.972   1.724  27.540  1.00  0.00    -0.287 OA
HETATM    3  C1  UNK     1      19.043   0.662  29.360  1.00  0.00     0.081 A 
HETATM    4  C2  UNK     1      19.458   0.812  30.681  1.00  0.00     0.095 A 
HETATM    5  C3  UNK     1      18.634   3.032  30.770  1.00  0.00     0.090 A 
HETATM    6  C4  UNK     1      18.366   1.786  28.696  1.00  0.00     0.190 A 
HETATM    7  C6  UNK     1      19.267  -0.538  28.681  1.00  0.00     0.085 A 
HETATM    8  C7  UNK     1      18.184   3.008  29.506  1.00  0.00     0.094 A 
HETATM    9  C8  UNK     1      20.101  -0.240  31.334  1.00  0.00     0.075 A 
HETATM   10  C9  UNK     1      20.326  -1.440  30.660  1.00  0.00     0.073 A 
HETATM   11  C10 UNK     1      19.910  -1.588  29.336  1.00  0.00     0.074 A 
ENDROOT
BRANCH   5  12
HETATM   12  C5  UNK     1      18.471   4.222  31.631  1.00  0.00    -0.002 A 
HETATM   13  C11 UNK     1      18.622   5.502  31.094  1.00  0.00     0.017 A 
HETATM   14  C13 UNK     1      18.468   6.626  31.906  1.00  0.00     0.037 A 
HETATM   15  C15 UNK     1      18.165   6.471  33.259  1.00  0.00     0.065 A 
HETATM   16  C14 UNK     1      18.014   5.194  33.799  1.00  0.00     0.037 A 
HETATM   17  C12 UNK     1      18.167   4.072  32.986  1.00  0.00     0.017 A 
BRANCH  15  18
HETATM   18  O5  UNK     1      18.016   7.568  34.052  1.00  0.00    -0.361 OA
HETATM   19  H12 UNK     1      18.483   7.416  34.891  1.00  0.00     0.217 HD
ENDBRANCH  15  18
ENDBRANCH   5  12
BRANCH   7  20
HETATM   20  O3  UNK     1      18.880  -0.734  27.390  1.00  0.00    -0.360 OA
HETATM   21  H8  UNK     1      19.177  -0.000  26.830  1.00  0.00     0.217 HD
ENDBRANCH   7  20
BRANCH  10  22
HETATM   22  O2  UNK     1      20.953  -2.468  31.294  1.00  0.00    -0.356 OA
HETATM   23  C16 UNK     1      20.885  -2.490  32.719  1.00  0.00     0.210 C 
ENDBRANCH  10  22
TORSDOF 4
ENDMDL
MODEL 3
REMARK VINA RESULT:      -8.0      5.337      7.736
REMARK  4 active torsions:
REMARK  status: ('A' for Active; 'I' for Inactive)
REMARK    1  A    between atoms: C9_14  and  O2_2 
REMARK    2  A    between atoms: C6_11  and  O3_3 
REMARK    3  A    between atoms: C15_20  and  O5_5 
REMARK    4  A    between atoms: C3_8  and  C5_10 
ROOT
HETATM    1  O1  UNK     1      18.255   3.638  34.293  1.00  0.00    -0.309 OA
HETATM    2  O4  UNK     1      18.354   1.550  30.797  1.00  0.00    -0.287 OA
HETATM    3  C1  UNK     1      18.335   1.492  33.159  1.00  0.00     0.081 A 
HETATM    4  C2  UNK     1      18.297   2.266  34.316  1.00  0.00     0.095 A 
HETATM    5  C3  UNK     1      18.256   4.277  33.063  1.00  0.00     0.090 A 
HETATM    6  C4  UNK     1      18.327   2.166  31.852  1.00  0.00     0.190 A 
HETATM    7  C6  UNK     1      18.377   0.098  33.243  1.00  0.00     0.085 A 
HETATM    8  C7  UNK     1      18.283   3.643  31.881  1.00  0.00     0.094 A 
HETATM    9  C8  UNK     1      18.302   1.651  35.568  1.00  0.00     0.075 A 
HETATM   10  C9  UNK     1      18.344   0.259  35.656  1.00  0.00     0.073 A 
HETATM   11  C10 UNK     1      18.382  -0.515  34.495  1.00  0.00     0.074 A 
ENDROOT
BRANCH   5  12
HETATM   12  C5  UNK     1      18.202   5.751  33.154  1.00  0.00    -0.002 A 
HETATM   13  C11 UNK     1      19.244   6.456  33.760  1.00  0.00     0.017 A 
HETATM   14  C13 UNK     1      19.192   7.847  33.846  1.00  0.00     0.037 A 
HETATM   15  C15 UNK     1      18.098   8.537  33.325  1.00  0.00     0.065 A 
HETATM   16  C14 UNK     1      17.055   7.837  32.719  1.00  0.00     0.037 A 
HETATM   17  C12 UNK     1      17.107   6.446  32.633  1.00  0.00     0.017 A 
BRANCH  15  18
HETATM   18  O5  UNK     1      18.047   9.895  33.409  1.00  0.00    -0.361 OA
HETATM   19  H12 UNK     1      18.945  10.235  33.563  1.00  0.00     0.217 HD
ENDBRANCH  15  18
ENDBRANCH   5  12
BRANCH   7  20
HETATM   20  O3  UNK     1      18.414  -0.703  32.141  1.00  0.00    -0.360 OA
HETATM   21  H8  UNK     1      17.517  -0.956  31.875  1.00  0.00     0.217 HD
ENDBRANCH   7  20
BRANCH  10  22
HETATM   22  O2  UNK     1      18.348  -0.345  36.876  1.00  0.00    -0.356 OA
HETATM   23  C16 UNK     1      17.996  -1.727  36.917  1.00  0.00     0.210 C 
ENDBRANCH  10  22
TORSDOF 4
ENDMDL
MODEL 4
REMARK VINA RESULT:      -7.9     23.593     25.975
REMARK  4 active torsions:
REMARK  status: ('A' for Active; 'I' for Inactive)
REMARK    1  A    between atoms: C9_14  and  O2_2 
REMARK    2  A    between atoms: C6_11  and  O3_3 
REMARK    3  A    between atoms: C15_20  and  O5_5 
REMARK    4  A    between atoms: C3_8  and  C5_10 
ROOT
HETATM    1  O1  UNK     1       9.629   5.583   9.673  1.00  0.00    -0.309 OA
HETATM    2  O4  UNK     1       9.414   6.505   5.711  1.00  0.00    -0.287 OA
HETATM    3  C1  UNK     1      10.770   5.921   7.555  1.00  0.00     0.081 A 
HETATM    4  C2  UNK     1      10.771   5.611   8.914  1.00  0.00     0.095 A 
HETATM    5  C3  UNK     1       8.422   5.882   9.059  1.00  0.00     0.090 A 
HETATM    6  C4  UNK     1       9.491   6.230   6.899  1.00  0.00     0.190 A 
HETATM    7  C6  UNK     1      11.965   5.934   6.832  1.00  0.00     0.085 A 
HETATM    8  C7  UNK     1       8.290   6.188   7.759  1.00  0.00     0.094 A 
HETATM    9  C8  UNK     1      11.972   5.313   9.560  1.00  0.00     0.075 A 
HETATM   10  C9  UNK     1      13.167   5.325   8.841  1.00  0.00     0.073 A 
HETATM   11  C10 UNK     1      13.163   5.635   7.480  1.00  0.00     0.074 A 
ENDROOT
BRANCH   5  12
HETATM   12  C5  UNK     1       7.256   5.817   9.964  1.00  0.00    -0.002 A 
HETATM   13  C11 UNK     1       6.556   4.618  10.121  1.00  0.00     0.017 A 
HETATM   14  C13 UNK     1       5.455   4.556  10.976  1.00  0.00     0.037 A 
HETATM   15  C15 UNK     1       5.051   5.694  11.675  1.00  0.00     0.065 A 
HETATM   16  C14 UNK     1       5.748   6.892  11.521  1.00  0.00     0.037 A 
HETATM   17  C12 UNK     1       6.848   6.953  10.667  1.00  0.00     0.017 A 
BRANCH  15  18
HETATM   18  O5  UNK     1       3.976   5.634  12.508  1.00  0.00    -0.361 OA
HETATM   19  H12 UNK     1       3.969   4.768  12.952  1.00  0.00     0.217 HD
ENDBRANCH  15  18
ENDBRANCH   5  12
BRANCH   7  20
HETATM   20  O3  UNK     1      12.016   6.229   5.504  1.00  0.00    -0.360 OA
HETATM   21  H8  UNK     1      12.227   5.436   4.987  1.00  0.00     0.217 HD
ENDBRANCH   7  20
BRANCH  10  22
HETATM   22  O2  UNK     1      14.340   5.033   9.468  1.00  0.00    -0.356 OA
HETATM   23  C16 UNK     1      15.007   6.107  10.129  1.00  0.00     0.210 C 
ENDBRANCH  10  22
TORSDOF 4
ENDMDL
MODEL 5
REMARK VINA RESULT:      -7.8     15.604     18.395
REMARK  4 active torsions:
REMARK  status: ('A' for Active; 'I' for Inactive)
REMARK    1  A    between atoms: C9_14  and  O2_2 
REMARK    2  A    between atoms: C6_11  and  O3_3 
REMARK    3  A    between atoms: C15_20  and  O5_5 
REMARK    4  A    between atoms: C3_8  and  C5_10 
ROOT
HETATM    1  O1  UNK     1      18.968  -1.076  17.660  1.00  0.00    -0.309 OA
HETATM    2  O4  UNK     1      19.360   2.014  15.033  1.00  0.00    -0.287 OA
HETATM    3  C1  UNK     1      19.099   1.319  17.277  1.00  0.00     0.081 A 
HETATM    4  C2  UNK     1      18.972   0.217  18.120  1.00  0.00     0.095 A 
HETATM    5  C3  UNK     1      19.092  -1.291  16.296  1.00  0.00     0.090 A 
HETATM    6  C4  UNK     1      19.240   1.094  15.830  1.00  0.00     0.190 A 
HETATM    7  C6  UNK     1      19.096   2.614  17.801  1.00  0.00     0.085 A 
HETATM    8  C7  UNK     1      19.228  -0.314  15.385  1.00  0.00     0.094 A 
HETATM    9  C8  UNK     1      18.839   0.403  19.496  1.00  0.00     0.075 A 
HETATM   10  C9  UNK     1      18.835   1.695  20.024  1.00  0.00     0.073 A 
HETATM   11  C10 UNK     1      18.963   2.797  19.178  1.00  0.00     0.074 A 
ENDROOT
BRANCH   5  12
HETATM   12  C5  UNK     1      19.083  -2.717  15.911  1.00  0.00    -0.002 A 
HETATM   13  C11 UNK     1      17.886  -3.340  15.551  1.00  0.00     0.017 A 
HETATM   14  C13 UNK     1      17.878  -4.687  15.187  1.00  0.00     0.037 A 
HETATM   15  C15 UNK     1      19.068  -5.414  15.184  1.00  0.00     0.065 A 
HETATM   16  C14 UNK     1      20.266  -4.796  15.543  1.00  0.00     0.037 A 
HETATM   17  C12 UNK     1      20.273  -3.450  15.905  1.00  0.00     0.017 A 
BRANCH  15  18
HETATM   18  O5  UNK     1      19.060  -6.729  14.830  1.00  0.00    -0.361 OA
HETATM   19  H12 UNK     1      19.088  -6.795  13.860  1.00  0.00     0.217 HD
ENDBRANCH  15  18
ENDBRANCH   5  12
BRANCH   7  20
HETATM   20  O3  UNK     1      19.219   3.723  17.020  1.00  0.00    -0.360 OA
HETATM   21  H8  UNK     1      18.506   4.352  17.208  1.00  0.00     0.217 HD
ENDBRANCH   7  20
BRANCH  10  22
HETATM   22  O2  UNK     1      18.707   1.880  21.366  1.00  0.00    -0.356 OA
HETATM   23  C16 UNK     1      19.897   2.167  22.099  1.00  0.00     0.210 C 
ENDBRANCH  10  22
TORSDOF 4
ENDMDL
MODEL 6
REMARK VINA RESULT:      -7.8      5.441      6.635
REMARK  4 active torsions:
REMARK  status: ('A' for Active; 'I' for Inactive)
REMARK    1  A    between atoms: C9_14  and  O2_2 
REMARK    2  A    between atoms: C6_11  and  O3_3 
REMARK    3  A    between atoms: C15_20  and  O5_5 
REMARK    4  A    between atoms: C3_8  and  C5_10 
ROOT
HETATM    1  O1  UNK     1      18.243   3.560  34.111  1.00  0.00    -0.309 OA
HETATM    2  O4  UNK     1      18.585   2.643  30.157  1.00  0.00    -0.287 OA
HETATM    3  C1  UNK     1      18.507   4.320  31.820  1.00  0.00     0.081 A 
HETATM    4  C2  UNK     1      18.387   4.563  33.186  1.00  0.00     0.095 A 
HETATM    5  C3  UNK     1      18.209   2.248  33.662  1.00  0.00     0.090 A 
HETATM    6  C4  UNK     1      18.481   2.930  31.340  1.00  0.00     0.190 A 
HETATM    7  C6  UNK     1      18.651   5.382  30.924  1.00  0.00     0.085 A 
HETATM    8  C7  UNK     1      18.322   1.887  32.374  1.00  0.00     0.094 A 
HETATM    9  C8  UNK     1      18.409   5.873  33.667  1.00  0.00     0.075 A 
HETATM   10  C9  UNK     1      18.554   6.936  32.775  1.00  0.00     0.073 A 
HETATM   11  C10 UNK     1      18.674   6.690  31.406  1.00  0.00     0.074 A 
ENDROOT
BRANCH   5  12
HETATM   12  C5  UNK     1      18.058   1.249  34.739  1.00  0.00    -0.002 A 
HETATM   13  C11 UNK     1      17.901   1.663  36.064  1.00  0.00     0.017 A 
HETATM   14  C13 UNK     1      17.758   0.719  37.081  1.00  0.00     0.037 A 
HETATM   15  C15 UNK     1      17.773  -0.642  36.776  1.00  0.00     0.065 A 
HETATM   16  C14 UNK     1      17.930  -1.060  35.455  1.00  0.00     0.037 A 
HETATM   17  C12 UNK     1      18.073  -0.116  34.438  1.00  0.00     0.017 A 
BRANCH  15  18
HETATM   18  O5  UNK     1      17.635  -1.563  37.769  1.00  0.00    -0.361 OA
HETATM   19  H12 UNK     1      16.723  -1.531  38.105  1.00  0.00     0.217 HD
ENDBRANCH  15  18
ENDBRANCH   5  12
BRANCH   7  20
HETATM   20  O3  UNK     1      18.773   5.197  29.580  1.00  0.00    -0.360 OA
HETATM   21  H8  UNK     1      19.691   4.988  29.347  1.00  0.00     0.217 HD
ENDBRANCH   7  20
BRANCH  10  22
HETATM   22  O2  UNK     1      18.577   8.214  33.241  1.00  0.00    -0.356 OA
HETATM   23  C16 UNK     1      19.414   8.480  34.366  1.00  0.00     0.210 C 
ENDBRANCH  10  22
TORSDOF 4
ENDMDL
MODEL 7
REMARK VINA RESULT:      -7.7      7.364     10.011
REMARK  4 active torsions:
REMARK  status: ('A' for Active; 'I' for Inactive)
REMARK    1  A    between atoms: C9_14  and  O2_2 
REMARK    2  A    between atoms: C6_11  and  O3_3 
REMARK    3  A    between atoms: C15_20  and  O5_5 
REMARK    4  A    between atoms: C3_8  and  C5_10 
ROOT
HETATM    1  O1  UNK     1      18.925   0.255  32.827  1.00  0.00    -0.309 OA
HETATM    2  O4  UNK     1      20.412  -2.435  30.153  1.00  0.00    -0.287 OA
HETATM    3  C1  UNK     1      19.547  -0.270  30.539  1.00  0.00     0.081 A 
HETATM    4  C2  UNK     1      19.049   0.601  31.505  1.00  0.00     0.095 A 
HETATM    5  C3  UNK     1      19.307  -1.021  33.213  1.00  0.00     0.090 A 
HETATM    6  C4  UNK     1      19.962  -1.620  30.946  1.00  0.00     0.190 A 
HETATM    7  C6  UNK     1      19.651   0.138  29.207  1.00  0.00     0.085 A 
HETATM    8  C7  UNK     1      19.807  -1.946  32.379  1.00  0.00     0.094 A 
HETATM    9  C8  UNK     1      18.649   1.889  31.145  1.00  0.00     0.075 A 
HETATM   10  C9  UNK     1      18.752   2.299  29.815  1.00  0.00     0.073 A 
HETATM   11  C10 UNK     1      19.251   1.425  28.849  1.00  0.00     0.074 A 
ENDROOT
BRANCH   5  12
HETATM   12  C5  UNK     1      19.139  -1.286  34.657  1.00  0.00    -0.002 A 
HETATM   13  C11 UNK     1      18.203  -0.562  35.399  1.00  0.00     0.017 A 
HETATM   14  C13 UNK     1      18.044  -0.812  36.762  1.00  0.00     0.037 A 
HETATM   15  C15 UNK     1      18.822  -1.788  37.386  1.00  0.00     0.065 A 
HETATM   16  C14 UNK     1      19.757  -2.513  36.649  1.00  0.00     0.037 A 
HETATM   17  C12 UNK     1      19.915  -2.263  35.287  1.00  0.00     0.017 A 
BRANCH  15  18
HETATM   18  O5  UNK     1      18.667  -2.031  38.717  1.00  0.00    -0.361 OA
HETATM   19  H12 UNK     1      19.531  -1.946  39.156  1.00  0.00     0.217 HD
ENDBRANCH  15  18
ENDBRANCH   5  12
BRANCH   7  20
HETATM   20  O3  UNK     1      20.132  -0.676  28.226  1.00  0.00    -0.360 OA
HETATM   21  H8  UNK     1      20.390  -0.156  27.449  1.00  0.00     0.217 HD
ENDBRANCH   7  20
BRANCH  10  22
HETATM   22  O2  UNK     1      18.364   3.555  29.461  1.00  0.00    -0.356 OA
HETATM   23  C16 UNK     1      19.015   4.644  30.113  1.00  0.00     0.210 C 
ENDBRANCH  10  22
TORSDOF 4
ENDMDL
MODEL 8
REMARK VINA RESULT:      -7.7      5.975      8.209
REMARK  4 active torsions:
REMARK  status: ('A' for Active; 'I' for Inactive)
REMARK    1  A    between atoms: C9_14  and  O2_2 
REMARK    2  A    between atoms: C6_11  and  O3_3 
REMARK    3  A    between atoms: C15_20  and  O5_5 
REMARK    4  A    between atoms: C3_8  and  C5_10 
ROOT
HETATM    1  O1  UNK     1      18.232   1.710  33.036  1.00  0.00    -0.309 OA
HETATM    2  O4  UNK     1      18.601   5.683  33.856  1.00  0.00    -0.287 OA
HETATM    3  C1  UNK     1      18.453   3.986  32.218  1.00  0.00     0.081 A 
HETATM    4  C2  UNK     1      18.323   2.615  32.009  1.00  0.00     0.095 A 
HETATM    5  C3  UNK     1      18.278   2.183  34.338  1.00  0.00     0.090 A 
HETATM    6  C4  UNK     1      18.493   4.493  33.598  1.00  0.00     0.190 A 
HETATM    7  C6  UNK     1      18.542   4.861  31.133  1.00  0.00     0.085 A 
HETATM    8  C7  UNK     1      18.393   3.479  34.668  1.00  0.00     0.094 A 
HETATM    9  C8  UNK     1      18.282   2.108  30.709  1.00  0.00     0.075 A 
HETATM   10  C9  UNK     1      18.370   2.980  29.623  1.00  0.00     0.073 A 
HETATM   11  C10 UNK     1      18.500   4.353  29.835  1.00  0.00     0.074 A 
ENDROOT
BRANCH   5  12
HETATM   12  C5  UNK     1      18.165   1.127  35.364  1.00  0.00    -0.002 A 
HETATM   13  C11 UNK     1      17.823   1.458  36.678  1.00  0.00     0.017 A 
HETATM   14  C13 UNK     1      17.716   0.460  37.647  1.00  0.00     0.037 A 
HETATM   15  C15 UNK     1      17.953  -0.872  37.305  1.00  0.00     0.065 A 
HETATM   16  C14 UNK     1      18.295  -1.206  35.995  1.00  0.00     0.037 A 
HETATM   17  C12 UNK     1      18.400  -0.209  35.027  1.00  0.00     0.017 A 
BRANCH  15  18
HETATM   18  O5  UNK     1      17.850  -1.845  38.251  1.00  0.00    -0.361 OA
HETATM   19  H12 UNK     1      18.037  -2.706  37.840  1.00  0.00     0.217 HD
ENDBRANCH  15  18
ENDBRANCH   5  12
BRANCH   7  20
HETATM   20  O3  UNK     1      18.669   6.209  31.286  1.00  0.00    -0.360 OA
HETATM   21  H8  UNK     1      17.912   6.669  30.890  1.00  0.00     0.217 HD
ENDBRANCH   7  20
BRANCH  10  22
HETATM   22  O2  UNK     1      18.329   2.489  28.354  1.00  0.00    -0.356 OA
HETATM   23  C16 UNK     1      18.133   1.083  28.207  1.00  0.00     0.210 C 
ENDBRANCH  10  22
TORSDOF 4
ENDMDL
MODEL 9
REMARK VINA RESULT:      -7.6      3.182      4.560
REMARK  4 active torsions:
REMARK  status: ('A' for Active; 'I' for Inactive)
REMARK    1  A    between atoms: C9_14  and  O2_2 
REMARK    2  A    between atoms: C6_11  and  O3_3 
REMARK    3  A    between atoms: C15_20  and  O5_5 
REMARK    4  A    between atoms: C3_8  and  C5_10 
ROOT
HETATM    1  O1  UNK     1      17.334   5.148  31.915  1.00  0.00    -0.309 OA
HETATM    2  O4  UNK     1      20.715   7.082  33.108  1.00  0.00    -0.287 OA
HETATM    3  C1  UNK     1      18.354   6.996  33.118  1.00  0.00     0.081 A 
HETATM    4  C2  UNK     1      17.239   6.285  32.678  1.00  0.00     0.095 A 
HETATM    5  C3  UNK     1      18.596   4.693  31.563  1.00  0.00     0.090 A 
HETATM    6  C4  UNK     1      19.694   6.511  32.754  1.00  0.00     0.190 A 
HETATM    7  C6  UNK     1      18.197   8.147  33.893  1.00  0.00     0.085 A 
HETATM    8  C7  UNK     1      19.743   5.285  31.931  1.00  0.00     0.094 A 
HETATM    9  C8  UNK     1      15.957   6.723  33.011  1.00  0.00     0.075 A 
HETATM   10  C9  UNK     1      15.796   7.872  33.785  1.00  0.00     0.073 A 
HETATM   11  C10 UNK     1      16.914   8.583  34.224  1.00  0.00     0.074 A 
ENDROOT
BRANCH   5  12
HETATM   12  C5  UNK     1      18.583   3.461  30.748  1.00  0.00    -0.002 A 
HETATM   13  C11 UNK     1      18.997   2.248  31.303  1.00  0.00     0.017 A 
HETATM   14  C13 UNK     1      18.985   1.085  30.534  1.00  0.00     0.037 A 
HETATM   15  C15 UNK     1      18.560   1.132  29.206  1.00  0.00     0.065 A 
HETATM   16  C14 UNK     1      18.146   2.341  28.648  1.00  0.00     0.037 A 
HETATM   17  C12 UNK     1      18.158   3.504  29.418  1.00  0.00     0.017 A 
BRANCH  15  18
HETATM   18  O5  UNK     1      18.550  -0.003  28.455  1.00  0.00    -0.361 OA
HETATM   19  H12 UNK     1      17.804   0.037  27.832  1.00  0.00     0.217 HD
ENDBRANCH  15  18
ENDBRANCH   5  12
BRANCH   7  20
HETATM   20  O3  UNK     1      19.255   8.875  34.348  1.00  0.00    -0.360 OA
HETATM   21  H8  UNK     1      19.201   8.989  35.309  1.00  0.00     0.217 HD
ENDBRANCH   7  20
BRANCH  10  22
HETATM   22  O2  UNK     1      14.547   8.302  34.112  1.00  0.00    -0.356 OA
HETATM   23  C16 UNK     1      14.420   9.651  34.558  1.00  0.00     0.210 C 
ENDBRANCH  10  22
TORSDOF 4
ENDMDL
MODEL 10
REMARK VINA RESULT:      -7.6      4.395      8.203
REMARK  4 active torsions:
REMARK  status: ('A' for Active; 'I' for Inactive)
REMARK    1  A    between atoms: C9_14  and  O2_2 
REMARK    2  A    between atoms: C6_11  and  O3_3 
REMARK    3  A    between atoms: C15_20  and  O5_5 
REMARK    4  A    between atoms: C3_8  and  C5_10 
ROOT
HETATM    1  O1  UNK     1      18.214   4.158  31.537  1.00  0.00    -0.309 OA
HETATM    2  O4  UNK     1      18.653   1.584  34.664  1.00  0.00    -0.287 OA
HETATM    3  C1  UNK     1      18.656   1.903  32.323  1.00  0.00     0.081 A 
HETATM    4  C2  UNK     1      18.496   2.837  31.301  1.00  0.00     0.095 A 
HETATM    5  C3  UNK     1      18.077   4.579  32.852  1.00  0.00     0.090 A 
HETATM    6  C4  UNK     1      18.521   2.347  33.718  1.00  0.00     0.190 A 
HETATM    7  C6  UNK     1      18.943   0.569  32.022  1.00  0.00     0.085 A 
HETATM    8  C7  UNK     1      18.215   3.779  33.920  1.00  0.00     0.094 A 
HETATM    9  C8  UNK     1      18.621   2.441  29.969  1.00  0.00     0.075 A 
HETATM   10  C9  UNK     1      18.908   1.110  29.665  1.00  0.00     0.073 A 
HETATM   11  C10 UNK     1      19.068   0.177  30.690  1.00  0.00     0.074 A 
ENDROOT
BRANCH   5  12
HETATM   12  C5  UNK     1      17.780   6.019  32.993  1.00  0.00    -0.002 A 
HETATM   13  C11 UNK     1      16.570   6.536  32.525  1.00  0.00     0.017 A 
HETATM   14  C13 UNK     1      16.290   7.896  32.658  1.00  0.00     0.037 A 
HETATM   15  C15 UNK     1      17.222   8.743  33.259  1.00  0.00     0.065 A 
HETATM   16  C14 UNK     1      18.432   8.232  33.727  1.00  0.00     0.037 A 
HETATM   17  C12 UNK     1      18.710   6.872  33.594  1.00  0.00     0.017 A 
BRANCH  15  18
HETATM   18  O5  UNK     1      16.949  10.071  33.387  1.00  0.00    -0.361 OA
HETATM   19  H12 UNK     1      16.416  10.208  34.189  1.00  0.00     0.217 HD
ENDBRANCH  15  18
ENDBRANCH   5  12
BRANCH   7  20
HETATM   20  O3  UNK     1      19.110  -0.380  32.985  1.00  0.00    -0.360 OA
HETATM   21  H8  UNK     1      18.289  -0.505  33.485  1.00  0.00     0.217 HD
ENDBRANCH   7  20
BRANCH  10  22
HETATM   22  O2  UNK     1      19.031   0.722  28.366  1.00  0.00    -0.356 OA
HETATM   23  C16 UNK     1      19.430  -0.627  28.128  1.00  0.00     0.210 C 
ENDBRANCH  10  22
TORSDOF 4
ENDMDL
