MODEL 1
REMARK VINA RESULT:      -9.0      0.000      0.000
REMARK  3 active torsions:
REMARK  status: ('A' for Active; 'I' for Inactive)
REMARK    1  A    between atoms: C5_9  and  O2_2 
REMARK    2  A    between atoms: C9_13  and  O4_4 
REMARK    3  A    between atoms: C1_5  and  C4_8 
ROOT
HETATM    1  O1  UNK     1      13.212   7.534   8.467  1.00  0.00    -0.306 OA
HETATM    2  O3  UNK     1      15.238   4.235   9.739  1.00  0.00    -0.284 OA
HETATM    3  C1  UNK     1      12.668   6.264   8.359  1.00  0.00     0.126 A 
HETATM    4  C2  UNK     1      15.197   6.580   9.488  1.00  0.00     0.051 A 
HETATM    5  C3  UNK     1      14.454   7.666   9.031  1.00  0.00     0.090 A 
HETATM    6  C5  UNK     1      13.283   5.133   8.751  1.00  0.00     0.152 A 
HETATM    7  C6  UNK     1      14.631   5.228   9.362  1.00  0.00     0.220 A 
HETATM    8  C7  UNK     1      16.459   6.776  10.055  1.00  0.00     0.018 A 
HETATM    9  C8  UNK     1      14.971   8.958   9.138  1.00  0.00     0.038 A 
HETATM   10  C11 UNK     1      16.972   8.069  10.161  1.00  0.00     0.001 A 
HETATM   11  C12 UNK     1      16.230   9.158   9.702  1.00  0.00     0.003 A 
ENDROOT
BRANCH   3  12
HETATM   12  C4  UNK     1      11.332   6.263   7.737  1.00  0.00     0.034 A 
HETATM   13  C10 UNK     1      10.202   6.281   8.558  1.00  0.00     0.017 A 
HETATM   14  C14 UNK     1       8.927   6.280   7.993  1.00  0.00     0.001 A 
HETATM   15  C15 UNK     1       8.778   6.261   6.607  1.00  0.00     0.003 A 
HETATM   16  C13 UNK     1       9.905   6.242   5.784  1.00  0.00     0.037 A 
HETATM   17  C9  UNK     1      11.180   6.243   6.349  1.00  0.00     0.078 A 
BRANCH  17  18
HETATM   18  O4  UNK     1      12.265   6.225   5.522  1.00  0.00    -0.360 OA
HETATM   19  H10 UNK     1      11.968   6.061   4.611  1.00  0.00     0.217 HD
ENDBRANCH  17  18
ENDBRANCH   3  12
BRANCH   6  20
HETATM   20  O2  UNK     1      12.726   3.883   8.599  1.00  0.00    -0.355 OA
HETATM   21  H9  UNK     1      12.843   3.579   7.685  1.00  0.00     0.218 HD
ENDBRANCH   6  20
TORSDOF 3
ENDMDL
MODEL 2
REMARK VINA RESULT:      -8.9     23.818     26.131
REMARK  3 active torsions:
REMARK  status: ('A' for Active; 'I' for Inactive)
REMARK    1  A    between atoms: C5_9  and  O2_2 
REMARK    2  A    between atoms: C9_13  and  O4_4 
REMARK    3  A    between atoms: C1_5  and  C4_8 
ROOT
HETATM    1  O1  UNK     1      19.012  -0.172  32.805  1.00  0.00    -0.306 OA
HETATM    2  O3  UNK     1      18.711   2.897  30.140  1.00  0.00    -0.284 OA
HETATM    3  C1  UNK     1      18.462   1.048  33.165  1.00  0.00     0.126 A 
HETATM    4  C2  UNK     1      19.368   0.670  30.556  1.00  0.00     0.051 A 
HETATM    5  C3  UNK     1      19.446  -0.337  31.515  1.00  0.00     0.090 A 
HETATM    6  C5  UNK     1      18.339   2.104  32.340  1.00  0.00     0.152 A 
HETATM    7  C6  UNK     1      18.799   1.972  30.937  1.00  0.00     0.220 A 
HETATM    8  C7  UNK     1      19.826   0.444  29.256  1.00  0.00     0.018 A 
HETATM    9  C8  UNK     1      19.983  -1.580  31.178  1.00  0.00     0.038 A 
HETATM   10  C11 UNK     1      20.362  -0.800  28.922  1.00  0.00     0.001 A 
HETATM   11  C12 UNK     1      20.441  -1.810  29.881  1.00  0.00     0.003 A 
ENDROOT
BRANCH   3  12
HETATM   12  C4  UNK     1      18.037   1.093  34.576  1.00  0.00     0.034 A 
HETATM   13  C10 UNK     1      18.753   1.885  35.475  1.00  0.00     0.017 A 
HETATM   14  C14 UNK     1      18.371   1.944  36.814  1.00  0.00     0.001 A 
HETATM   15  C15 UNK     1      17.271   1.210  37.258  1.00  0.00     0.003 A 
HETATM   16  C13 UNK     1      16.554   0.417  36.362  1.00  0.00     0.037 A 
HETATM   17  C9  UNK     1      16.937   0.358  35.022  1.00  0.00     0.078 A 
BRANCH  17  18
HETATM   18  O4  UNK     1      16.218  -0.425  34.167  1.00  0.00    -0.360 OA
HETATM   19  H10 UNK     1      16.621  -0.384  33.283  1.00  0.00     0.217 HD
ENDBRANCH  17  18
ENDBRANCH   3  12
BRANCH   6  20
HETATM   20  O2  UNK     1      17.816   3.314  32.740  1.00  0.00    -0.355 OA
HETATM   21  H9  UNK     1      18.338   3.671  33.477  1.00  0.00     0.218 HD
ENDBRANCH   6  20
TORSDOF 3
ENDMDL
MODEL 3
REMARK VINA RESULT:      -8.7     24.690     26.871
REMARK  3 active torsions:
REMARK  status: ('A' for Active; 'I' for Inactive)
REMARK    1  A    between atoms: C5_9  and  O2_2 
REMARK    2  A    between atoms: C9_13  and  O4_4 
REMARK    3  A    between atoms: C1_5  and  C4_8 
ROOT
HETATM    1  O1  UNK     1      18.522   0.324  32.629  1.00  0.00    -0.306 OA
HETATM    2  O3  UNK     1      20.794  -3.055  32.796  1.00  0.00    -0.284 OA
HETATM    3  C1  UNK     1      18.601  -0.439  33.783  1.00  0.00     0.126 A 
HETATM    4  C2  UNK     1      20.041  -1.216  31.526  1.00  0.00     0.051 A 
HETATM    5  C3  UNK     1      19.243  -0.073  31.533  1.00  0.00     0.090 A 
HETATM    6  C5  UNK     1      19.324  -1.567  33.906  1.00  0.00     0.152 A 
HETATM    7  C6  UNK     1      20.116  -2.038  32.743  1.00  0.00     0.220 A 
HETATM    8  C7  UNK     1      20.754  -1.571  30.379  1.00  0.00     0.018 A 
HETATM    9  C8  UNK     1      19.154   0.721  30.389  1.00  0.00     0.038 A 
HETATM   10  C11 UNK     1      20.663  -0.774  29.237  1.00  0.00     0.001 A 
HETATM   11  C12 UNK     1      19.864   0.369  29.242  1.00  0.00     0.003 A 
ENDROOT
BRANCH   3  12
HETATM   12  C4  UNK     1      17.780   0.097  34.883  1.00  0.00     0.034 A 
HETATM   13  C10 UNK     1      16.416  -0.198  34.918  1.00  0.00     0.017 A 
HETATM   14  C14 UNK     1      15.619   0.298  35.949  1.00  0.00     0.001 A 
HETATM   15  C15 UNK     1      16.184   1.090  36.948  1.00  0.00     0.003 A 
HETATM   16  C13 UNK     1      17.547   1.387  36.915  1.00  0.00     0.037 A 
HETATM   17  C9  UNK     1      18.344   0.891  35.884  1.00  0.00     0.078 A 
BRANCH  17  18
HETATM   18  O4  UNK     1      19.673   1.197  35.877  1.00  0.00    -0.360 OA
HETATM   19  H10 UNK     1      20.024   1.073  34.978  1.00  0.00     0.217 HD
ENDBRANCH  17  18
ENDBRANCH   3  12
BRANCH   6  20
HETATM   20  O2  UNK     1      19.355  -2.320  35.059  1.00  0.00    -0.355 OA
HETATM   21  H9  UNK     1      19.801  -3.164  34.889  1.00  0.00     0.218 HD
ENDBRANCH   6  20
TORSDOF 3
ENDMDL
MODEL 4
REMARK VINA RESULT:      -8.7     24.548     26.746
REMARK  3 active torsions:
REMARK  status: ('A' for Active; 'I' for Inactive)
REMARK    1  A    between atoms: C5_9  and  O2_2 
REMARK    2  A    between atoms: C9_13  and  O4_4 
REMARK    3  A    between atoms: C1_5  and  C4_8 
ROOT
HETATM    1  O1  UNK     1      18.695   0.228  32.529  1.00  0.00    -0.306 OA
HETATM    2  O3  UNK     1      20.956  -3.162  32.583  1.00  0.00    -0.284 OA
HETATM    3  C1  UNK     1      18.813  -0.545  33.673  1.00  0.00     0.126 A 
HETATM    4  C2  UNK     1      20.164  -1.309  31.357  1.00  0.00     0.051 A 
HETATM    5  C3  UNK     1      19.372  -0.163  31.404  1.00  0.00     0.090 A 
HETATM    6  C5  UNK     1      19.536  -1.677  33.760  1.00  0.00     0.152 A 
HETATM    7  C6  UNK     1      20.281  -2.141  32.565  1.00  0.00     0.220 A 
HETATM    8  C7  UNK     1      20.832  -1.658  30.181  1.00  0.00     0.018 A 
HETATM    9  C8  UNK     1      19.244   0.641  30.271  1.00  0.00     0.038 A 
HETATM   10  C11 UNK     1      20.702  -0.851  29.050  1.00  0.00     0.001 A 
HETATM   11  C12 UNK     1      19.909   0.296  29.095  1.00  0.00     0.003 A 
ENDROOT
BRANCH   3  12
HETATM   12  C4  UNK     1      18.037  -0.014  34.808  1.00  0.00     0.034 A 
HETATM   13  C10 UNK     1      18.640   0.903  35.672  1.00  0.00     0.017 A 
HETATM   14  C14 UNK     1      17.927   1.419  36.753  1.00  0.00     0.001 A 
HETATM   15  C15 UNK     1      16.608   1.021  36.972  1.00  0.00     0.003 A 
HETATM   16  C13 UNK     1      16.003   0.105  36.111  1.00  0.00     0.037 A 
HETATM   17  C9  UNK     1      16.717  -0.411  35.030  1.00  0.00     0.078 A 
BRANCH  17  18
HETATM   18  O4  UNK     1      16.102  -1.304  34.203  1.00  0.00    -0.360 OA
HETATM   19  H10 UNK     1      16.515  -2.178  34.312  1.00  0.00     0.217 HD
ENDBRANCH  17  18
ENDBRANCH   3  12
BRANCH   6  20
HETATM   20  O2  UNK     1      19.606  -2.439  34.905  1.00  0.00    -0.355 OA
HETATM   21  H9  UNK     1      19.292  -1.923  35.664  1.00  0.00     0.218 HD
ENDBRANCH   6  20
TORSDOF 3
ENDMDL
MODEL 5
REMARK VINA RESULT:      -8.4     21.894     23.836
REMARK  3 active torsions:
REMARK  status: ('A' for Active; 'I' for Inactive)
REMARK    1  A    between atoms: C5_9  and  O2_2 
REMARK    2  A    between atoms: C9_13  and  O4_4 
REMARK    3  A    between atoms: C1_5  and  C4_8 
ROOT
HETATM    1  O1  UNK     1      19.604   1.311  31.240  1.00  0.00    -0.306 OA
HETATM    2  O3  UNK     1      18.774  -0.050  27.489  1.00  0.00    -0.284 OA
HETATM    3  C1  UNK     1      18.984   2.117  30.298  1.00  0.00     0.126 A 
HETATM    4  C2  UNK     1      19.665  -0.502  29.626  1.00  0.00     0.051 A 
HETATM    5  C3  UNK     1      19.924   0.025  30.890  1.00  0.00     0.090 A 
HETATM    6  C5  UNK     1      18.688   1.735  29.042  1.00  0.00     0.152 A 
HETATM    7  C6  UNK     1      19.021   0.354  28.618  1.00  0.00     0.220 A 
HETATM    8  C7  UNK     1      20.014  -1.821  29.326  1.00  0.00     0.018 A 
HETATM    9  C8  UNK     1      20.536  -0.767  31.863  1.00  0.00     0.038 A 
HETATM   10  C11 UNK     1      20.625  -2.610  30.301  1.00  0.00     0.001 A 
HETATM   11  C12 UNK     1      20.886  -2.084  31.567  1.00  0.00     0.003 A 
ENDROOT
BRANCH   3  12
HETATM   12  C4  UNK     1      18.694   3.471  30.802  1.00  0.00     0.034 A 
HETATM   13  C10 UNK     1      19.099   4.575  30.050  1.00  0.00     0.017 A 
HETATM   14  C14 UNK     1      18.836   5.867  30.505  1.00  0.00     0.001 A 
HETATM   15  C15 UNK     1      18.168   6.057  31.715  1.00  0.00     0.003 A 
HETATM   16  C13 UNK     1      17.764   4.955  32.469  1.00  0.00     0.037 A 
HETATM   17  C9  UNK     1      18.026   3.664  32.013  1.00  0.00     0.078 A 
BRANCH  17  18
HETATM   18  O4  UNK     1      17.619   2.605  32.770  1.00  0.00    -0.360 OA
HETATM   19  H10 UNK     1      17.458   2.906  33.680  1.00  0.00     0.217 HD
ENDBRANCH  17  18
ENDBRANCH   3  12
BRANCH   6  20
HETATM   20  O2  UNK     1      18.100   2.573  28.120  1.00  0.00    -0.355 OA
HETATM   21  H9  UNK     1      18.038   3.471  28.483  1.00  0.00     0.218 HD
ENDBRANCH   6  20
TORSDOF 3
ENDMDL
MODEL 6
REMARK VINA RESULT:      -8.4      0.796      1.539
REMARK  3 active torsions:
REMARK  status: ('A' for Active; 'I' for Inactive)
REMARK    1  A    between atoms: C5_9  and  O2_2 
REMARK    2  A    between atoms: C9_13  and  O4_4 
REMARK    3  A    between atoms: C1_5  and  C4_8 
ROOT
HETATM    1  O1  UNK     1      13.264   7.566   8.445  1.00  0.00    -0.306 OA
HETATM    2  O3  UNK     1      15.231   4.241   9.744  1.00  0.00    -0.284 OA
HETATM    3  C1  UNK     1      12.714   6.301   8.312  1.00  0.00     0.126 A 
HETATM    4  C2  UNK     1      15.214   6.589   9.511  1.00  0.00     0.051 A 
HETATM    5  C3  UNK     1      14.492   7.684   9.043  1.00  0.00     0.090 A 
HETATM    6  C5  UNK     1      13.309   5.162   8.712  1.00  0.00     0.152 A 
HETATM    7  C6  UNK     1      14.641   5.242   9.359  1.00  0.00     0.220 A 
HETATM    8  C7  UNK     1      16.461   6.770  10.113  1.00  0.00     0.018 A 
HETATM    9  C8  UNK     1      15.015   8.971   9.174  1.00  0.00     0.038 A 
HETATM   10  C11 UNK     1      16.981   8.059  10.243  1.00  0.00     0.001 A 
HETATM   11  C12 UNK     1      16.260   9.157   9.774  1.00  0.00     0.003 A 
ENDROOT
BRANCH   3  12
HETATM   12  C4  UNK     1      11.394   6.314   7.655  1.00  0.00     0.034 A 
HETATM   13  C10 UNK     1      11.319   6.602   6.291  1.00  0.00     0.017 A 
HETATM   14  C14 UNK     1      10.083   6.620   5.646  1.00  0.00     0.001 A 
HETATM   15  C15 UNK     1       8.918   6.351   6.365  1.00  0.00     0.003 A 
HETATM   16  C13 UNK     1       8.990   6.065   7.729  1.00  0.00     0.037 A 
HETATM   17  C9  UNK     1      10.227   6.046   8.373  1.00  0.00     0.078 A 
BRANCH  17  18
HETATM   18  O4  UNK     1      10.269   5.762   9.706  1.00  0.00    -0.360 OA
HETATM   19  H10 UNK     1      11.193   5.786  10.008  1.00  0.00     0.217 HD
ENDBRANCH  17  18
ENDBRANCH   3  12
BRANCH   6  20
HETATM   20  O2  UNK     1      12.748   3.917   8.535  1.00  0.00    -0.355 OA
HETATM   21  H9  UNK     1      12.325   3.626   9.358  1.00  0.00     0.218 HD
ENDBRANCH   6  20
TORSDOF 3
ENDMDL
MODEL 7
REMARK VINA RESULT:      -8.1     23.832     26.018
REMARK  3 active torsions:
REMARK  status: ('A' for Active; 'I' for Inactive)
REMARK    1  A    between atoms: C5_9  and  O2_2 
REMARK    2  A    between atoms: C9_13  and  O4_4 
REMARK    3  A    between atoms: C1_5  and  C4_8 
ROOT
HETATM    1  O1  UNK     1      17.952   3.557  33.457  1.00  0.00    -0.306 OA
HETATM    2  O3  UNK     1      19.195   1.584  30.114  1.00  0.00    -0.284 OA
HETATM    3  C1  UNK     1      18.083   2.177  33.437  1.00  0.00     0.126 A 
HETATM    4  C2  UNK     1      18.699   3.645  31.149  1.00  0.00     0.051 A 
HETATM    5  C3  UNK     1      18.266   4.259  32.322  1.00  0.00     0.090 A 
HETATM    6  C5  UNK     1      18.481   1.463  32.369  1.00  0.00     0.152 A 
HETATM    7  C6  UNK     1      18.826   2.180  31.117  1.00  0.00     0.220 A 
HETATM    8  C7  UNK     1      19.006   4.413  30.022  1.00  0.00     0.018 A 
HETATM    9  C8  UNK     1      18.136   5.647  32.376  1.00  0.00     0.038 A 
HETATM   10  C11 UNK     1      18.875   5.801  30.079  1.00  0.00     0.001 A 
HETATM   11  C12 UNK     1      18.441   6.416  31.253  1.00  0.00     0.003 A 
ENDROOT
BRANCH   3  12
HETATM   12  C4  UNK     1      17.715   1.547  34.718  1.00  0.00     0.034 A 
HETATM   13  C10 UNK     1      16.647   0.648  34.749  1.00  0.00     0.017 A 
HETATM   14  C14 UNK     1      16.280   0.039  35.948  1.00  0.00     0.001 A 
HETATM   15  C15 UNK     1      16.980   0.327  37.119  1.00  0.00     0.003 A 
HETATM   16  C13 UNK     1      18.047   1.225  37.091  1.00  0.00     0.037 A 
HETATM   17  C9  UNK     1      18.414   1.835  35.892  1.00  0.00     0.078 A 
BRANCH  17  18
HETATM   18  O4  UNK     1      19.461   2.708  35.893  1.00  0.00    -0.360 OA
HETATM   19  H10 UNK     1      20.286   2.217  36.048  1.00  0.00     0.217 HD
ENDBRANCH  17  18
ENDBRANCH   3  12
BRANCH   6  20
HETATM   20  O2  UNK     1      18.569   0.088  32.374  1.00  0.00    -0.355 OA
HETATM   21  H9  UNK     1      18.723  -0.229  33.278  1.00  0.00     0.218 HD
ENDBRANCH   6  20
TORSDOF 3
ENDMDL
MODEL 8
REMARK VINA RESULT:      -8.0     24.749     26.922
REMARK  3 active torsions:
REMARK  status: ('A' for Active; 'I' for Inactive)
REMARK    1  A    between atoms: C5_9  and  O2_2 
REMARK    2  A    between atoms: C9_13  and  O4_4 
REMARK    3  A    between atoms: C1_5  and  C4_8 
ROOT
HETATM    1  O1  UNK     1      18.078  -0.305  33.304  1.00  0.00    -0.306 OA
HETATM    2  O3  UNK     1      20.146  -2.420  36.107  1.00  0.00    -0.284 OA
HETATM    3  C1  UNK     1      19.207  -1.036  32.971  1.00  0.00     0.126 A 
HETATM    4  C2  UNK     1      18.312  -1.022  35.612  1.00  0.00     0.051 A 
HETATM    5  C3  UNK     1      17.653  -0.317  34.607  1.00  0.00     0.090 A 
HETATM    6  C5  UNK     1      19.940  -1.750  33.845  1.00  0.00     0.152 A 
HETATM    7  C6  UNK     1      19.520  -1.787  35.267  1.00  0.00     0.220 A 
HETATM    8  C7  UNK     1      17.832  -0.997  36.923  1.00  0.00     0.018 A 
HETATM    9  C8  UNK     1      16.506   0.419  34.910  1.00  0.00     0.038 A 
HETATM   10  C11 UNK     1      16.685  -0.261  37.223  1.00  0.00     0.001 A 
HETATM   11  C12 UNK     1      16.024   0.446  36.218  1.00  0.00     0.003 A 
ENDROOT
BRANCH   3  12
HETATM   12  C4  UNK     1      19.555  -0.938  31.543  1.00  0.00     0.034 A 
HETATM   13  C10 UNK     1      20.064  -2.063  30.890  1.00  0.00     0.017 A 
HETATM   14  C14 UNK     1      20.400  -1.995  29.539  1.00  0.00     0.001 A 
HETATM   15  C15 UNK     1      20.227  -0.803  28.836  1.00  0.00     0.003 A 
HETATM   16  C13 UNK     1      19.719   0.323  29.485  1.00  0.00     0.037 A 
HETATM   17  C9  UNK     1      19.383   0.255  30.837  1.00  0.00     0.078 A 
BRANCH  17  18
HETATM   18  O4  UNK     1      18.888   1.369  31.447  1.00  0.00    -0.360 OA
HETATM   19  H10 UNK     1      19.605   2.015  31.564  1.00  0.00     0.217 HD
ENDBRANCH  17  18
ENDBRANCH   3  12
BRANCH   6  20
HETATM   20  O2  UNK     1      21.077  -2.440  33.486  1.00  0.00    -0.355 OA
HETATM   21  H9  UNK     1      20.930  -3.394  33.591  1.00  0.00     0.218 HD
ENDBRANCH   6  20
TORSDOF 3
ENDMDL
MODEL 9
REMARK VINA RESULT:      -8.0     11.440     13.289
REMARK  3 active torsions:
REMARK  status: ('A' for Active; 'I' for Inactive)
REMARK    1  A    between atoms: C5_9  and  O2_2 
REMARK    2  A    between atoms: C9_13  and  O4_4 
REMARK    3  A    between atoms: C1_5  and  C4_8 
ROOT
HETATM    1  O1  UNK     1      18.891  -1.032  17.715  1.00  0.00    -0.306 OA
HETATM    2  O3  UNK     1      19.361   2.352  15.491  1.00  0.00    -0.284 OA
HETATM    3  C1  UNK     1      19.102  -1.089  16.346  1.00  0.00     0.126 A 
HETATM    4  C2  UNK     1      19.015   1.391  17.618  1.00  0.00     0.051 A 
HETATM    5  C3  UNK     1      18.858   0.197  18.320  1.00  0.00     0.090 A 
HETATM    6  C5  UNK     1      19.258  -0.014  15.552  1.00  0.00     0.152 A 
HETATM    7  C6  UNK     1      19.224   1.338  16.163  1.00  0.00     0.220 A 
HETATM    8  C7  UNK     1      18.971   2.615  18.289  1.00  0.00     0.018 A 
HETATM    9  C8  UNK     1      18.656   0.223  19.700  1.00  0.00     0.038 A 
HETATM   10  C11 UNK     1      18.770   2.637  19.669  1.00  0.00     0.001 A 
HETATM   11  C12 UNK     1      18.612   1.443  20.373  1.00  0.00     0.003 A 
ENDROOT
BRANCH   3  12
HETATM   12  C4  UNK     1      19.117  -2.466  15.823  1.00  0.00     0.034 A 
HETATM   13  C10 UNK     1      18.000  -2.941  15.132  1.00  0.00     0.017 A 
HETATM   14  C14 UNK     1      17.990  -4.241  14.628  1.00  0.00     0.001 A 
HETATM   15  C15 UNK     1      19.096  -5.070  14.814  1.00  0.00     0.003 A 
HETATM   16  C13 UNK     1      20.212  -4.598  15.505  1.00  0.00     0.037 A 
HETATM   17  C9  UNK     1      20.223  -3.298  16.009  1.00  0.00     0.078 A 
BRANCH  17  18
HETATM   18  O4  UNK     1      21.327  -2.863  16.680  1.00  0.00    -0.360 OA
HETATM   19  H10 UNK     1      21.945  -3.605  16.793  1.00  0.00     0.217 HD
ENDBRANCH  17  18
ENDBRANCH   3  12
BRANCH   6  20
HETATM   20  O2  UNK     1      19.434  -0.105  14.189  1.00  0.00    -0.355 OA
HETATM   21  H9  UNK     1      20.382  -0.115  13.978  1.00  0.00     0.218 HD
ENDBRANCH   6  20
TORSDOF 3
ENDMDL
MODEL 10
REMARK VINA RESULT:      -7.9      1.307      2.628
REMARK  3 active torsions:
REMARK  status: ('A' for Active; 'I' for Inactive)
REMARK    1  A    between atoms: C5_9  and  O2_2 
REMARK    2  A    between atoms: C9_13  and  O4_4 
REMARK    3  A    between atoms: C1_5  and  C4_8 
ROOT
HETATM    1  O1  UNK     1      13.254   6.407   8.453  1.00  0.00    -0.306 OA
HETATM    2  O3  UNK     1      13.921  10.134   9.962  1.00  0.00    -0.284 OA
HETATM    3  C1  UNK     1      12.293   7.402   8.373  1.00  0.00     0.126 A 
HETATM    4  C2  UNK     1      14.747   7.958   9.575  1.00  0.00     0.051 A 
HETATM    5  C3  UNK     1      14.455   6.704   9.043  1.00  0.00     0.090 A 
HETATM    6  C5  UNK     1      12.444   8.650   8.855  1.00  0.00     0.152 A 
HETATM    7  C6  UNK     1      13.725   9.015   9.506  1.00  0.00     0.220 A 
HETATM    8  C7  UNK     1      15.989   8.203  10.164  1.00  0.00     0.018 A 
HETATM    9  C8  UNK     1      15.407   5.685   9.098  1.00  0.00     0.038 A 
HETATM   10  C11 UNK     1      16.939   7.183  10.216  1.00  0.00     0.001 A 
HETATM   11  C12 UNK     1      16.648   5.926   9.685  1.00  0.00     0.003 A 
ENDROOT
BRANCH   3  12
HETATM   12  C4  UNK     1      11.052   6.953   7.718  1.00  0.00     0.034 A 
HETATM   13  C10 UNK     1       9.851   7.009   8.428  1.00  0.00     0.017 A 
HETATM   14  C14 UNK     1       8.664   6.589   7.830  1.00  0.00     0.001 A 
HETATM   15  C15 UNK     1       8.674   6.112   6.519  1.00  0.00     0.003 A 
HETATM   16  C13 UNK     1       9.873   6.054   5.808  1.00  0.00     0.037 A 
HETATM   17  C9  UNK     1      11.060   6.474   6.406  1.00  0.00     0.078 A 
BRANCH  17  18
HETATM   18  O4  UNK     1      12.217   6.407   5.687  1.00  0.00    -0.360 OA
HETATM   19  H10 UNK     1      12.542   5.491   5.689  1.00  0.00     0.217 HD
ENDBRANCH  17  18
ENDBRANCH   3  12
BRANCH   6  20
HETATM   20  O2  UNK     1      11.455   9.607   8.788  1.00  0.00    -0.355 OA
HETATM   21  H9  UNK     1      10.721   9.285   8.241  1.00  0.00     0.218 HD
ENDBRANCH   6  20
TORSDOF 3
ENDMDL
