MODEL 1
REMARK VINA RESULT:      -7.1      0.000      0.000
REMARK  1 active torsions:
REMARK  status: ('A' for Active; 'I' for Inactive)
REMARK    1  A    between atoms: C5_10  and  O2_4 
ROOT
HETATM    1 Cl1  UNK     1      18.358  10.814  10.114  1.00  0.00    -0.084 Cl
HETATM    2  S1  UNK     1      11.452   6.007   6.876  1.00  0.00    -0.099 SA
HETATM    3  O1  UNK     1      13.239   8.629   8.218  1.00  0.00    -0.305 OA
HETATM    4  O3  UNK     1      15.142   6.676  11.249  1.00  0.00    -0.284 OA
HETATM    5  C1  UNK     1      15.136   8.478   9.726  1.00  0.00     0.052 A 
HETATM    6  C2  UNK     1      14.435   9.100   8.694  1.00  0.00     0.090 A 
HETATM    7  C3  UNK     1      12.712   7.482   8.787  1.00  0.00     0.130 A 
HETATM    8  C4  UNK     1      14.573   7.264  10.338  1.00  0.00     0.220 A 
HETATM    9  C5  UNK     1      13.280   6.788   9.790  1.00  0.00     0.152 A 
HETATM   10  C6  UNK     1      11.465   7.085   8.211  1.00  0.00     0.041 A 
HETATM   11  C7  UNK     1      16.352   9.004  10.170  1.00  0.00     0.042 A 
HETATM   12  C8  UNK     1      14.947  10.253   8.100  1.00  0.00     0.040 A 
HETATM   13  C9  UNK     1      16.861  10.157   9.574  1.00  0.00     0.035 A 
HETATM   14  C10 UNK     1      16.161  10.782   8.540  1.00  0.00     0.026 A 
HETATM   15  C11 UNK     1      10.185   7.453   8.579  1.00  0.00     0.022 A 
HETATM   16  C12 UNK     1       9.190   6.845   7.760  1.00  0.00     0.008 A 
HETATM   17  C13 UNK     1       9.742   6.034   6.793  1.00  0.00     0.050 A 
ENDROOT
BRANCH   9  18
HETATM   18  O2  UNK     1      12.712   5.663  10.348  1.00  0.00    -0.355 OA
HETATM   19  H7  UNK     1      12.223   5.945  11.141  1.00  0.00     0.218 HD
ENDBRANCH   9  18
TORSDOF 1
ENDMDL
MODEL 2
REMARK VINA RESULT:      -7.1     24.773     26.452
REMARK  1 active torsions:
REMARK  status: ('A' for Active; 'I' for Inactive)
REMARK    1  A    between atoms: C5_10  and  O2_4 
ROOT
HETATM    1 Cl1  UNK     1      21.361  -0.947  28.384  1.00  0.00    -0.084 Cl
HETATM    2  S1  UNK     1      15.811   0.014  35.424  1.00  0.00    -0.099 SA
HETATM    3  O1  UNK     1      18.292   0.680  33.129  1.00  0.00    -0.305 OA
HETATM    4  O3  UNK     1      20.338  -2.842  33.296  1.00  0.00    -0.284 OA
HETATM    5  C1  UNK     1      19.741  -0.935  32.041  1.00  0.00     0.052 A 
HETATM    6  C2  UNK     1      19.022   0.258  32.048  1.00  0.00     0.090 A 
HETATM    7  C3  UNK     1      18.267  -0.122  34.257  1.00  0.00     0.130 A 
HETATM    8  C4  UNK     1      19.723  -1.785  33.242  1.00  0.00     0.220 A 
HETATM    9  C5  UNK     1      18.920  -1.291  34.387  1.00  0.00     0.152 A 
HETATM   10  C6  UNK     1      17.476   0.418  35.319  1.00  0.00     0.041 A 
HETATM   11  C7  UNK     1      20.468  -1.315  30.909  1.00  0.00     0.042 A 
HETATM   12  C8  UNK     1      19.025   1.080  30.921  1.00  0.00     0.040 A 
HETATM   13  C9  UNK     1      20.468  -0.490  29.784  1.00  0.00     0.035 A 
HETATM   14  C10 UNK     1      19.749   0.706  29.789  1.00  0.00     0.026 A 
HETATM   15  C11 UNK     1      17.858   1.267  36.340  1.00  0.00     0.022 A 
HETATM   16  C12 UNK     1      16.777   1.586  37.212  1.00  0.00     0.008 A 
HETATM   17  C13 UNK     1      15.605   0.971  36.830  1.00  0.00     0.050 A 
ENDROOT
BRANCH   9  18
HETATM   18  O2  UNK     1      18.891  -2.050  35.537  1.00  0.00    -0.355 OA
HETATM   19  H7  UNK     1      17.958  -2.150  35.797  1.00  0.00     0.218 HD
ENDBRANCH   9  18
TORSDOF 1
ENDMDL
MODEL 3
REMARK VINA RESULT:      -7.1     23.651     25.137
REMARK  1 active torsions:
REMARK  status: ('A' for Active; 'I' for Inactive)
REMARK    1  A    between atoms: C5_10  and  O2_4 
ROOT
HETATM    1 Cl1  UNK     1      20.351   5.481  31.326  1.00  0.00    -0.084 Cl
HETATM    2  S1  UNK     1      15.647  12.487  34.500  1.00  0.00    -0.099 SA
HETATM    3  O1  UNK     1      17.261   9.446  34.377  1.00  0.00    -0.305 OA
HETATM    4  O3  UNK     1      15.590   7.924  30.984  1.00  0.00    -0.284 OA
HETATM    5  C1  UNK     1      17.428   7.962  32.463  1.00  0.00     0.052 A 
HETATM    6  C2  UNK     1      17.943   8.519  33.632  1.00  0.00     0.090 A 
HETATM    7  C3  UNK     1      16.010   9.847  33.941  1.00  0.00     0.130 A 
HETATM    8  C4  UNK     1      16.095   8.381  32.002  1.00  0.00     0.220 A 
HETATM    9  C5  UNK     1      15.395   9.387  32.837  1.00  0.00     0.152 A 
HETATM   10  C6  UNK     1      15.396  10.816  34.795  1.00  0.00     0.041 A 
HETATM   11  C7  UNK     1      18.169   7.021  31.744  1.00  0.00     0.042 A 
HETATM   12  C8  UNK     1      19.204   8.137  34.089  1.00  0.00     0.040 A 
HETATM   13  C9  UNK     1      19.430   6.641  32.204  1.00  0.00     0.035 A 
HETATM   14  C10 UNK     1      19.948   7.198  33.375  1.00  0.00     0.026 A 
HETATM   15  C11 UNK     1      14.579  10.610  35.890  1.00  0.00     0.022 A 
HETATM   16  C12 UNK     1      14.158  11.833  36.489  1.00  0.00     0.008 A 
HETATM   17  C13 UNK     1      14.667  12.932  35.832  1.00  0.00     0.050 A 
ENDROOT
BRANCH   9  18
HETATM   18  O2  UNK     1      14.136   9.793  32.448  1.00  0.00    -0.355 OA
HETATM   19  H7  UNK     1      13.681  10.131  33.239  1.00  0.00     0.218 HD
ENDBRANCH   9  18
TORSDOF 1
ENDMDL
MODEL 4
REMARK VINA RESULT:      -7.0     22.836     24.382
REMARK  1 active torsions:
REMARK  status: ('A' for Active; 'I' for Inactive)
REMARK    1  A    between atoms: C5_10  and  O2_4 
ROOT
HETATM    1 Cl1  UNK     1      15.622  12.231  34.674  1.00  0.00    -0.084 Cl
HETATM    2  S1  UNK     1      18.999   5.286  30.021  1.00  0.00    -0.099 SA
HETATM    3  O1  UNK     1      16.967   7.105  32.125  1.00  0.00    -0.305 OA
HETATM    4  O3  UNK     1      19.806   8.885  34.446  1.00  0.00    -0.284 OA
HETATM    5  C1  UNK     1      17.627   8.960  33.544  1.00  0.00     0.052 A 
HETATM    6  C2  UNK     1      16.700   8.301  32.740  1.00  0.00     0.090 A 
HETATM    7  C3  UNK     1      18.215   6.536  32.309  1.00  0.00     0.130 A 
HETATM    8  C4  UNK     1      18.952   8.353  33.748  1.00  0.00     0.220 A 
HETATM    9  C5  UNK     1      19.198   7.062  33.063  1.00  0.00     0.152 A 
HETATM   10  C6  UNK     1      18.379   5.293  31.621  1.00  0.00     0.041 A 
HETATM   11  C7  UNK     1      17.300  10.178  34.146  1.00  0.00     0.042 A 
HETATM   12  C8  UNK     1      15.437   8.856  32.533  1.00  0.00     0.040 A 
HETATM   13  C9  UNK     1      16.036  10.731  33.936  1.00  0.00     0.035 A 
HETATM   14  C10 UNK     1      15.106  10.072  33.131  1.00  0.00     0.026 A 
HETATM   15  C11 UNK     1      18.100   4.014  32.064  1.00  0.00     0.022 A 
HETATM   16  C12 UNK     1      18.399   3.025  31.084  1.00  0.00     0.008 A 
HETATM   17  C13 UNK     1      18.896   3.579  29.924  1.00  0.00     0.050 A 
ENDROOT
BRANCH   9  18
HETATM   18  O2  UNK     1      20.421   6.452  33.242  1.00  0.00    -0.355 OA
HETATM   19  H7  UNK     1      20.355   5.552  32.877  1.00  0.00     0.218 HD
ENDBRANCH   9  18
TORSDOF 1
ENDMDL
MODEL 5
REMARK VINA RESULT:      -7.0     35.142     36.561
REMARK  1 active torsions:
REMARK  status: ('A' for Active; 'I' for Inactive)
REMARK    1  A    between atoms: C5_10  and  O2_4 
ROOT
HETATM    1 Cl1  UNK     1      26.650  -9.731  40.174  1.00  0.00    -0.084 Cl
HETATM    2  S1  UNK     1      32.034  -5.119  34.605  1.00  0.00    -0.099 SA
HETATM    3  O1  UNK     1      31.011  -7.152  37.190  1.00  0.00    -0.305 OA
HETATM    4  O3  UNK     1      28.162  -4.759  38.855  1.00  0.00    -0.284 OA
HETATM    5  C1  UNK     1      28.970  -6.945  38.487  1.00  0.00     0.052 A 
HETATM    6  C2  UNK     1      29.975  -7.708  37.896  1.00  0.00     0.090 A 
HETATM    7  C3  UNK     1      31.053  -5.776  37.058  1.00  0.00     0.130 A 
HETATM    8  C4  UNK     1      29.016  -5.480  38.355  1.00  0.00     0.220 A 
HETATM    9  C5  UNK     1      30.153  -4.924  37.582  1.00  0.00     0.152 A 
HETATM   10  C6  UNK     1      32.175  -5.311  36.304  1.00  0.00     0.041 A 
HETATM   11  C7  UNK     1      27.936  -7.566  39.194  1.00  0.00     0.042 A 
HETATM   12  C8  UNK     1      29.953  -9.097  38.008  1.00  0.00     0.040 A 
HETATM   13  C9  UNK     1      27.917  -8.956  39.305  1.00  0.00     0.035 A 
HETATM   14  C10 UNK     1      28.924  -9.722  38.713  1.00  0.00     0.026 A 
HETATM   15  C11 UNK     1      33.438  -4.971  36.751  1.00  0.00     0.022 A 
HETATM   16  C12 UNK     1      34.292  -4.550  35.690  1.00  0.00     0.008 A 
HETATM   17  C13 UNK     1      33.655  -4.582  34.469  1.00  0.00     0.050 A 
ENDROOT
BRANCH   9  18
HETATM   18  O2  UNK     1      30.241  -3.555  37.450  1.00  0.00    -0.355 OA
HETATM   19  H7  UNK     1      29.959  -3.161  38.294  1.00  0.00     0.218 HD
ENDBRANCH   9  18
TORSDOF 1
ENDMDL
MODEL 6
REMARK VINA RESULT:      -6.9     23.851     25.529
REMARK  1 active torsions:
REMARK  status: ('A' for Active; 'I' for Inactive)
REMARK    1  A    between atoms: C5_10  and  O2_4 
ROOT
HETATM    1 Cl1  UNK     1      18.831   6.178  29.714  1.00  0.00    -0.084 Cl
HETATM    2  S1  UNK     1      16.592  -0.730  35.057  1.00  0.00    -0.099 SA
HETATM    3  O1  UNK     1      18.218   2.066  33.872  1.00  0.00    -0.305 OA
HETATM    4  O3  UNK     1      19.017   0.831  30.070  1.00  0.00    -0.284 OA
HETATM    5  C1  UNK     1      18.642   2.630  31.549  1.00  0.00     0.052 A 
HETATM    6  C2  UNK     1      18.370   2.988  32.868  1.00  0.00     0.090 A 
HETATM    7  C3  UNK     1      18.336   0.724  33.554  1.00  0.00     0.130 A 
HETATM    8  C4  UNK     1      18.776   1.204  31.211  1.00  0.00     0.220 A 
HETATM    9  C5  UNK     1      18.602   0.243  32.326  1.00  0.00     0.152 A 
HETATM   10  C6  UNK     1      18.159  -0.142  34.678  1.00  0.00     0.041 A 
HETATM   11  C7  UNK     1      18.786   3.613  30.567  1.00  0.00     0.042 A 
HETATM   12  C8  UNK     1      18.240   4.333  33.213  1.00  0.00     0.040 A 
HETATM   13  C9  UNK     1      18.655   4.958  30.915  1.00  0.00     0.035 A 
HETATM   14  C10 UNK     1      18.383   5.318  32.236  1.00  0.00     0.026 A 
HETATM   15  C11 UNK     1      19.106  -0.614  35.567  1.00  0.00     0.022 A 
HETATM   16  C12 UNK     1      18.541  -1.462  36.562  1.00  0.00     0.008 A 
HETATM   17  C13 UNK     1      17.180  -1.611  36.402  1.00  0.00     0.050 A 
ENDROOT
BRANCH   9  18
HETATM   18  O2  UNK     1      18.736  -1.101  32.054  1.00  0.00    -0.355 OA
HETATM   19  H7  UNK     1      17.966  -1.370  31.523  1.00  0.00     0.218 HD
ENDBRANCH   9  18
TORSDOF 1
ENDMDL
MODEL 7
REMARK VINA RESULT:      -6.9     24.778     26.533
REMARK  1 active torsions:
REMARK  status: ('A' for Active; 'I' for Inactive)
REMARK    1  A    between atoms: C5_10  and  O2_4 
ROOT
HETATM    1 Cl1  UNK     1      18.085  -2.234  36.620  1.00  0.00    -0.084 Cl
HETATM    2  S1  UNK     1      19.726   5.965  33.249  1.00  0.00    -0.099 SA
HETATM    3  O1  UNK     1      18.118   3.373  34.848  1.00  0.00    -0.305 OA
HETATM    4  O3  UNK     1      18.508   0.473  32.010  1.00  0.00    -0.284 OA
HETATM    5  C1  UNK     1      18.247   1.013  34.292  1.00  0.00     0.052 A 
HETATM    6  C2  UNK     1      18.116   2.051  35.213  1.00  0.00     0.090 A 
HETATM    7  C3  UNK     1      18.262   3.684  33.508  1.00  0.00     0.130 A 
HETATM    8  C4  UNK     1      18.392   1.342  32.865  1.00  0.00     0.220 A 
HETATM    9  C5  UNK     1      18.391   2.783  32.517  1.00  0.00     0.152 A 
HETATM   10  C6  UNK     1      18.250   5.090  33.248  1.00  0.00     0.041 A 
HETATM   11  C7  UNK     1      18.238  -0.316  34.721  1.00  0.00     0.042 A 
HETATM   12  C8  UNK     1      17.976   1.764  36.570  1.00  0.00     0.040 A 
HETATM   13  C9  UNK     1      18.098  -0.600  36.080  1.00  0.00     0.035 A 
HETATM   14  C10 UNK     1      17.966   0.438  37.004  1.00  0.00     0.026 A 
HETATM   15  C11 UNK     1      17.172   5.912  32.978  1.00  0.00     0.022 A 
HETATM   16  C12 UNK     1      17.563   7.267  32.771  1.00  0.00     0.008 A 
HETATM   17  C13 UNK     1      18.925   7.436  32.890  1.00  0.00     0.050 A 
ENDROOT
BRANCH   9  18
HETATM   18  O2  UNK     1      18.508   3.132  31.189  1.00  0.00    -0.355 OA
HETATM   19  H7  UNK     1      18.457   2.312  30.666  1.00  0.00     0.218 HD
ENDBRANCH   9  18
TORSDOF 1
ENDMDL
MODEL 8
REMARK VINA RESULT:      -6.8     22.857     24.620
REMARK  1 active torsions:
REMARK  status: ('A' for Active; 'I' for Inactive)
REMARK    1  A    between atoms: C5_10  and  O2_4 
ROOT
HETATM    1 Cl1  UNK     1      18.650   0.158  28.230  1.00  0.00    -0.084 Cl
HETATM    2  S1  UNK     1      16.778   6.727  34.113  1.00  0.00    -0.099 SA
HETATM    3  O1  UNK     1      18.431   4.888  31.716  1.00  0.00    -0.305 OA
HETATM    4  O3  UNK     1      18.319   1.213  33.477  1.00  0.00    -0.284 OA
HETATM    5  C1  UNK     1      18.444   2.472  31.485  1.00  0.00     0.052 A 
HETATM    6  C2  UNK     1      18.480   3.756  30.944  1.00  0.00     0.090 A 
HETATM    7  C3  UNK     1      18.337   4.744  33.089  1.00  0.00     0.130 A 
HETATM    8  C4  UNK     1      18.352   2.316  32.945  1.00  0.00     0.220 A 
HETATM    9  C5  UNK     1      18.299   3.567  33.739  1.00  0.00     0.152 A 
HETATM   10  C6  UNK     1      18.293   5.990  33.788  1.00  0.00     0.041 A 
HETATM   11  C7  UNK     1      18.496   1.353  30.649  1.00  0.00     0.042 A 
HETATM   12  C8  UNK     1      18.568   3.928  29.563  1.00  0.00     0.040 A 
HETATM   13  C9  UNK     1      18.584   1.529  29.268  1.00  0.00     0.035 A 
HETATM   14  C10 UNK     1      18.621   2.815  28.725  1.00  0.00     0.026 A 
HETATM   15  C11 UNK     1      19.341   6.747  34.276  1.00  0.00     0.022 A 
HETATM   16  C12 UNK     1      18.896   7.938  34.920  1.00  0.00     0.008 A 
HETATM   17  C13 UNK     1      17.523   8.052  34.904  1.00  0.00     0.050 A 
ENDROOT
BRANCH   9  18
HETATM   18  O2  UNK     1      18.229   3.464  35.112  1.00  0.00    -0.355 OA
HETATM   19  H7  UNK     1      17.341   3.756  35.382  1.00  0.00     0.218 HD
ENDBRANCH   9  18
TORSDOF 1
ENDMDL
MODEL 9
REMARK VINA RESULT:      -6.7     23.165     24.795
REMARK  1 active torsions:
REMARK  status: ('A' for Active; 'I' for Inactive)
REMARK    1  A    between atoms: C5_10  and  O2_4 
ROOT
HETATM    1 Cl1  UNK     1      19.425  -1.334  31.501  1.00  0.00    -0.084 Cl
HETATM    2  S1  UNK     1      18.648   7.280  34.046  1.00  0.00    -0.099 SA
HETATM    3  O1  UNK     1      17.847   3.982  33.459  1.00  0.00    -0.305 OA
HETATM    4  O3  UNK     1      19.073   3.661  29.584  1.00  0.00    -0.284 OA
HETATM    5  C1  UNK     1      18.655   2.588  31.643  1.00  0.00     0.052 A 
HETATM    6  C2  UNK     1      18.225   2.763  32.957  1.00  0.00     0.090 A 
HETATM    7  C3  UNK     1      17.903   5.082  32.622  1.00  0.00     0.130 A 
HETATM    8  C4  UNK     1      18.706   3.755  30.749  1.00  0.00     0.220 A 
HETATM    9  C5  UNK     1      18.292   5.053  31.334  1.00  0.00     0.152 A 
HETATM   10  C6  UNK     1      17.487   6.296  33.253  1.00  0.00     0.041 A 
HETATM   11  C7  UNK     1      19.028   1.321  31.186  1.00  0.00     0.042 A 
HETATM   12  C8  UNK     1      18.166   1.671  33.822  1.00  0.00     0.040 A 
HETATM   13  C9  UNK     1      18.968   0.231  32.054  1.00  0.00     0.035 A 
HETATM   14  C10 UNK     1      18.538   0.405  33.371  1.00  0.00     0.026 A 
HETATM   15  C11 UNK     1      16.220   6.841  33.334  1.00  0.00     0.022 A 
HETATM   16  C12 UNK     1      16.204   8.072  34.050  1.00  0.00     0.008 A 
HETATM   17  C13 UNK     1      17.459   8.428  34.494  1.00  0.00     0.050 A 
ENDROOT
BRANCH   9  18
HETATM   18  O2  UNK     1      18.310   6.168  30.524  1.00  0.00    -0.355 OA
HETATM   19  H7  UNK     1      19.110   6.675  30.745  1.00  0.00     0.218 HD
ENDBRANCH   9  18
TORSDOF 1
ENDMDL
MODEL 10
REMARK VINA RESULT:      -6.7     22.893     24.581
REMARK  1 active torsions:
REMARK  status: ('A' for Active; 'I' for Inactive)
REMARK    1  A    between atoms: C5_10  and  O2_4 
ROOT
HETATM    1 Cl1  UNK     1      19.041   2.220  29.788  1.00  0.00    -0.084 Cl
HETATM    2  S1  UNK     1      16.082   9.882  33.506  1.00  0.00    -0.099 SA
HETATM    3  O1  UNK     1      18.138   7.634  31.898  1.00  0.00    -0.305 OA
HETATM    4  O3  UNK     1      17.898   4.506  34.502  1.00  0.00    -0.284 OA
HETATM    5  C1  UNK     1      18.271   5.242  32.292  1.00  0.00     0.052 A 
HETATM    6  C2  UNK     1      18.341   6.352  31.453  1.00  0.00     0.090 A 
HETATM    7  C3  UNK     1      17.846   7.825  33.237  1.00  0.00     0.130 A 
HETATM    8  C4  UNK     1      17.969   5.444  33.718  1.00  0.00     0.220 A 
HETATM    9  C5  UNK     1      17.755   6.845  34.154  1.00  0.00     0.152 A 
HETATM   10  C6  UNK     1      17.654   9.199  33.585  1.00  0.00     0.041 A 
HETATM   11  C7  UNK     1      18.487   3.959  31.782  1.00  0.00     0.042 A 
HETATM   12  C8  UNK     1      18.626   6.186  30.098  1.00  0.00     0.040 A 
HETATM   13  C9  UNK     1      18.772   3.796  30.427  1.00  0.00     0.035 A 
HETATM   14  C10 UNK     1      18.842   4.907  29.585  1.00  0.00     0.026 A 
HETATM   15  C11 UNK     1      18.591  10.126  34.001  1.00  0.00     0.022 A 
HETATM   16  C12 UNK     1      18.012  11.403  34.257  1.00  0.00     0.008 A 
HETATM   17  C13 UNK     1      16.654  11.410  34.027  1.00  0.00     0.050 A 
ENDROOT
BRANCH   9  18
HETATM   18  O2  UNK     1      17.486   7.077  35.486  1.00  0.00    -0.355 OA
HETATM   19  H7  UNK     1      17.540   8.038  35.631  1.00  0.00     0.218 HD
ENDBRANCH   9  18
TORSDOF 1
ENDMDL
