MODEL 1
REMARK VINA RESULT:      -9.0      0.000      0.000
REMARK  2 active torsions:
REMARK  status: ('A' for Active; 'I' for Inactive)
REMARK    1  A    between atoms: C1_7  and  C8_14 
REMARK    2  A    between atoms: C6_12  and  C9_15 
ROOT
HETATM    1  O1  UNK     1      33.469 -10.573  33.826  1.00  0.00    -0.293 OA
HETATM    2  N1  UNK     1      29.108 -10.040  31.843  1.00  0.00    -0.357 N 
HETATM    3  N2  UNK     1      31.106  -7.812  32.115  1.00  0.00    -0.375 N 
HETATM    4  C1  UNK     1      31.573 -12.835  31.769  1.00  0.00     0.038 C 
HETATM    5  C2  UNK     1      30.192 -12.191  31.920  1.00  0.00     0.068 C 
HETATM    6  C3  UNK     1      31.339 -10.155  32.826  1.00  0.00     0.037 C 
HETATM    7  C4  UNK     1      30.260 -10.701  32.224  1.00  0.00     0.022 C 
HETATM    8  C5  UNK     1      32.404 -12.529  33.007  1.00  0.00     0.094 C 
HETATM    9  C6  UNK     1      31.457  -8.702  33.209  1.00  0.00     0.160 C 
HETATM   10  C7  UNK     1      32.490 -11.040  33.243  1.00  0.00     0.160 C 
HETATM   11  C10 UNK     1      28.872  -8.687  31.524  1.00  0.00     0.059 A 
HETATM   12  C11 UNK     1      29.831  -7.663  31.589  1.00  0.00     0.055 A 
HETATM   13  C15 UNK     1      27.577  -8.371  31.049  1.00  0.00     0.032 A 
HETATM   14  C16 UNK     1      29.473  -6.374  31.133  1.00  0.00     0.031 A 
HETATM   15  C21 UNK     1      27.240  -7.088  30.620  1.00  0.00     0.002 A 
HETATM   16  C22 UNK     1      28.196  -6.088  30.655  1.00  0.00     0.002 A 
HETATM   17  H7  UNK     1      28.321 -10.653  31.652  1.00  0.00     0.166 HD
HETATM   18  H8  UNK     1      31.754  -7.048  31.941  1.00  0.00     0.160 HD
ENDROOT
BRANCH   9  19
HETATM   19  C9  UNK     1      30.687  -8.357  34.450  1.00  0.00     0.042 A 
HETATM   20  C13 UNK     1      30.903  -7.027  35.073  1.00  0.00     0.195 A 
HETATM   21  O3  UNK     1      31.685  -6.210  34.607  1.00  0.00    -0.287 OA
HETATM   22  C17 UNK     1      30.122  -6.741  36.291  1.00  0.00     0.049 A 
HETATM   23  C19 UNK     1      29.246  -7.712  36.778  1.00  0.00     0.089 A 
HETATM   24  C23 UNK     1      30.254  -5.517  36.951  1.00  0.00     0.025 A 
HETATM   25  O2  UNK     1      29.076  -8.929  36.169  1.00  0.00    -0.321 OA
HETATM   26  C24 UNK     1      28.496  -7.462  37.928  1.00  0.00     0.039 A 
HETATM   27  C14 UNK     1      29.810  -9.182  35.037  1.00  0.00     0.156 A 
HETATM   28  C26 UNK     1      28.626  -6.241  38.589  1.00  0.00     0.009 A 
HETATM   29  C25 UNK     1      29.503  -5.271  38.102  1.00  0.00    -0.061 A 
HETATM   30  C27 UNK     1      29.637  -3.966  38.812  1.00  0.00     0.048 C 
ENDBRANCH   9  19
BRANCH   4  31
HETATM   31  C8  UNK     1      31.484 -14.323  31.489  1.00  0.00    -0.013 A 
HETATM   32  C12 UNK     1      31.536 -14.966  30.275  1.00  0.00     0.015 A 
HETATM   33  C18 UNK     1      31.417 -16.379  30.418  1.00  0.00     0.008 A 
HETATM   34  C20 UNK     1      31.279 -16.756  31.735  1.00  0.00     0.050 A 
HETATM   35  S1  UNK     1      31.292 -15.411  32.793  1.00  0.00    -0.106 SA
ENDBRANCH   4  31
TORSDOF 2
ENDMDL
MODEL 2
REMARK VINA RESULT:      -8.6     32.475     35.728
REMARK  2 active torsions:
REMARK  status: ('A' for Active; 'I' for Inactive)
REMARK    1  A    between atoms: C1_7  and  C8_14 
REMARK    2  A    between atoms: C6_12  and  C9_15 
ROOT
HETATM    1  O1  UNK     1      14.667  12.062   8.171  1.00  0.00    -0.293 OA
HETATM    2  N1  UNK     1      18.968  10.744   9.902  1.00  0.00    -0.357 N 
HETATM    3  N2  UNK     1      17.887  13.543  10.058  1.00  0.00    -0.375 N 
HETATM    4  C1  UNK     1      15.672   9.007   9.782  1.00  0.00     0.038 C 
HETATM    5  C2  UNK     1      17.189   9.142   9.621  1.00  0.00     0.068 C 
HETATM    6  C3  UNK     1      16.824  11.559   9.067  1.00  0.00     0.037 C 
HETATM    7  C4  UNK     1      17.650  10.589   9.518  1.00  0.00     0.022 C 
HETATM    8  C5  UNK     1      14.981   9.759   8.654  1.00  0.00     0.094 C 
HETATM    9  C6  UNK     1      17.223  13.001   8.885  1.00  0.00     0.160 C 
HETATM   10  C7  UNK     1      15.427  11.203   8.620  1.00  0.00     0.160 C 
HETATM   11  C10 UNK     1      19.675  11.867  10.376  1.00  0.00     0.059 A 
HETATM   12  C11 UNK     1      19.141  13.160  10.510  1.00  0.00     0.055 A 
HETATM   13  C15 UNK     1      21.006  11.638  10.798  1.00  0.00     0.032 A 
HETATM   14  C16 UNK     1      19.942  14.161  11.104  1.00  0.00     0.031 A 
HETATM   15  C21 UNK     1      21.785  12.646  11.365  1.00  0.00     0.002 A 
HETATM   16  C22 UNK     1      21.246  13.911  11.527  1.00  0.00     0.002 A 
HETATM   17  H7  UNK     1      19.489   9.873   9.957  1.00  0.00     0.166 HD
HETATM   18  H8  UNK     1      17.556  14.451  10.374  1.00  0.00     0.160 HD
ENDROOT
BRANCH   9  19
HETATM   19  C9  UNK     1      18.042  13.232   7.649  1.00  0.00     0.042 A 
HETATM   20  C13 UNK     1      18.557  14.599   7.383  1.00  0.00     0.195 A 
HETATM   21  O3  UNK     1      18.333  15.536   8.138  1.00  0.00    -0.287 OA
HETATM   22  C17 UNK     1      19.355  14.770   6.155  1.00  0.00     0.049 A 
HETATM   23  C19 UNK     1      19.576  13.666   5.331  1.00  0.00     0.089 A 
HETATM   24  C23 UNK     1      19.883  16.018   5.817  1.00  0.00     0.025 A 
HETATM   25  O2  UNK     1      19.082  12.418   5.616  1.00  0.00    -0.321 OA
HETATM   26  C24 UNK     1      20.329  13.804   4.165  1.00  0.00     0.039 A 
HETATM   27  C14 UNK     1      18.340  12.274   6.762  1.00  0.00     0.156 A 
HETATM   28  C26 UNK     1      20.858  15.049   3.825  1.00  0.00     0.009 A 
HETATM   29  C25 UNK     1      20.636  16.153   4.649  1.00  0.00    -0.061 A 
HETATM   30  C27 UNK     1      21.205  17.482   4.281  1.00  0.00     0.048 C 
ENDBRANCH   9  19
BRANCH   4  31
HETATM   31  C8  UNK     1      15.232   7.557   9.860  1.00  0.00    -0.013 A 
HETATM   32  C12 UNK     1      15.995   6.449  10.140  1.00  0.00     0.015 A 
HETATM   33  C18 UNK     1      15.221   5.252  10.122  1.00  0.00     0.008 A 
HETATM   34  C20 UNK     1      13.898   5.497   9.828  1.00  0.00     0.050 A 
HETATM   35  S1  UNK     1      13.593   7.162   9.576  1.00  0.00    -0.106 SA
ENDBRANCH   4  31
TORSDOF 2
ENDMDL
MODEL 3
REMARK VINA RESULT:      -8.5      3.786      6.519
REMARK  2 active torsions:
REMARK  status: ('A' for Active; 'I' for Inactive)
REMARK    1  A    between atoms: C1_7  and  C8_14 
REMARK    2  A    between atoms: C6_12  and  C9_15 
ROOT
HETATM    1  O1  UNK     1      33.625 -11.981  30.474  1.00  0.00    -0.293 OA
HETATM    2  N1  UNK     1      34.278  -9.061  34.254  1.00  0.00    -0.357 N 
HETATM    3  N2  UNK     1      31.908 -10.881  33.934  1.00  0.00    -0.375 N 
HETATM    4  C1  UNK     1      36.651 -11.062  32.190  1.00  0.00     0.038 C 
HETATM    5  C2  UNK     1      36.139  -9.819  32.923  1.00  0.00     0.068 C 
HETATM    6  C3  UNK     1      33.809 -10.581  32.402  1.00  0.00     0.037 C 
HETATM    7  C4  UNK     1      34.640  -9.857  33.183  1.00  0.00     0.022 C 
HETATM    8  C5  UNK     1      35.842 -11.258  30.915  1.00  0.00     0.094 C 
HETATM    9  C6  UNK     1      32.311 -10.624  32.562  1.00  0.00     0.160 C 
HETATM   10  C7  UNK     1      34.366 -11.342  31.223  1.00  0.00     0.160 C 
HETATM   11  C10 UNK     1      33.159  -9.103  35.110  1.00  0.00     0.059 A 
HETATM   12  C11 UNK     1      32.087 -10.003  34.993  1.00  0.00     0.055 A 
HETATM   13  C15 UNK     1      33.166  -8.196  36.196  1.00  0.00     0.032 A 
HETATM   14  C16 UNK     1      31.088  -9.994  35.993  1.00  0.00     0.031 A 
HETATM   15  C21 UNK     1      32.160  -8.193  37.162  1.00  0.00     0.002 A 
HETATM   16  C22 UNK     1      31.121  -9.103  37.064  1.00  0.00     0.002 A 
HETATM   17  H7  UNK     1      34.996  -8.402  34.543  1.00  0.00     0.166 HD
HETATM   18  H8  UNK     1      31.195 -11.595  34.060  1.00  0.00     0.160 HD
ENDROOT
BRANCH   9  19
HETATM   19  C9  UNK     1      31.627  -9.402  32.022  1.00  0.00     0.042 A 
HETATM   20  C13 UNK     1      30.147  -9.409  31.906  1.00  0.00     0.195 A 
HETATM   21  O3  UNK     1      29.474 -10.376  32.237  1.00  0.00    -0.287 OA
HETATM   22  C17 UNK     1      29.527  -8.183  31.369  1.00  0.00     0.049 A 
HETATM   23  C19 UNK     1      30.345  -7.113  31.008  1.00  0.00     0.089 A 
HETATM   24  C23 UNK     1      28.141  -8.092  31.223  1.00  0.00     0.025 A 
HETATM   25  O2  UNK     1      31.711  -7.148  31.133  1.00  0.00    -0.321 OA
HETATM   26  C24 UNK     1      29.781  -5.943  30.499  1.00  0.00     0.039 A 
HETATM   27  C14 UNK     1      32.274  -8.296  31.634  1.00  0.00     0.156 A 
HETATM   28  C26 UNK     1      28.397  -5.848  30.351  1.00  0.00     0.009 A 
HETATM   29  C25 UNK     1      27.579  -6.920  30.712  1.00  0.00    -0.061 A 
HETATM   30  C27 UNK     1      26.100  -6.814  30.552  1.00  0.00     0.048 C 
ENDBRANCH   9  19
BRANCH   4  31
HETATM   31  C8  UNK     1      38.142 -10.995  31.920  1.00  0.00    -0.013 A 
HETATM   32  C12 UNK     1      39.151 -10.663  32.792  1.00  0.00     0.015 A 
HETATM   33  C18 UNK     1      40.431 -10.712  32.167  1.00  0.00     0.008 A 
HETATM   34  C20 UNK     1      40.346 -11.079  30.842  1.00  0.00     0.050 A 
HETATM   35  S1  UNK     1      38.728 -11.363  30.357  1.00  0.00    -0.106 SA
ENDBRANCH   4  31
TORSDOF 2
ENDMDL
MODEL 4
REMARK VINA RESULT:      -8.5      1.527      1.654
REMARK  2 active torsions:
REMARK  status: ('A' for Active; 'I' for Inactive)
REMARK    1  A    between atoms: C1_7  and  C8_14 
REMARK    2  A    between atoms: C6_12  and  C9_15 
ROOT
HETATM    1  O1  UNK     1      34.533  -9.155  32.464  1.00  0.00    -0.293 OA
HETATM    2  N1  UNK     1      29.932  -9.818  31.189  1.00  0.00    -0.357 N 
HETATM    3  N2  UNK     1      31.239  -7.121  31.398  1.00  0.00    -0.375 N 
HETATM    4  C1  UNK     1      33.037 -11.757  30.481  1.00  0.00     0.038 C 
HETATM    5  C2  UNK     1      31.575 -11.557  30.892  1.00  0.00     0.068 C 
HETATM    6  C3  UNK     1      32.237  -9.328  31.827  1.00  0.00     0.037 C 
HETATM    7  C4  UNK     1      31.270 -10.132  31.333  1.00  0.00     0.022 C 
HETATM    8  C5  UNK     1      33.942 -11.290  31.612  1.00  0.00     0.094 C 
HETATM    9  C6  UNK     1      32.003  -7.927  32.334  1.00  0.00     0.160 C 
HETATM   10  C7  UNK     1      33.643  -9.857  31.983  1.00  0.00     0.160 C 
HETATM   11  C10 UNK     1      29.276  -8.580  31.046  1.00  0.00     0.059 A 
HETATM   12  C11 UNK     1      29.905  -7.324  31.077  1.00  0.00     0.055 A 
HETATM   13  C15 UNK     1      27.884  -8.632  30.795  1.00  0.00     0.032 A 
HETATM   14  C16 UNK     1      29.128  -6.174  30.809  1.00  0.00     0.031 A 
HETATM   15  C21 UNK     1      27.134  -7.483  30.551  1.00  0.00     0.002 A 
HETATM   16  C22 UNK     1      27.762  -6.249  30.550  1.00  0.00     0.002 A 
HETATM   17  H7  UNK     1      29.329 -10.625  31.052  1.00  0.00     0.166 HD
HETATM   18  H8  UNK     1      31.608  -6.192  31.211  1.00  0.00     0.160 HD
ENDROOT
BRANCH   9  19
HETATM   19  C9  UNK     1      31.384  -7.893  33.701  1.00  0.00     0.042 A 
HETATM   20  C13 UNK     1      31.216  -6.580  34.372  1.00  0.00     0.195 A 
HETATM   21  O3  UNK     1      31.564  -5.532  33.845  1.00  0.00    -0.287 OA
HETATM   22  C17 UNK     1      30.604  -6.605  35.713  1.00  0.00     0.049 A 
HETATM   23  C19 UNK     1      30.227  -7.830  36.264  1.00  0.00     0.089 A 
HETATM   24  C23 UNK     1      30.402  -5.421  36.426  1.00  0.00     0.025 A 
HETATM   25  O2  UNK     1      30.401  -9.022  35.608  1.00  0.00    -0.321 OA
HETATM   26  C24 UNK     1      29.645  -7.877  37.531  1.00  0.00     0.039 A 
HETATM   27  C14 UNK     1      30.972  -8.984  34.360  1.00  0.00     0.156 A 
HETATM   28  C26 UNK     1      29.443  -6.696  38.245  1.00  0.00     0.009 A 
HETATM   29  C25 UNK     1      29.820  -5.471  37.694  1.00  0.00    -0.061 A 
HETATM   30  C27 UNK     1      29.601  -4.211  38.462  1.00  0.00     0.048 C 
ENDBRANCH   9  19
BRANCH   4  31
HETATM   31  C8  UNK     1      33.324 -13.188  30.068  1.00  0.00    -0.013 A 
HETATM   32  C12 UNK     1      34.330 -13.654  29.254  1.00  0.00     0.015 A 
HETATM   33  C18 UNK     1      34.274 -15.069  29.099  1.00  0.00     0.008 A 
HETATM   34  C20 UNK     1      33.228 -15.626  29.800  1.00  0.00     0.050 A 
HETATM   35  S1  UNK     1      32.318 -14.445  30.642  1.00  0.00    -0.106 SA
ENDBRANCH   4  31
TORSDOF 2
ENDMDL
MODEL 5
REMARK VINA RESULT:      -8.5     32.785     34.475
REMARK  2 active torsions:
REMARK  status: ('A' for Active; 'I' for Inactive)
REMARK    1  A    between atoms: C1_7  and  C8_14 
REMARK    2  A    between atoms: C6_12  and  C9_15 
ROOT
HETATM    1  O1  UNK     1      17.742   7.923  10.063  1.00  0.00    -0.293 OA
HETATM    2  N1  UNK     1      15.028  11.462   8.234  1.00  0.00    -0.357 N 
HETATM    3  N2  UNK     1      17.993  11.230   7.798  1.00  0.00    -0.375 N 
HETATM    4  C1  UNK     1      14.381   7.832   8.785  1.00  0.00     0.038 C 
HETATM    5  C2  UNK     1      14.070   9.331   8.828  1.00  0.00     0.068 C 
HETATM    6  C3  UNK     1      16.528   9.741   9.097  1.00  0.00     0.037 C 
HETATM    7  C4  UNK     1      15.316  10.200   8.719  1.00  0.00     0.022 C 
HETATM    8  C5  UNK     1      15.415   7.506   9.852  1.00  0.00     0.094 C 
HETATM    9  C6  UNK     1      17.795  10.557   9.071  1.00  0.00     0.160 C 
HETATM   10  C7  UNK     1      16.655   8.352   9.676  1.00  0.00     0.160 C 
HETATM   11  C10 UNK     1      15.834  12.414   7.577  1.00  0.00     0.059 A 
HETATM   12  C11 UNK     1      17.207  12.267   7.317  1.00  0.00     0.055 A 
HETATM   13  C15 UNK     1      15.176  13.572   7.101  1.00  0.00     0.032 A 
HETATM   14  C16 UNK     1      17.857  13.262   6.552  1.00  0.00     0.031 A 
HETATM   15  C21 UNK     1      15.842  14.549   6.363  1.00  0.00     0.002 A 
HETATM   16  C22 UNK     1      17.187  14.388   6.079  1.00  0.00     0.002 A 
HETATM   17  H7  UNK     1      14.041  11.700   8.255  1.00  0.00     0.166 HD
HETATM   18  H8  UNK     1      18.921  11.147   7.393  1.00  0.00     0.160 HD
ENDROOT
BRANCH   9  19
HETATM   19  C9  UNK     1      17.893  11.527  10.212  1.00  0.00     0.042 A 
HETATM   20  C13 UNK     1      19.237  12.001  10.628  1.00  0.00     0.195 A 
HETATM   21  O3  UNK     1      20.260  11.627  10.070  1.00  0.00    -0.287 OA
HETATM   22  C17 UNK     1      19.274  12.952  11.755  1.00  0.00     0.049 A 
HETATM   23  C19 UNK     1      18.076  13.343  12.352  1.00  0.00     0.089 A 
HETATM   24  C23 UNK     1      20.491  13.457  12.220  1.00  0.00     0.025 A 
HETATM   25  O2  UNK     1      16.854  12.880  11.935  1.00  0.00    -0.321 OA
HETATM   26  C24 UNK     1      18.088  14.243  13.419  1.00  0.00     0.039 A 
HETATM   27  C14 UNK     1      16.834  11.995  10.885  1.00  0.00     0.156 A 
HETATM   28  C26 UNK     1      19.301  14.748  13.886  1.00  0.00     0.009 A 
HETATM   29  C25 UNK     1      20.500  14.356  13.288  1.00  0.00    -0.061 A 
HETATM   30  C27 UNK     1      21.794  14.901  13.791  1.00  0.00     0.048 C 
ENDBRANCH   9  19
BRANCH   4  31
HETATM   31  C8  UNK     1      13.130   6.985   8.919  1.00  0.00    -0.013 A 
HETATM   32  C12 UNK     1      12.979   5.786   9.573  1.00  0.00     0.015 A 
HETATM   33  C18 UNK     1      11.646   5.292   9.477  1.00  0.00     0.008 A 
HETATM   34  C20 UNK     1      10.833   6.135   8.752  1.00  0.00     0.050 A 
HETATM   35  S1  UNK     1      11.676   7.515   8.191  1.00  0.00    -0.106 SA
ENDBRANCH   4  31
TORSDOF 2
ENDMDL
MODEL 6
REMARK VINA RESULT:      -8.4      4.294      6.814
REMARK  2 active torsions:
REMARK  status: ('A' for Active; 'I' for Inactive)
REMARK    1  A    between atoms: C1_7  and  C8_14 
REMARK    2  A    between atoms: C6_12  and  C9_15 
ROOT
HETATM    1  O1  UNK     1      34.286 -12.250  32.897  1.00  0.00    -0.293 OA
HETATM    2  N1  UNK     1      35.774  -7.727  33.647  1.00  0.00    -0.357 N 
HETATM    3  N2  UNK     1      33.398  -8.955  35.016  1.00  0.00    -0.375 N 
HETATM    4  C1  UNK     1      37.620 -10.907  33.033  1.00  0.00     0.038 C 
HETATM    5  C2  UNK     1      37.286  -9.424  32.845  1.00  0.00     0.068 C 
HETATM    6  C3  UNK     1      34.900  -9.988  33.364  1.00  0.00     0.037 C 
HETATM    7  C4  UNK     1      35.885  -9.065  33.320  1.00  0.00     0.022 C 
HETATM    8  C5  UNK     1      36.543 -11.750  32.364  1.00  0.00     0.094 C 
HETATM    9  C6  UNK     1      33.477  -9.698  33.769  1.00  0.00     0.160 C 
HETATM   10  C7  UNK     1      35.176 -11.399  32.901  1.00  0.00     0.160 C 
HETATM   11  C10 UNK     1      34.879  -7.046  34.497  1.00  0.00     0.059 A 
HETATM   12  C11 UNK     1      33.811  -7.642  35.187  1.00  0.00     0.055 A 
HETATM   13  C15 UNK     1      35.131  -5.669  34.700  1.00  0.00     0.032 A 
HETATM   14  C16 UNK     1      33.065  -6.849  36.089  1.00  0.00     0.031 A 
HETATM   15  C21 UNK     1      34.371  -4.901  35.581  1.00  0.00     0.002 A 
HETATM   16  C22 UNK     1      33.340  -5.497  36.286  1.00  0.00     0.002 A 
HETATM   17  H7  UNK     1      36.538  -7.151  33.303  1.00  0.00     0.166 HD
HETATM   18  H8  UNK     1      32.734  -9.308  35.700  1.00  0.00     0.160 HD
ENDROOT
BRANCH   9  19
HETATM   19  C9  UNK     1      32.686  -9.019  32.690  1.00  0.00     0.042 A 
HETATM   20  C13 UNK     1      31.241  -8.767  32.920  1.00  0.00     0.195 A 
HETATM   21  O3  UNK     1      30.682  -9.094  33.958  1.00  0.00    -0.287 OA
HETATM   22  C17 UNK     1      30.512  -8.099  31.826  1.00  0.00     0.049 A 
HETATM   23  C19 UNK     1      31.203  -7.750  30.665  1.00  0.00     0.089 A 
HETATM   24  C23 UNK     1      29.149  -7.818  31.946  1.00  0.00     0.025 A 
HETATM   25  O2  UNK     1      32.540  -8.001  30.494  1.00  0.00    -0.321 OA
HETATM   26  C24 UNK     1      30.533  -7.116  29.618  1.00  0.00     0.039 A 
HETATM   27  C14 UNK     1      33.207  -8.624  31.520  1.00  0.00     0.156 A 
HETATM   28  C26 UNK     1      29.172  -6.834  29.735  1.00  0.00     0.009 A 
HETATM   29  C25 UNK     1      28.482  -7.184  30.897  1.00  0.00    -0.061 A 
HETATM   30  C27 UNK     1      27.027  -6.879  31.018  1.00  0.00     0.048 C 
ENDBRANCH   9  19
BRANCH   4  31
HETATM   31  C8  UNK     1      39.011 -11.248  32.532  1.00  0.00    -0.013 A 
HETATM   32  C12 UNK     1      39.611 -10.866  31.356  1.00  0.00     0.015 A 
HETATM   33  C18 UNK     1      40.932 -11.388  31.239  1.00  0.00     0.008 A 
HETATM   34  C20 UNK     1      41.286 -12.148  32.331  1.00  0.00     0.050 A 
HETATM   35  S1  UNK     1      40.029 -12.230  33.491  1.00  0.00    -0.106 SA
ENDBRANCH   4  31
TORSDOF 2
ENDMDL
MODEL 7
REMARK VINA RESULT:      -8.4      1.549      1.909
REMARK  2 active torsions:
REMARK  status: ('A' for Active; 'I' for Inactive)
REMARK    1  A    between atoms: C1_7  and  C8_14 
REMARK    2  A    between atoms: C6_12  and  C9_15 
ROOT
HETATM    1  O1  UNK     1      34.219 -11.243  32.392  1.00  0.00    -0.293 OA
HETATM    2  N1  UNK     1      29.505 -10.509  31.701  1.00  0.00    -0.357 N 
HETATM    3  N2  UNK     1      31.641  -8.567  30.868  1.00  0.00    -0.375 N 
HETATM    4  C1  UNK     1      31.616 -13.578  31.545  1.00  0.00     0.038 C 
HETATM    5  C2  UNK     1      30.402 -12.734  31.943  1.00  0.00     0.068 C 
HETATM    6  C3  UNK     1      31.918 -10.738  31.990  1.00  0.00     0.037 C 
HETATM    7  C4  UNK     1      30.668 -11.237  31.869  1.00  0.00     0.022 C 
HETATM    8  C5  UNK     1      32.814 -13.156  32.385  1.00  0.00     0.094 C 
HETATM    9  C6  UNK     1      32.254  -9.268  31.983  1.00  0.00     0.160 C 
HETATM   10  C7  UNK     1      33.075 -11.675  32.242  1.00  0.00     0.160 C 
HETATM   11  C10 UNK     1      29.277  -9.225  31.168  1.00  0.00     0.059 A 
HETATM   12  C11 UNK     1      30.279  -8.349  30.718  1.00  0.00     0.055 A 
HETATM   13  C15 UNK     1      27.925  -8.832  31.033  1.00  0.00     0.032 A 
HETATM   14  C16 UNK     1      29.888  -7.136  30.107  1.00  0.00     0.031 A 
HETATM   15  C21 UNK     1      27.563  -7.622  30.443  1.00  0.00     0.002 A 
HETATM   16  C22 UNK     1      28.550  -6.775  29.970  1.00  0.00     0.002 A 
HETATM   17  H7  UNK     1      28.656 -11.034  31.893  1.00  0.00     0.166 HD
HETATM   18  H8  UNK     1      32.253  -7.948  30.344  1.00  0.00     0.160 HD
ENDROOT
BRANCH   9  19
HETATM   19  C9  UNK     1      31.940  -8.588  33.283  1.00  0.00     0.042 A 
HETATM   20  C13 UNK     1      32.262  -7.145  33.426  1.00  0.00     0.195 A 
HETATM   21  O3  UNK     1      32.772  -6.501  32.520  1.00  0.00    -0.287 OA
HETATM   22  C17 UNK     1      31.933  -6.528  34.724  1.00  0.00     0.049 A 
HETATM   23  C19 UNK     1      31.354  -7.313  35.721  1.00  0.00     0.089 A 
HETATM   24  C23 UNK     1      32.198  -5.176  34.956  1.00  0.00     0.025 A 
HETATM   25  O2  UNK     1      31.072  -8.644  35.546  1.00  0.00    -0.321 OA
HETATM   26  C24 UNK     1      31.034  -6.748  36.957  1.00  0.00     0.039 A 
HETATM   27  C14 UNK     1      31.383  -9.206  34.333  1.00  0.00     0.156 A 
HETATM   28  C26 UNK     1      31.296  -5.399  37.191  1.00  0.00     0.009 A 
HETATM   29  C25 UNK     1      31.877  -4.614  36.194  1.00  0.00    -0.061 A 
HETATM   30  C27 UNK     1      32.155  -3.171  36.450  1.00  0.00     0.048 C 
ENDBRANCH   9  19
BRANCH   4  31
HETATM   31  C8  UNK     1      31.338 -15.065  31.648  1.00  0.00    -0.013 A 
HETATM   32  C12 UNK     1      31.014 -15.796  32.766  1.00  0.00     0.015 A 
HETATM   33  C18 UNK     1      30.825 -17.176  32.462  1.00  0.00     0.008 A 
HETATM   34  C20 UNK     1      31.014 -17.441  31.125  1.00  0.00     0.050 A 
HETATM   35  S1  UNK     1      31.416 -16.032  30.240  1.00  0.00    -0.106 SA
ENDBRANCH   4  31
TORSDOF 2
ENDMDL
MODEL 8
REMARK VINA RESULT:      -8.3     31.702     34.467
REMARK  2 active torsions:
REMARK  status: ('A' for Active; 'I' for Inactive)
REMARK    1  A    between atoms: C1_7  and  C8_14 
REMARK    2  A    between atoms: C6_12  and  C9_15 
ROOT
HETATM    1  O1  UNK     1      19.775  12.939  13.016  1.00  0.00    -0.293 OA
HETATM    2  N1  UNK     1      20.455  12.706   8.249  1.00  0.00    -0.357 N 
HETATM    3  N2  UNK     1      18.167  14.162   9.545  1.00  0.00    -0.375 N 
HETATM    4  C1  UNK     1      22.827  12.980  11.112  1.00  0.00     0.038 C 
HETATM    5  C2  UNK     1      22.289  12.428   9.790  1.00  0.00     0.068 C 
HETATM    6  C3  UNK     1      19.978  12.903  10.635  1.00  0.00     0.037 C 
HETATM    7  C4  UNK     1      20.807  12.710   9.586  1.00  0.00     0.022 C 
HETATM    8  C5  UNK     1      21.971  12.456  12.257  1.00  0.00     0.094 C 
HETATM    9  C6  UNK     1      18.492  13.132  10.517  1.00  0.00     0.160 C 
HETATM   10  C7  UNK     1      20.516  12.803  12.042  1.00  0.00     0.160 C 
HETATM   11  C10 UNK     1      19.381  13.310   7.567  1.00  0.00     0.059 A 
HETATM   12  C11 UNK     1      18.350  14.047   8.174  1.00  0.00     0.055 A 
HETATM   13  C15 UNK     1      19.393  13.201   6.156  1.00  0.00     0.032 A 
HETATM   14  C16 UNK     1      17.400  14.686   7.346  1.00  0.00     0.031 A 
HETATM   15  C21 UNK     1      18.434  13.825   5.359  1.00  0.00     0.002 A 
HETATM   16  C22 UNK     1      17.438  14.578   5.957  1.00  0.00     0.002 A 
HETATM   17  H7  UNK     1      21.152  12.289   7.638  1.00  0.00     0.166 HD
HETATM   18  H8  UNK     1      17.497  14.863   9.849  1.00  0.00     0.160 HD
ENDROOT
BRANCH   9  19
HETATM   19  C9  UNK     1      17.724  11.872  10.242  1.00  0.00     0.042 A 
HETATM   20  C13 UNK     1      16.241  11.919  10.296  1.00  0.00     0.195 A 
HETATM   21  O3  UNK     1      15.632  12.947  10.556  1.00  0.00    -0.287 OA
HETATM   22  C17 UNK     1      15.537  10.653  10.018  1.00  0.00     0.049 A 
HETATM   23  C19 UNK     1      16.285   9.511   9.728  1.00  0.00     0.089 A 
HETATM   24  C23 UNK     1      14.142  10.594  10.045  1.00  0.00     0.025 A 
HETATM   25  O2  UNK     1      17.656   9.513   9.688  1.00  0.00    -0.321 OA
HETATM   26  C24 UNK     1      15.639   8.303   9.462  1.00  0.00     0.039 A 
HETATM   27  C14 UNK     1      18.298  10.698   9.949  1.00  0.00     0.156 A 
HETATM   28  C26 UNK     1      14.246   8.241   9.487  1.00  0.00     0.009 A 
HETATM   29  C25 UNK     1      13.499   9.383   9.778  1.00  0.00    -0.061 A 
HETATM   30  C27 UNK     1      12.009   9.312   9.803  1.00  0.00     0.048 C 
ENDBRANCH   9  19
BRANCH   4  31
HETATM   31  C8  UNK     1      24.299  12.669  11.306  1.00  0.00    -0.013 A 
HETATM   32  C12 UNK     1      25.073  11.758  10.628  1.00  0.00     0.015 A 
HETATM   33  C18 UNK     1      26.419  11.752  11.096  1.00  0.00     0.008 A 
HETATM   34  C20 UNK     1      26.617  12.659  12.114  1.00  0.00     0.050 A 
HETATM   35  S1  UNK     1      25.184  13.512  12.501  1.00  0.00    -0.106 SA
ENDBRANCH   4  31
TORSDOF 2
ENDMDL
MODEL 9
REMARK VINA RESULT:      -8.3      3.689      4.498
REMARK  2 active torsions:
REMARK  status: ('A' for Active; 'I' for Inactive)
REMARK    1  A    between atoms: C1_7  and  C8_14 
REMARK    2  A    between atoms: C6_12  and  C9_15 
ROOT
HETATM    1  O1  UNK     1      36.002  -7.014  35.128  1.00  0.00    -0.293 OA
HETATM    2  N1  UNK     1      32.704  -8.780  32.088  1.00  0.00    -0.357 N 
HETATM    3  N2  UNK     1      32.487  -6.094  33.418  1.00  0.00    -0.375 N 
HETATM    4  C1  UNK     1      36.424  -9.007  32.163  1.00  0.00     0.038 C 
HETATM    5  C2  UNK     1      34.993  -9.534  32.026  1.00  0.00     0.068 C 
HETATM    6  C3  UNK     1      34.281  -7.761  33.648  1.00  0.00     0.037 C 
HETATM    7  C4  UNK     1      33.956  -8.608  32.647  1.00  0.00     0.022 C 
HETATM    8  C5  UNK     1      36.709  -8.713  33.629  1.00  0.00     0.094 C 
HETATM    9  C6  UNK     1      33.301  -6.855  34.350  1.00  0.00     0.160 C 
HETATM   10  C7  UNK     1      35.689  -7.751  34.192  1.00  0.00     0.160 C 
HETATM   11  C10 UNK     1      31.592  -7.917  32.009  1.00  0.00     0.059 A 
HETATM   12  C11 UNK     1      31.524  -6.634  32.578  1.00  0.00     0.055 A 
HETATM   13  C15 UNK     1      30.493  -8.378  31.246  1.00  0.00     0.032 A 
HETATM   14  C16 UNK     1      30.381  -5.843  32.321  1.00  0.00     0.031 A 
HETATM   15  C21 UNK     1      29.368  -7.587  31.021  1.00  0.00     0.002 A 
HETATM   16  C22 UNK     1      29.316  -6.310  31.554  1.00  0.00     0.002 A 
HETATM   17  H7  UNK     1      32.606  -9.632  31.543  1.00  0.00     0.166 HD
HETATM   18  H8  UNK     1      32.403  -5.100  33.613  1.00  0.00     0.160 HD
ENDROOT
BRANCH   9  19
HETATM   19  C9  UNK     1      32.442  -7.579  35.345  1.00  0.00     0.042 A 
HETATM   20  C13 UNK     1      31.390  -6.816  36.062  1.00  0.00     0.195 A 
HETATM   21  O3  UNK     1      31.203  -5.623  35.865  1.00  0.00    -0.287 OA
HETATM   22  C17 UNK     1      30.576  -7.575  37.030  1.00  0.00     0.049 A 
HETATM   23  C19 UNK     1      30.835  -8.934  37.214  1.00  0.00     0.089 A 
HETATM   24  C23 UNK     1      29.560  -6.947  37.754  1.00  0.00     0.025 A 
HETATM   25  O2  UNK     1      31.819  -9.601  36.529  1.00  0.00    -0.321 OA
HETATM   26  C24 UNK     1      30.077  -9.672  38.124  1.00  0.00     0.039 A 
HETATM   27  C14 UNK     1      32.569  -8.881  35.632  1.00  0.00     0.156 A 
HETATM   28  C26 UNK     1      29.062  -9.048  38.848  1.00  0.00     0.009 A 
HETATM   29  C25 UNK     1      28.804  -7.688  38.664  1.00  0.00    -0.061 A 
HETATM   30  C27 UNK     1      27.717  -7.026  39.441  1.00  0.00     0.048 C 
ENDBRANCH   9  19
BRANCH   4  31
HETATM   31  C8  UNK     1      37.443  -9.955  31.558  1.00  0.00    -0.013 A 
HETATM   32  C12 UNK     1      37.501 -10.435  30.272  1.00  0.00     0.015 A 
HETATM   33  C18 UNK     1      38.611 -11.308  30.081  1.00  0.00     0.008 A 
HETATM   34  C20 UNK     1      39.355 -11.459  31.230  1.00  0.00     0.050 A 
HETATM   35  S1  UNK     1      38.715 -10.550  32.532  1.00  0.00    -0.106 SA
ENDBRANCH   4  31
TORSDOF 2
ENDMDL
MODEL 10
REMARK VINA RESULT:      -8.1      2.866      8.257
REMARK  2 active torsions:
REMARK  status: ('A' for Active; 'I' for Inactive)
REMARK    1  A    between atoms: C1_7  and  C8_14 
REMARK    2  A    between atoms: C6_12  and  C9_15 
ROOT
HETATM    1  O1  UNK     1      28.127  -8.101  33.218  1.00  0.00    -0.293 OA
HETATM    2  N1  UNK     1      32.870  -8.097  34.080  1.00  0.00    -0.357 N 
HETATM    3  N2  UNK     1      31.666  -8.409  31.345  1.00  0.00    -0.375 N 
HETATM    4  C1  UNK     1      30.043  -6.191  35.589  1.00  0.00     0.038 C 
HETATM    5  C2  UNK     1      31.322  -7.032  35.592  1.00  0.00     0.068 C 
HETATM    6  C3  UNK     1      30.501  -8.127  33.492  1.00  0.00     0.037 C 
HETATM    7  C4  UNK     1      31.538  -7.792  34.291  1.00  0.00     0.022 C 
HETATM    8  C5  UNK     1      28.861  -7.081  35.231  1.00  0.00     0.094 C 
HETATM    9  C6  UNK     1      30.627  -8.925  32.220  1.00  0.00     0.160 C 
HETATM   10  C7  UNK     1      29.092  -7.776  33.909  1.00  0.00     0.160 C 
HETATM   11  C10 UNK     1      33.587  -8.374  32.900  1.00  0.00     0.059 A 
HETATM   12  C11 UNK     1      33.026  -8.452  31.614  1.00  0.00     0.055 A 
HETATM   13  C15 UNK     1      34.987  -8.527  33.037  1.00  0.00     0.032 A 
HETATM   14  C16 UNK     1      33.892  -8.631  30.511  1.00  0.00     0.031 A 
HETATM   15  C21 UNK     1      35.820  -8.720  31.937  1.00  0.00     0.002 A 
HETATM   16  C22 UNK     1      35.270  -8.763  30.667  1.00  0.00     0.002 A 
HETATM   17  H7  UNK     1      33.454  -7.993  34.905  1.00  0.00     0.166 HD
HETATM   18  H8  UNK     1      31.407  -8.296  30.368  1.00  0.00     0.160 HD
ENDROOT
BRANCH   9  19
HETATM   19  C9  UNK     1      30.813 -10.394  32.464  1.00  0.00     0.042 A 
HETATM   20  C13 UNK     1      30.789 -11.316  31.300  1.00  0.00     0.195 A 
HETATM   21  O3  UNK     1      30.625 -10.914  30.156  1.00  0.00    -0.287 OA
HETATM   22  C17 UNK     1      30.975 -12.749  31.598  1.00  0.00     0.049 A 
HETATM   23  C19 UNK     1      31.157 -13.148  32.922  1.00  0.00     0.089 A 
HETATM   24  C23 UNK     1      30.969 -13.695  30.571  1.00  0.00     0.025 A 
HETATM   25  O2  UNK     1      31.172 -12.261  33.968  1.00  0.00    -0.321 OA
HETATM   26  C24 UNK     1      31.335 -14.498  33.226  1.00  0.00     0.039 A 
HETATM   27  C14 UNK     1      30.998 -10.931  33.677  1.00  0.00     0.156 A 
HETATM   28  C26 UNK     1      31.330 -15.446  32.202  1.00  0.00     0.009 A 
HETATM   29  C25 UNK     1      31.148 -15.046  30.878  1.00  0.00    -0.061 A 
HETATM   30  C27 UNK     1      31.144 -16.063  29.787  1.00  0.00     0.048 C 
ENDBRANCH   9  19
BRANCH   4  31
HETATM   31  C8  UNK     1      29.835  -5.460  36.901  1.00  0.00    -0.013 A 
HETATM   32  C12 UNK     1      30.509  -4.363  37.382  1.00  0.00     0.015 A 
HETATM   33  C18 UNK     1      30.026  -3.961  38.661  1.00  0.00     0.008 A 
HETATM   34  C20 UNK     1      29.004  -4.769  39.105  1.00  0.00     0.050 A 
HETATM   35  S1  UNK     1      28.628  -6.006  37.983  1.00  0.00    -0.106 SA
ENDBRANCH   4  31
TORSDOF 2
ENDMDL
