MODEL 1
REMARK VINA RESULT:     -10.0      0.000      0.000
REMARK  4 active torsions:
REMARK  status: ('A' for Active; 'I' for Inactive)
REMARK    1  A    between atoms: C5_13  and  N1_7 
REMARK       I    between atoms: C8_16  and  N1_7 
REMARK    2  A    between atoms: C10_18  and  N2_8 
REMARK    3  A    between atoms: C3_11  and  C8_16 
REMARK    4  A    between atoms: C5_13  and  C6_14 
ROOT
HETATM    1  O1  UNK     1      19.016   0.381  28.582  1.00  0.00    -0.274 OA
HETATM    2  O3  UNK     1      18.075   2.361  27.936  1.00  0.00    -0.259 OA
HETATM    3  C1  UNK     1      19.672   0.064  30.902  1.00  0.00     0.001 A 
HETATM    4  C2  UNK     1      19.570  -0.419  29.601  1.00  0.00     0.089 A 
HETATM    5  C3  UNK     1      18.674   2.164  30.221  1.00  0.00     0.108 A 
HETATM    6  C4  UNK     1      19.198   1.408  31.193  1.00  0.00     0.037 A 
HETATM    7  C7  UNK     1      20.226  -0.761  31.884  1.00  0.00     0.050 A 
HETATM    8  C9  UNK     1      20.004  -1.697  29.255  1.00  0.00     0.041 A 
HETATM    9  C10 UNK     1      20.667  -2.045  31.553  1.00  0.00     0.103 A 
HETATM   10  C11 UNK     1      18.554   1.671  28.830  1.00  0.00     0.304 A 
HETATM   11  C12 UNK     1      20.556  -2.511  30.241  1.00  0.00     0.039 A 
ENDROOT
BRANCH   5  12
HETATM   12  C8  UNK     1      18.224   3.505  30.614  1.00  0.00     0.258 C 
HETATM   13  O2  UNK     1      17.391   3.654  31.506  1.00  0.00    -0.267 OA
HETATM   14  N1  UNK     1      18.831   4.511  29.884  1.00  0.00    -0.352 N 
HETATM   15  H5  UNK     1      19.498   4.283  29.154  1.00  0.00     0.163 HD
BRANCH  14  16
HETATM   16  C5  UNK     1      18.546   5.914  30.090  1.00  0.00     0.164 C 
BRANCH  16  17
HETATM   17  C6  UNK     1      19.022   6.392  31.430  1.00  0.00    -0.002 A 
HETATM   18  C13 UNK     1      18.155   7.094  32.261  1.00  0.00     0.124 A 
HETATM   19  F1  UNK     1      16.896   7.351  31.878  1.00  0.00    -0.205 F 
HETATM   20  C15 UNK     1      18.600   7.537  33.506  1.00  0.00     0.043 A 
HETATM   21  C17 UNK     1      19.908   7.276  33.913  1.00  0.00     0.003 A 
HETATM   22  C16 UNK     1      20.772   6.572  33.074  1.00  0.00     0.001 A 
HETATM   23  C14 UNK     1      20.327   6.129  31.829  1.00  0.00     0.012 A 
ENDBRANCH  16  17
ENDBRANCH  14  16
ENDBRANCH   5  12
BRANCH   9  24
HETATM   24  N2  UNK     1      21.231  -2.879  32.555  1.00  0.00    -0.116 N 
HETATM   25  O4  UNK     1      21.539  -2.374  33.662  1.00  0.00    -0.532 OA
HETATM   26  O5  UNK     1      21.405  -4.096  32.306  1.00  0.00    -0.532 OA
ENDBRANCH   9  24
TORSDOF 4
ENDMDL
MODEL 2
REMARK VINA RESULT:      -9.6      4.895      9.438
REMARK  4 active torsions:
REMARK  status: ('A' for Active; 'I' for Inactive)
REMARK    1  A    between atoms: C5_13  and  N1_7 
REMARK       I    between atoms: C8_16  and  N1_7 
REMARK    2  A    between atoms: C10_18  and  N2_8 
REMARK    3  A    between atoms: C3_11  and  C8_16 
REMARK    4  A    between atoms: C5_13  and  C6_14 
ROOT
HETATM    1  O1  UNK     1      20.825  -2.672  30.834  1.00  0.00    -0.274 OA
HETATM    2  O3  UNK     1      21.390  -4.147  32.485  1.00  0.00    -0.259 OA
HETATM    3  C1  UNK     1      19.676  -0.608  31.411  1.00  0.00     0.001 A 
HETATM    4  C2  UNK     1      20.234  -1.450  30.454  1.00  0.00     0.089 A 
HETATM    5  C3  UNK     1      20.273  -2.170  33.163  1.00  0.00     0.108 A 
HETATM    6  C4  UNK     1      19.713  -1.008  32.809  1.00  0.00     0.037 A 
HETATM    7  C7  UNK     1      19.100   0.595  30.994  1.00  0.00     0.050 A 
HETATM    8  C9  UNK     1      20.232  -1.127  29.099  1.00  0.00     0.041 A 
HETATM    9  C10 UNK     1      19.090   0.934  29.638  1.00  0.00     0.103 A 
HETATM   10  C11 UNK     1      20.874  -3.082  32.164  1.00  0.00     0.304 A 
HETATM   11  C12 UNK     1      19.655   0.074  28.693  1.00  0.00     0.039 A 
ENDROOT
BRANCH   5  12
HETATM   12  C8  UNK     1      20.262  -2.484  34.597  1.00  0.00     0.258 C 
HETATM   13  O2  UNK     1      20.524  -1.622  35.434  1.00  0.00    -0.267 OA
HETATM   14  N1  UNK     1      19.936  -3.803  34.856  1.00  0.00    -0.352 N 
HETATM   15  H5  UNK     1      19.751  -4.444  34.090  1.00  0.00     0.163 HD
BRANCH  14  16
HETATM   16  C5  UNK     1      19.862  -4.349  36.193  1.00  0.00     0.164 C 
BRANCH  16  17
HETATM   17  C6  UNK     1      20.347  -5.768  36.247  1.00  0.00    -0.002 A 
HETATM   18  C13 UNK     1      20.965  -6.243  37.399  1.00  0.00     0.124 A 
HETATM   19  F1  UNK     1      21.136  -5.448  38.464  1.00  0.00    -0.205 F 
HETATM   20  C15 UNK     1      21.414  -7.563  37.446  1.00  0.00     0.043 A 
HETATM   21  C17 UNK     1      21.242  -8.398  36.343  1.00  0.00     0.003 A 
HETATM   22  C16 UNK     1      20.620  -7.915  35.191  1.00  0.00     0.001 A 
HETATM   23  C14 UNK     1      20.172  -6.595  35.143  1.00  0.00     0.012 A 
ENDBRANCH  16  17
ENDBRANCH  14  16
ENDBRANCH   5  12
BRANCH   9  24
HETATM   24  N2  UNK     1      18.502   2.157  29.219  1.00  0.00    -0.116 N 
HETATM   25  O4  UNK     1      17.932   2.206  28.103  1.00  0.00    -0.532 OA
HETATM   26  O5  UNK     1      18.569   3.154  29.978  1.00  0.00    -0.532 OA
ENDBRANCH   9  24
TORSDOF 4
ENDMDL
MODEL 3
REMARK VINA RESULT:      -9.5      1.704      2.295
REMARK  4 active torsions:
REMARK  status: ('A' for Active; 'I' for Inactive)
REMARK    1  A    between atoms: C5_13  and  N1_7 
REMARK       I    between atoms: C8_16  and  N1_7 
REMARK    2  A    between atoms: C10_18  and  N2_8 
REMARK    3  A    between atoms: C3_11  and  C8_16 
REMARK    4  A    between atoms: C5_13  and  C6_14 
ROOT
HETATM    1  O1  UNK     1      20.096  -1.593  29.302  1.00  0.00    -0.274 OA
HETATM    2  O3  UNK     1      19.434  -0.146  27.662  1.00  0.00    -0.259 OA
HETATM    3  C1  UNK     1      19.829  -0.965  31.636  1.00  0.00     0.001 A 
HETATM    4  C2  UNK     1      20.237  -1.884  30.674  1.00  0.00     0.089 A 
HETATM    5  C3  UNK     1      19.126   0.571  29.900  1.00  0.00     0.108 A 
HETATM    6  C4  UNK     1      19.256   0.299  31.204  1.00  0.00     0.037 A 
HETATM    7  C7  UNK     1      19.986  -1.291  32.986  1.00  0.00     0.050 A 
HETATM    8  C9  UNK     1      20.794  -3.113  31.020  1.00  0.00     0.041 A 
HETATM    9  C10 UNK     1      20.543  -2.520  33.350  1.00  0.00     0.103 A 
HETATM   10  C11 UNK     1      19.551  -0.391  28.858  1.00  0.00     0.304 A 
HETATM   11  C12 UNK     1      20.946  -3.428  32.368  1.00  0.00     0.039 A 
ENDROOT
BRANCH   5  12
HETATM   12  C8  UNK     1      18.536   1.872  29.564  1.00  0.00     0.258 C 
HETATM   13  O2  UNK     1      17.543   1.947  28.842  1.00  0.00    -0.267 OA
HETATM   14  N1  UNK     1      19.211   2.934  30.139  1.00  0.00    -0.352 N 
HETATM   15  H5  UNK     1      20.034   2.768  30.710  1.00  0.00     0.163 HD
BRANCH  14  16
HETATM   16  C5  UNK     1      18.817   4.312  29.951  1.00  0.00     0.164 C 
BRANCH  16  17
HETATM   17  C6  UNK     1      18.913   5.102  31.223  1.00  0.00    -0.002 A 
HETATM   18  C13 UNK     1      20.049   5.862  31.481  1.00  0.00     0.124 A 
HETATM   19  F1  UNK     1      21.064   5.897  30.606  1.00  0.00    -0.205 F 
HETATM   20  C15 UNK     1      20.135   6.595  32.664  1.00  0.00     0.043 A 
HETATM   21  C17 UNK     1      19.085   6.564  33.581  1.00  0.00     0.003 A 
HETATM   22  C16 UNK     1      17.948   5.800  33.316  1.00  0.00     0.001 A 
HETATM   23  C14 UNK     1      17.863   5.066  32.133  1.00  0.00     0.012 A 
ENDBRANCH  16  17
ENDBRANCH  14  16
ENDBRANCH   5  12
BRANCH   9  24
HETATM   24  N2  UNK     1      20.700  -2.846  34.723  1.00  0.00    -0.116 N 
HETATM   25  O4  UNK     1      21.311  -2.045  35.471  1.00  0.00    -0.532 OA
HETATM   26  O5  UNK     1      20.224  -3.925  35.150  1.00  0.00    -0.532 OA
ENDBRANCH   9  24
TORSDOF 4
ENDMDL
MODEL 4
REMARK VINA RESULT:      -8.9      3.756      4.699
REMARK  4 active torsions:
REMARK  status: ('A' for Active; 'I' for Inactive)
REMARK    1  A    between atoms: C5_13  and  N1_7 
REMARK       I    between atoms: C8_16  and  N1_7 
REMARK    2  A    between atoms: C10_18  and  N2_8 
REMARK    3  A    between atoms: C3_11  and  C8_16 
REMARK    4  A    between atoms: C5_13  and  C6_14 
ROOT
HETATM    1  O1  UNK     1      18.259   1.543  32.360  1.00  0.00    -0.274 OA
HETATM    2  O3  UNK     1      18.375   3.154  30.745  1.00  0.00    -0.259 OA
HETATM    3  C1  UNK     1      18.215   2.193  34.703  1.00  0.00     0.001 A 
HETATM    4  C2  UNK     1      18.205   1.202  33.726  1.00  0.00     0.089 A 
HETATM    5  C3  UNK     1      18.338   3.904  32.993  1.00  0.00     0.108 A 
HETATM    6  C4  UNK     1      18.284   3.586  34.291  1.00  0.00     0.037 A 
HETATM    7  C7  UNK     1      18.159   1.814  36.047  1.00  0.00     0.050 A 
HETATM    8  C9  UNK     1      18.140  -0.151  34.053  1.00  0.00     0.041 A 
HETATM    9  C10 UNK     1      18.094   0.461  36.390  1.00  0.00     0.103 A 
HETATM   10  C11 UNK     1      18.327   2.867  31.936  1.00  0.00     0.304 A 
HETATM   11  C12 UNK     1      18.084  -0.519  35.395  1.00  0.00     0.039 A 
ENDROOT
BRANCH   5  12
HETATM   12  C8  UNK     1      18.405   5.336  32.678  1.00  0.00     0.258 C 
HETATM   13  O2  UNK     1      19.385   6.007  32.996  1.00  0.00    -0.267 OA
HETATM   14  N1  UNK     1      17.280   5.794  32.015  1.00  0.00    -0.352 N 
HETATM   15  H5  UNK     1      16.513   5.161  31.811  1.00  0.00     0.163 HD
BRANCH  14  16
HETATM   16  C5  UNK     1      17.115   7.170  31.603  1.00  0.00     0.164 C 
BRANCH  16  17
HETATM   17  C6  UNK     1      16.388   7.982  32.634  1.00  0.00    -0.002 A 
HETATM   18  C13 UNK     1      15.010   7.854  32.769  1.00  0.00     0.124 A 
HETATM   19  F1  UNK     1      14.320   7.013  31.986  1.00  0.00    -0.205 F 
HETATM   20  C15 UNK     1      14.338   8.611  33.728  1.00  0.00     0.043 A 
HETATM   21  C17 UNK     1      15.047   9.489  34.546  1.00  0.00     0.003 A 
HETATM   22  C16 UNK     1      16.429   9.613  34.406  1.00  0.00     0.001 A 
HETATM   23  C14 UNK     1      17.102   8.857  33.445  1.00  0.00     0.012 A 
ENDBRANCH  16  17
ENDBRANCH  14  16
ENDBRANCH   5  12
BRANCH   9  24
HETATM   24  N2  UNK     1      18.038   0.081  37.758  1.00  0.00    -0.116 N 
HETATM   25  O4  UNK     1      18.102  -1.137  38.053  1.00  0.00    -0.532 OA
HETATM   26  O5  UNK     1      17.926   0.974  38.633  1.00  0.00    -0.532 OA
ENDBRANCH   9  24
TORSDOF 4
ENDMDL
MODEL 5
REMARK VINA RESULT:      -8.7      3.205      3.830
REMARK  4 active torsions:
REMARK  status: ('A' for Active; 'I' for Inactive)
REMARK    1  A    between atoms: C5_13  and  N1_7 
REMARK       I    between atoms: C8_16  and  N1_7 
REMARK    2  A    between atoms: C10_18  and  N2_8 
REMARK    3  A    between atoms: C3_11  and  C8_16 
REMARK    4  A    between atoms: C5_13  and  C6_14 
ROOT
HETATM    1  O1  UNK     1      18.735   0.437  31.965  1.00  0.00    -0.274 OA
HETATM    2  O3  UNK     1      18.824   1.753  30.100  1.00  0.00    -0.259 OA
HETATM    3  C1  UNK     1      18.272   1.449  34.128  1.00  0.00     0.001 A 
HETATM    4  C2  UNK     1      18.546   0.323  33.357  1.00  0.00     0.089 A 
HETATM    5  C3  UNK     1      18.367   2.848  32.152  1.00  0.00     0.108 A 
HETATM    6  C4  UNK     1      18.185   2.745  33.474  1.00  0.00     0.037 A 
HETATM    7  C7  UNK     1      18.091   1.294  35.504  1.00  0.00     0.050 A 
HETATM    8  C9  UNK     1      18.643  -0.948  33.921  1.00  0.00     0.041 A 
HETATM    9  C10 UNK     1      18.186   0.026  36.085  1.00  0.00     0.103 A 
HETATM   10  C11 UNK     1      18.658   1.664  31.311  1.00  0.00     0.304 A 
HETATM   11  C12 UNK     1      18.461  -1.091  35.294  1.00  0.00     0.039 A 
ENDROOT
BRANCH   5  12
HETATM   12  C8  UNK     1      18.258   4.197  31.585  1.00  0.00     0.258 C 
HETATM   13  O2  UNK     1      18.873   4.505  30.566  1.00  0.00    -0.267 OA
HETATM   14  N1  UNK     1      17.419   5.021  32.314  1.00  0.00    -0.352 N 
HETATM   15  H5  UNK     1      16.967   4.675  33.155  1.00  0.00     0.163 HD
BRANCH  14  16
HETATM   16  C5  UNK     1      17.156   6.396  31.952  1.00  0.00     0.164 C 
BRANCH  16  17
HETATM   17  C6  UNK     1      17.954   7.357  32.782  1.00  0.00    -0.002 A 
HETATM   18  C13 UNK     1      17.420   8.600  33.106  1.00  0.00     0.124 A 
HETATM   19  F1  UNK     1      16.198   8.951  32.685  1.00  0.00    -0.205 F 
HETATM   20  C15 UNK     1      18.166   9.491  33.877  1.00  0.00     0.043 A 
HETATM   21  C17 UNK     1      19.440   9.135  34.319  1.00  0.00     0.003 A 
HETATM   22  C16 UNK     1      19.969   7.887  33.990  1.00  0.00     0.001 A 
HETATM   23  C14 UNK     1      19.224   6.996  33.218  1.00  0.00     0.012 A 
ENDBRANCH  16  17
ENDBRANCH  14  16
ENDBRANCH   5  12
BRANCH   9  24
HETATM   24  N2  UNK     1      18.001  -0.125  37.485  1.00  0.00    -0.116 N 
HETATM   25  O4  UNK     1      17.938  -1.282  37.967  1.00  0.00    -0.532 OA
HETATM   26  O5  UNK     1      17.907   0.901  38.200  1.00  0.00    -0.532 OA
ENDBRANCH   9  24
TORSDOF 4
ENDMDL
MODEL 6
REMARK VINA RESULT:      -8.7     13.858     17.301
REMARK  4 active torsions:
REMARK  status: ('A' for Active; 'I' for Inactive)
REMARK    1  A    between atoms: C5_13  and  N1_7 
REMARK       I    between atoms: C8_16  and  N1_7 
REMARK    2  A    between atoms: C10_18  and  N2_8 
REMARK    3  A    between atoms: C3_11  and  C8_16 
REMARK    4  A    between atoms: C5_13  and  C6_14 
ROOT
HETATM    1  O1  UNK     1      19.411   0.510  14.708  1.00  0.00    -0.274 OA
HETATM    2  O3  UNK     1      19.399  -1.059  13.046  1.00  0.00    -0.259 OA
HETATM    3  C1  UNK     1      18.888  -0.154  16.988  1.00  0.00     0.001 A 
HETATM    4  C2  UNK     1      19.235   0.831  16.068  1.00  0.00     0.089 A 
HETATM    5  C3  UNK     1      18.875  -1.820  15.229  1.00  0.00     0.108 A 
HETATM    6  C4  UNK     1      18.709  -1.521  16.522  1.00  0.00     0.037 A 
HETATM    7  C7  UNK     1      18.724   0.205  18.328  1.00  0.00     0.050 A 
HETATM    8  C9  UNK     1      19.422   2.158  16.448  1.00  0.00     0.041 A 
HETATM    9  C10 UNK     1      18.908   1.532  18.725  1.00  0.00     0.103 A 
HETATM   10  C11 UNK     1      19.245  -0.789  14.232  1.00  0.00     0.304 A 
HETATM   11  C12 UNK     1      19.255   2.506  17.787  1.00  0.00     0.039 A 
ENDROOT
BRANCH   5  12
HETATM   12  C8  UNK     1      18.673  -3.225  14.857  1.00  0.00     0.258 C 
HETATM   13  O2  UNK     1      18.062  -3.525  13.833  1.00  0.00    -0.267 OA
HETATM   14  N1  UNK     1      19.232  -4.107  15.764  1.00  0.00    -0.352 N 
HETATM   15  H5  UNK     1      19.705  -3.758  16.592  1.00  0.00     0.163 HD
BRANCH  14  16
HETATM   16  C5  UNK     1      19.160  -5.543  15.613  1.00  0.00     0.164 C 
BRANCH  16  17
HETATM   17  C6  UNK     1      17.746  -6.042  15.654  1.00  0.00    -0.002 A 
HETATM   18  C13 UNK     1      17.234  -6.757  14.576  1.00  0.00     0.124 A 
HETATM   19  F1  UNK     1      17.989  -7.005  13.497  1.00  0.00    -0.205 F 
HETATM   20  C15 UNK     1      15.918  -7.219  14.618  1.00  0.00     0.043 A 
HETATM   21  C17 UNK     1      15.125  -6.965  15.736  1.00  0.00     0.003 A 
HETATM   22  C16 UNK     1      15.645  -6.248  16.813  1.00  0.00     0.001 A 
HETATM   23  C14 UNK     1      16.960  -5.785  16.771  1.00  0.00     0.012 A 
ENDBRANCH  16  17
ENDBRANCH  14  16
ENDBRANCH   5  12
BRANCH   9  24
HETATM   24  N2  UNK     1      18.738   1.892  20.089  1.00  0.00    -0.116 N 
HETATM   25  O4  UNK     1      19.665   2.500  20.676  1.00  0.00    -0.532 OA
HETATM   26  O5  UNK     1      17.667   1.591  20.669  1.00  0.00    -0.532 OA
ENDBRANCH   9  24
TORSDOF 4
ENDMDL
MODEL 7
REMARK VINA RESULT:      -8.7     14.739     18.060
REMARK  4 active torsions:
REMARK  status: ('A' for Active; 'I' for Inactive)
REMARK    1  A    between atoms: C5_13  and  N1_7 
REMARK       I    between atoms: C8_16  and  N1_7 
REMARK    2  A    between atoms: C10_18  and  N2_8 
REMARK    3  A    between atoms: C3_11  and  C8_16 
REMARK    4  A    between atoms: C5_13  and  C6_14 
ROOT
HETATM    1  O1  UNK     1      19.285   0.784  14.984  1.00  0.00    -0.274 OA
HETATM    2  O3  UNK     1      19.279  -0.771  13.309  1.00  0.00    -0.259 OA
HETATM    3  C1  UNK     1      18.920   0.075  17.281  1.00  0.00     0.001 A 
HETATM    4  C2  UNK     1      19.161   1.085  16.355  1.00  0.00     0.089 A 
HETATM    5  C3  UNK     1      18.913  -1.576  15.508  1.00  0.00     0.108 A 
HETATM    6  C4  UNK     1      18.797  -1.296  16.811  1.00  0.00     0.037 A 
HETATM    7  C7  UNK     1      18.805   0.414  18.631  1.00  0.00     0.050 A 
HETATM    8  C9  UNK     1      19.290   2.418  16.738  1.00  0.00     0.041 A 
HETATM    9  C10 UNK     1      18.931   1.747  19.032  1.00  0.00     0.103 A 
HETATM   10  C11 UNK     1      19.171  -0.519  14.504  1.00  0.00     0.304 A 
HETATM   11  C12 UNK     1      19.173   2.746  18.087  1.00  0.00     0.039 A 
ENDROOT
BRANCH   5  12
HETATM   12  C8  UNK     1      18.774  -2.988  15.133  1.00  0.00     0.258 C 
HETATM   13  O2  UNK     1      17.753  -3.616  15.407  1.00  0.00    -0.267 OA
HETATM   14  N1  UNK     1      19.884  -3.481  14.471  1.00  0.00    -0.352 N 
HETATM   15  H5  UNK     1      20.688  -2.884  14.306  1.00  0.00     0.163 HD
BRANCH  14  16
HETATM   16  C5  UNK     1      19.982  -4.846  14.004  1.00  0.00     0.164 C 
BRANCH  16  17
HETATM   17  C6  UNK     1      19.457  -5.000  12.607  1.00  0.00    -0.002 A 
HETATM   18  C13 UNK     1      18.867  -6.198  12.219  1.00  0.00     0.124 A 
HETATM   19  F1  UNK     1      18.761  -7.221  13.079  1.00  0.00    -0.205 F 
HETATM   20  C15 UNK     1      18.380  -6.338  10.919  1.00  0.00     0.043 A 
HETATM   21  C17 UNK     1      18.487  -5.280  10.017  1.00  0.00     0.003 A 
HETATM   22  C16 UNK     1      19.080  -4.081  10.413  1.00  0.00     0.001 A 
HETATM   23  C14 UNK     1      19.567  -3.942  11.713  1.00  0.00     0.012 A 
ENDBRANCH  16  17
ENDBRANCH  14  16
ENDBRANCH   5  12
BRANCH   9  24
HETATM   24  N2  UNK     1      18.812   2.086  20.406  1.00  0.00    -0.116 N 
HETATM   25  O4  UNK     1      19.831   2.474  21.026  1.00  0.00    -0.532 OA
HETATM   26  O5  UNK     1      17.691   1.990  20.961  1.00  0.00    -0.532 OA
ENDBRANCH   9  24
TORSDOF 4
ENDMDL
MODEL 8
REMARK VINA RESULT:      -8.7      3.702      8.561
REMARK  4 active torsions:
REMARK  status: ('A' for Active; 'I' for Inactive)
REMARK    1  A    between atoms: C5_13  and  N1_7 
REMARK       I    between atoms: C8_16  and  N1_7 
REMARK    2  A    between atoms: C10_18  and  N2_8 
REMARK    3  A    between atoms: C3_11  and  C8_16 
REMARK    4  A    between atoms: C5_13  and  C6_14 
ROOT
HETATM    1  O1  UNK     1      20.248   6.914  32.645  1.00  0.00    -0.274 OA
HETATM    2  O3  UNK     1      21.376   5.503  31.246  1.00  0.00    -0.259 OA
HETATM    3  C1  UNK     1      17.816   6.933  32.624  1.00  0.00     0.001 A 
HETATM    4  C2  UNK     1      19.022   7.414  33.126  1.00  0.00     0.089 A 
HETATM    5  C3  UNK     1      19.010   5.436  31.140  1.00  0.00     0.108 A 
HETATM    6  C4  UNK     1      17.842   5.906  31.595  1.00  0.00     0.037 A 
HETATM    7  C7  UNK     1      16.622   7.454  33.128  1.00  0.00     0.050 A 
HETATM    8  C9  UNK     1      19.067   8.396  34.113  1.00  0.00     0.041 A 
HETATM    9  C10 UNK     1      16.651   8.440  34.119  1.00  0.00     0.103 A 
HETATM   10  C11 UNK     1      20.304   5.932  31.659  1.00  0.00     0.304 A 
HETATM   11  C12 UNK     1      17.871   8.910  34.609  1.00  0.00     0.039 A 
ENDROOT
BRANCH   5  12
HETATM   12  C8  UNK     1      18.932   4.402  30.101  1.00  0.00     0.258 C 
HETATM   13  O2  UNK     1      18.654   4.693  28.940  1.00  0.00    -0.267 OA
HETATM   14  N1  UNK     1      19.197   3.133  30.585  1.00  0.00    -0.352 N 
HETATM   15  H5  UNK     1      19.402   2.993  31.570  1.00  0.00     0.163 HD
BRANCH  14  16
HETATM   16  C5  UNK     1      19.179   1.952  29.751  1.00  0.00     0.164 C 
BRANCH  16  17
HETATM   17  C6  UNK     1      19.421   0.702  30.543  1.00  0.00    -0.002 A 
HETATM   18  C13 UNK     1      20.249  -0.292  30.031  1.00  0.00     0.124 A 
HETATM   19  F1  UNK     1      20.834  -0.147  28.834  1.00  0.00    -0.205 F 
HETATM   20  C15 UNK     1      20.472  -1.453  30.770  1.00  0.00     0.043 A 
HETATM   21  C17 UNK     1      19.866  -1.614  32.016  1.00  0.00     0.003 A 
HETATM   22  C16 UNK     1      19.037  -0.613  32.524  1.00  0.00     0.001 A 
HETATM   23  C14 UNK     1      18.814   0.548  31.784  1.00  0.00     0.012 A 
ENDBRANCH  16  17
ENDBRANCH  14  16
ENDBRANCH   5  12
BRANCH   9  24
HETATM   24  N2  UNK     1      15.434   8.967  34.627  1.00  0.00    -0.116 N 
HETATM   25  O4  UNK     1      15.478   9.917  35.446  1.00  0.00    -0.532 OA
HETATM   26  O5  UNK     1      14.348   8.469  34.242  1.00  0.00    -0.532 OA
ENDBRANCH   9  24
TORSDOF 4
ENDMDL
MODEL 9
REMARK VINA RESULT:      -8.5      4.768      9.260
REMARK  4 active torsions:
REMARK  status: ('A' for Active; 'I' for Inactive)
REMARK    1  A    between atoms: C5_13  and  N1_7 
REMARK       I    between atoms: C8_16  and  N1_7 
REMARK    2  A    between atoms: C10_18  and  N2_8 
REMARK    3  A    between atoms: C3_11  and  C8_16 
REMARK    4  A    between atoms: C5_13  and  C6_14 
ROOT
HETATM    1  O1  UNK     1      19.324   7.655  33.024  1.00  0.00    -0.274 OA
HETATM    2  O3  UNK     1      20.388   5.783  32.258  1.00  0.00    -0.259 OA
HETATM    3  C1  UNK     1      16.988   7.521  33.686  1.00  0.00     0.001 A 
HETATM    4  C2  UNK     1      18.153   8.263  33.517  1.00  0.00     0.089 A 
HETATM    5  C3  UNK     1      18.113   5.535  32.874  1.00  0.00     0.108 A 
HETATM    6  C4  UNK     1      16.999   6.107  33.344  1.00  0.00     0.037 A 
HETATM    7  C7  UNK     1      15.848   8.161  34.178  1.00  0.00     0.050 A 
HETATM    8  C9  UNK     1      18.211   9.621  33.825  1.00  0.00     0.041 A 
HETATM    9  C10 UNK     1      15.890   9.523  34.492  1.00  0.00     0.103 A 
HETATM   10  C11 UNK     1      19.365   6.304  32.687  1.00  0.00     0.304 A 
HETATM   11  C12 UNK     1      17.069  10.250  34.315  1.00  0.00     0.039 A 
ENDROOT
BRANCH   5  12
HETATM   12  C8  UNK     1      18.024   4.104  32.559  1.00  0.00     0.258 C 
HETATM   13  O2  UNK     1      17.853   3.722  31.403  1.00  0.00    -0.267 OA
HETATM   14  N1  UNK     1      18.152   3.299  33.676  1.00  0.00    -0.352 N 
HETATM   15  H5  UNK     1      18.275   3.713  34.594  1.00  0.00     0.163 HD
BRANCH  14  16
HETATM   16  C5  UNK     1      18.096   1.855  33.616  1.00  0.00     0.164 C 
BRANCH  16  17
HETATM   17  C6  UNK     1      17.852   1.246  34.965  1.00  0.00    -0.002 A 
HETATM   18  C13 UNK     1      17.465  -0.086  35.063  1.00  0.00     0.124 A 
HETATM   19  F1  UNK     1      17.304  -0.836  33.964  1.00  0.00    -0.205 F 
HETATM   20  C15 UNK     1      17.239  -0.648  36.320  1.00  0.00     0.043 A 
HETATM   21  C17 UNK     1      17.402   0.124  37.469  1.00  0.00     0.003 A 
HETATM   22  C16 UNK     1      17.791   1.460  37.363  1.00  0.00     0.001 A 
HETATM   23  C14 UNK     1      18.016   2.022  36.107  1.00  0.00     0.012 A 
ENDBRANCH  16  17
ENDBRANCH  14  16
ENDBRANCH   5  12
BRANCH   9  24
HETATM   24  N2  UNK     1      14.728  10.168  34.991  1.00  0.00    -0.116 N 
HETATM   25  O4  UNK     1      14.730  10.597  36.170  1.00  0.00    -0.532 OA
HETATM   26  O5  UNK     1      13.731  10.293  34.239  1.00  0.00    -0.532 OA
ENDBRANCH   9  24
TORSDOF 4
ENDMDL
MODEL 10
REMARK VINA RESULT:      -8.4     22.201     25.228
REMARK  4 active torsions:
REMARK  status: ('A' for Active; 'I' for Inactive)
REMARK    1  A    between atoms: C5_13  and  N1_7 
REMARK       I    between atoms: C8_16  and  N1_7 
REMARK    2  A    between atoms: C10_18  and  N2_8 
REMARK    3  A    between atoms: C3_11  and  C8_16 
REMARK    4  A    between atoms: C5_13  and  C6_14 
ROOT
HETATM    1  O1  UNK     1      16.511   8.660  10.414  1.00  0.00    -0.274 OA
HETATM    2  O3  UNK     1      15.271   6.970  11.323  1.00  0.00    -0.259 OA
HETATM    3  C1  UNK     1      15.502  10.135   8.764  1.00  0.00     0.001 A 
HETATM    4  C2  UNK     1      16.599   9.755   9.531  1.00  0.00     0.089 A 
HETATM    5  C3  UNK     1      14.185   8.343   9.725  1.00  0.00     0.108 A 
HETATM    6  C4  UNK     1      14.263   9.383   8.887  1.00  0.00     0.037 A 
HETATM    7  C7  UNK     1      15.631  11.226   7.901  1.00  0.00     0.050 A 
HETATM    8  C9  UNK     1      17.815  10.432   9.461  1.00  0.00     0.041 A 
HETATM    9  C10 UNK     1      16.844  11.916   7.819  1.00  0.00     0.103 A 
HETATM   10  C11 UNK     1      15.338   7.922  10.553  1.00  0.00     0.304 A 
HETATM   11  C12 UNK     1      17.933  11.519   8.598  1.00  0.00     0.039 A 
ENDROOT
BRANCH   5  12
HETATM   12  C8  UNK     1      12.893   7.649   9.779  1.00  0.00     0.258 C 
HETATM   13  O2  UNK     1      11.888   8.219  10.201  1.00  0.00    -0.267 OA
HETATM   14  N1  UNK     1      12.962   6.347   9.319  1.00  0.00    -0.352 N 
HETATM   15  H5  UNK     1      13.847   5.962   9.005  1.00  0.00     0.163 HD
BRANCH  14  16
HETATM   16  C5  UNK     1      11.817   5.465   9.277  1.00  0.00     0.164 C 
BRANCH  16  17
HETATM   17  C6  UNK     1      10.905   5.782   8.128  1.00  0.00    -0.002 A 
HETATM   18  C13 UNK     1       9.543   5.947   8.353  1.00  0.00     0.124 A 
HETATM   19  F1  UNK     1       9.031   5.826   9.585  1.00  0.00    -0.205 F 
HETATM   20  C15 UNK     1       8.699   6.242   7.282  1.00  0.00     0.043 A 
HETATM   21  C17 UNK     1       9.221   6.369   5.996  1.00  0.00     0.003 A 
HETATM   22  C16 UNK     1      10.589   6.202   5.778  1.00  0.00     0.001 A 
HETATM   23  C14 UNK     1      11.434   5.907   6.849  1.00  0.00     0.012 A 
ENDBRANCH  16  17
ENDBRANCH  14  16
ENDBRANCH   5  12
BRANCH   9  24
HETATM   24  N2  UNK     1      16.969  13.024   6.940  1.00  0.00    -0.116 N 
HETATM   25  O4  UNK     1      16.057  13.886   6.916  1.00  0.00    -0.532 OA
HETATM   26  O5  UNK     1      17.986  13.110   6.211  1.00  0.00    -0.532 OA
ENDBRANCH   9  24
TORSDOF 4
ENDMDL
