MODEL 1
REMARK VINA RESULT:      -7.1      0.000      0.000
REMARK  1 active torsions:
REMARK  status: ('A' for Active; 'I' for Inactive)
REMARK    1  A    between atoms: C4_8  and  C9_13 
ROOT
HETATM    1 Cl1  UNK     1      18.775   2.055  20.985  1.00  0.00    -0.084 Cl
HETATM    2  O1  UNK     1      19.252   0.894  15.222  1.00  0.00    -0.274 OA
HETATM    3  O2  UNK     1      19.262  -0.601  13.493  1.00  0.00    -0.259 OA
HETATM    4  C1  UNK     1      18.918   0.096  17.494  1.00  0.00     0.001 A 
HETATM    5  C2  UNK     1      19.134   1.142  16.603  1.00  0.00     0.089 A 
HETATM    6  C3  UNK     1      18.815  -1.259  16.977  1.00  0.00     0.035 A 
HETATM    7  C4  UNK     1      18.928  -1.490  15.663  1.00  0.00     0.086 A 
HETATM    8  C5  UNK     1      18.806   0.384  18.857  1.00  0.00     0.038 A 
HETATM    9  C6  UNK     1      19.241   2.463  17.034  1.00  0.00     0.040 A 
HETATM   10  C7  UNK     1      19.158  -0.393  14.697  1.00  0.00     0.302 A 
HETATM   11  C8  UNK     1      18.912   1.704  19.304  1.00  0.00     0.035 A 
HETATM   12  C10 UNK     1      19.129   2.741  18.394  1.00  0.00     0.026 A 
ENDROOT
BRANCH   7  13
HETATM   13  C9  UNK     1      18.811  -2.890  15.238  1.00  0.00     0.161 C 
HETATM   14  C11 UNK     1      20.002  -3.791  15.437  1.00  0.00     0.097 C 
HETATM   15  O3  UNK     1      17.769  -3.304  14.729  1.00  0.00    -0.293 OA
ENDBRANCH   7  13
TORSDOF 1
ENDMDL
MODEL 2
REMARK VINA RESULT:      -6.9     12.536     14.534
REMARK  1 active torsions:
REMARK  status: ('A' for Active; 'I' for Inactive)
REMARK    1  A    between atoms: C4_8  and  C9_13 
ROOT
HETATM    1 Cl1  UNK     1      20.980  -3.202  31.533  1.00  0.00    -0.084 Cl
HETATM    2  O1  UNK     1      18.958   1.478  28.568  1.00  0.00    -0.274 OA
HETATM    3  O2  UNK     1      18.172   3.624  28.543  1.00  0.00    -0.259 OA
HETATM    4  C1  UNK     1      19.559   0.444  30.685  1.00  0.00     0.001 A 
HETATM    5  C2  UNK     1      19.437   0.375  29.301  1.00  0.00     0.089 A 
HETATM    6  C3  UNK     1      19.182   1.674  31.363  1.00  0.00     0.035 A 
HETATM    7  C4  UNK     1      18.725   2.720  30.662  1.00  0.00     0.086 A 
HETATM    8  C5  UNK     1      20.040  -0.670  31.376  1.00  0.00     0.038 A 
HETATM    9  C6  UNK     1      19.783  -0.773  28.590  1.00  0.00     0.040 A 
HETATM   10  C7  UNK     1      18.589   2.668  29.190  1.00  0.00     0.302 A 
HETATM   11  C8  UNK     1      20.389  -1.830  30.677  1.00  0.00     0.035 A 
HETATM   12  C10 UNK     1      20.260  -1.880  29.287  1.00  0.00     0.026 A 
ENDROOT
BRANCH   7  13
HETATM   13  C9  UNK     1      18.371   3.915  31.436  1.00  0.00     0.161 C 
HETATM   14  C11 UNK     1      19.157   5.177  31.187  1.00  0.00     0.097 C 
HETATM   15  O3  UNK     1      17.463   3.875  32.267  1.00  0.00    -0.293 OA
ENDBRANCH   7  13
TORSDOF 1
ENDMDL
MODEL 3
REMARK VINA RESULT:      -6.6     15.716     17.427
REMARK  1 active torsions:
REMARK  status: ('A' for Active; 'I' for Inactive)
REMARK    1  A    between atoms: C4_8  and  C9_13 
ROOT
HETATM    1 Cl1  UNK     1      15.355   0.663  36.430  1.00  0.00    -0.084 Cl
HETATM    2  O1  UNK     1      20.211  -2.195  34.685  1.00  0.00    -0.274 OA
HETATM    3  O2  UNK     1      21.642  -2.846  33.026  1.00  0.00    -0.259 OA
HETATM    4  C1  UNK     1      18.268  -0.842  34.130  1.00  0.00     0.001 A 
HETATM    5  C2  UNK     1      19.046  -1.505  35.074  1.00  0.00     0.089 A 
HETATM    6  C3  UNK     1      18.676  -0.874  32.734  1.00  0.00     0.035 A 
HETATM    7  C4  UNK     1      19.784  -1.532  32.369  1.00  0.00     0.086 A 
HETATM    8  C5  UNK     1      17.121  -0.168  34.555  1.00  0.00     0.038 A 
HETATM    9  C6  UNK     1      18.712  -1.512  36.427  1.00  0.00     0.040 A 
HETATM   10  C7  UNK     1      20.626  -2.242  33.357  1.00  0.00     0.302 A 
HETATM   11  C8  UNK     1      16.771  -0.168  35.909  1.00  0.00     0.035 A 
HETATM   12  C10 UNK     1      17.566  -0.838  36.842  1.00  0.00     0.026 A 
ENDROOT
BRANCH   7  13
HETATM   13  C9  UNK     1      20.112  -1.506  30.940  1.00  0.00     0.161 C 
HETATM   14  C11 UNK     1      20.575  -0.201  30.344  1.00  0.00     0.097 C 
HETATM   15  O3  UNK     1      20.002  -2.523  30.254  1.00  0.00    -0.293 OA
ENDBRANCH   7  13
TORSDOF 1
ENDMDL
MODEL 4
REMARK VINA RESULT:      -6.6     16.523     18.558
REMARK  1 active torsions:
REMARK  status: ('A' for Active; 'I' for Inactive)
REMARK    1  A    between atoms: C4_8  and  C9_13 
ROOT
HETATM    1 Cl1  UNK     1      20.369  -1.476  29.966  1.00  0.00    -0.084 Cl
HETATM    2  O1  UNK     1      19.249  -1.996  35.733  1.00  0.00    -0.274 OA
HETATM    3  O2  UNK     1      18.038  -1.409  37.581  1.00  0.00    -0.259 OA
HETATM    4  C1  UNK     1      18.733  -0.976  33.587  1.00  0.00     0.001 A 
HETATM    5  C2  UNK     1      19.495  -1.852  34.354  1.00  0.00     0.089 A 
HETATM    6  C3  UNK     1      17.678  -0.211  34.233  1.00  0.00     0.035 A 
HETATM    7  C4  UNK     1      17.448  -0.351  35.544  1.00  0.00     0.086 A 
HETATM    8  C5  UNK     1      19.007  -0.863  32.223  1.00  0.00     0.038 A 
HETATM    9  C6  UNK     1      20.519  -2.615  33.797  1.00  0.00     0.040 A 
HETATM   10  C7  UNK     1      18.246  -1.277  36.379  1.00  0.00     0.302 A 
HETATM   11  C8  UNK     1      20.033  -1.620  31.649  1.00  0.00     0.035 A 
HETATM   12  C10 UNK     1      20.787  -2.495  32.436  1.00  0.00     0.026 A 
ENDROOT
BRANCH   7  13
HETATM   13  C9  UNK     1      16.363   0.463  36.103  1.00  0.00     0.161 C 
HETATM   14  C11 UNK     1      16.711   1.466  37.173  1.00  0.00     0.097 C 
HETATM   15  O3  UNK     1      15.206   0.318  35.709  1.00  0.00    -0.293 OA
ENDBRANCH   7  13
TORSDOF 1
ENDMDL
MODEL 5
REMARK VINA RESULT:      -6.5     13.249     15.264
REMARK  1 active torsions:
REMARK  status: ('A' for Active; 'I' for Inactive)
REMARK    1  A    between atoms: C4_8  and  C9_13 
ROOT
HETATM    1 Cl1  UNK     1      18.110   7.623  32.292  1.00  0.00    -0.084 Cl
HETATM    2  O1  UNK     1      18.449   1.757  32.803  1.00  0.00    -0.274 OA
HETATM    3  O2  UNK     1      18.785  -0.301  31.866  1.00  0.00    -0.259 OA
HETATM    4  C1  UNK     1      18.571   3.744  31.408  1.00  0.00     0.001 A 
HETATM    5  C2  UNK     1      18.373   3.155  32.652  1.00  0.00     0.089 A 
HETATM    6  C3  UNK     1      18.858   2.893  30.264  1.00  0.00     0.035 A 
HETATM    7  C4  UNK     1      18.928   1.564  30.412  1.00  0.00     0.086 A 
HETATM    8  C5  UNK     1      18.490   5.134  31.300  1.00  0.00     0.038 A 
HETATM    9  C6  UNK     1      18.097   3.914  33.788  1.00  0.00     0.040 A 
HETATM   10  C7  UNK     1      18.721   0.917  31.726  1.00  0.00     0.302 A 
HETATM   11  C8  UNK     1      18.212   5.909  32.430  1.00  0.00     0.035 A 
HETATM   12  C10 UNK     1      18.016   5.299  33.671  1.00  0.00     0.026 A 
ENDROOT
BRANCH   7  13
HETATM   13  C9  UNK     1      19.221   0.791  29.200  1.00  0.00     0.161 C 
HETATM   14  C11 UNK     1      20.383  -0.168  29.237  1.00  0.00     0.097 C 
HETATM   15  O3  UNK     1      18.538   0.935  28.186  1.00  0.00    -0.293 OA
ENDBRANCH   7  13
TORSDOF 1
ENDMDL
MODEL 6
REMARK VINA RESULT:      -6.5     15.367     17.737
REMARK  1 active torsions:
REMARK  status: ('A' for Active; 'I' for Inactive)
REMARK    1  A    between atoms: C4_8  and  C9_13 
ROOT
HETATM    1 Cl1  UNK     1      13.768   9.883  33.176  1.00  0.00    -0.084 Cl
HETATM    2  O1  UNK     1      19.169   7.567  33.677  1.00  0.00    -0.274 OA
HETATM    3  O2  UNK     1      20.871   6.298  32.830  1.00  0.00    -0.259 OA
HETATM    4  C1  UNK     1      17.128   7.851  32.387  1.00  0.00     0.001 A 
HETATM    5  C2  UNK     1      17.877   8.107  33.531  1.00  0.00     0.089 A 
HETATM    6  C3  UNK     1      17.702   7.017  31.343  1.00  0.00     0.035 A 
HETATM    7  C4  UNK     1      18.931   6.505  31.487  1.00  0.00     0.086 A 
HETATM    8  C5  UNK     1      15.851   8.406  32.280  1.00  0.00     0.038 A 
HETATM    9  C6  UNK     1      17.386   8.900  34.567  1.00  0.00     0.040 A 
HETATM   10  C7  UNK     1      19.744   6.765  32.695  1.00  0.00     0.302 A 
HETATM   11  C8  UNK     1      15.344   9.202  33.311  1.00  0.00     0.035 A 
HETATM   12  C10 UNK     1      16.111   9.448  34.453  1.00  0.00     0.026 A 
ENDROOT
BRANCH   7  13
HETATM   13  C9  UNK     1      19.421   5.676  30.380  1.00  0.00     0.161 C 
HETATM   14  C11 UNK     1      18.990   4.233  30.333  1.00  0.00     0.097 C 
HETATM   15  O3  UNK     1      20.169   6.152  29.526  1.00  0.00    -0.293 OA
ENDBRANCH   7  13
TORSDOF 1
ENDMDL
MODEL 7
REMARK VINA RESULT:      -6.5     13.905     15.765
REMARK  1 active torsions:
REMARK  status: ('A' for Active; 'I' for Inactive)
REMARK    1  A    between atoms: C4_8  and  C9_13 
ROOT
HETATM    1 Cl1  UNK     1      18.296  -1.785  36.413  1.00  0.00    -0.084 Cl
HETATM    2  O1  UNK     1      18.339   2.287  32.147  1.00  0.00    -0.274 OA
HETATM    3  O2  UNK     1      18.735   2.884  29.977  1.00  0.00    -0.259 OA
HETATM    4  C1  UNK     1      18.742  -0.004  32.854  1.00  0.00     0.001 A 
HETATM    5  C2  UNK     1      18.339   1.295  33.146  1.00  0.00     0.089 A 
HETATM    6  C3  UNK     1      19.164  -0.321  31.499  1.00  0.00     0.035 A 
HETATM    7  C4  UNK     1      19.163   0.626  30.552  1.00  0.00     0.086 A 
HETATM    8  C5  UNK     1      18.726  -0.960  33.872  1.00  0.00     0.038 A 
HETATM    9  C6  UNK     1      17.922   1.664  34.424  1.00  0.00     0.040 A 
HETATM   10  C7  UNK     1      18.738   2.013  30.841  1.00  0.00     0.302 A 
HETATM   11  C8  UNK     1      18.312  -0.604  35.160  1.00  0.00     0.035 A 
HETATM   12  C10 UNK     1      17.910   0.705  35.434  1.00  0.00     0.026 A 
ENDROOT
BRANCH   7  13
HETATM   13  C9  UNK     1      19.605   0.208  29.217  1.00  0.00     0.161 C 
HETATM   14  C11 UNK     1      20.862  -0.617  29.115  1.00  0.00     0.097 C 
HETATM   15  O3  UNK     1      18.966   0.535  28.216  1.00  0.00    -0.293 OA
ENDBRANCH   7  13
TORSDOF 1
ENDMDL
MODEL 8
REMARK VINA RESULT:      -6.5     11.122     12.269
REMARK  1 active torsions:
REMARK  status: ('A' for Active; 'I' for Inactive)
REMARK    1  A    between atoms: C4_8  and  C9_13 
ROOT
HETATM    1 Cl1  UNK     1      17.130   9.902  10.159  1.00  0.00    -0.084 Cl
HETATM    2  O1  UNK     1      14.028   5.022   8.999  1.00  0.00    -0.274 OA
HETATM    3  O2  UNK     1      12.140   4.014   8.196  1.00  0.00    -0.259 OA
HETATM    4  C1  UNK     1      14.203   7.446   8.958  1.00  0.00     0.001 A 
HETATM    5  C2  UNK     1      14.746   6.203   9.266  1.00  0.00     0.089 A 
HETATM    6  C3  UNK     1      12.881   7.507   8.356  1.00  0.00     0.035 A 
HETATM    7  C4  UNK     1      12.201   6.381   8.105  1.00  0.00     0.086 A 
HETATM    8  C5  UNK     1      14.948   8.595   9.236  1.00  0.00     0.038 A 
HETATM    9  C6  UNK     1      16.009   6.076   9.841  1.00  0.00     0.040 A 
HETATM   10  C7  UNK     1      12.760   5.048   8.424  1.00  0.00     0.302 A 
HETATM   11  C8  UNK     1      16.216   8.483   9.816  1.00  0.00     0.035 A 
HETATM   12  C10 UNK     1      16.745   7.226  10.117  1.00  0.00     0.026 A 
ENDROOT
BRANCH   7  13
HETATM   13  C9  UNK     1      10.875   6.545   7.498  1.00  0.00     0.161 C 
HETATM   14  C11 UNK     1      10.773   6.474   5.996  1.00  0.00     0.097 C 
HETATM   15  O3  UNK     1       9.885   6.742   8.202  1.00  0.00    -0.293 OA
ENDBRANCH   7  13
TORSDOF 1
ENDMDL
MODEL 9
REMARK VINA RESULT:      -6.4     11.377     12.601
REMARK  1 active torsions:
REMARK  status: ('A' for Active; 'I' for Inactive)
REMARK    1  A    between atoms: C4_8  and  C9_13 
ROOT
HETATM    1 Cl1  UNK     1       9.590   5.813   5.725  1.00  0.00    -0.084 Cl
HETATM    2  O1  UNK     1      12.864   7.569  10.305  1.00  0.00    -0.274 OA
HETATM    3  O2  UNK     1      14.841   7.555  11.453  1.00  0.00    -0.259 OA
HETATM    4  C1  UNK     1      12.661   6.284   8.251  1.00  0.00     0.001 A 
HETATM    5  C2  UNK     1      12.105   7.134   9.202  1.00  0.00     0.089 A 
HETATM    6  C3  UNK     1      14.040   5.851   8.415  1.00  0.00     0.035 A 
HETATM    7  C4  UNK     1      14.758   6.267   9.466  1.00  0.00     0.086 A 
HETATM    8  C5  UNK     1      11.876   5.876   7.170  1.00  0.00     0.038 A 
HETATM    9  C6  UNK     1      10.791   7.587   9.102  1.00  0.00     0.040 A 
HETATM   10  C7  UNK     1      14.186   7.171  10.489  1.00  0.00     0.302 A 
HETATM   11  C8  UNK     1      10.555   6.320   7.058  1.00  0.00     0.035 A 
HETATM   12  C10 UNK     1      10.014   7.174   8.022  1.00  0.00     0.026 A 
ENDROOT
BRANCH   7  13
HETATM   13  C9  UNK     1      16.138   5.776   9.544  1.00  0.00     0.161 C 
HETATM   14  C11 UNK     1      17.241   6.791   9.702  1.00  0.00     0.097 C 
HETATM   15  O3  UNK     1      16.378   4.570   9.473  1.00  0.00    -0.293 OA
ENDBRANCH   7  13
TORSDOF 1
ENDMDL
MODEL 10
REMARK VINA RESULT:      -6.4     24.354     25.086
REMARK  1 active torsions:
REMARK  status: ('A' for Active; 'I' for Inactive)
REMARK    1  A    between atoms: C4_8  and  C9_13 
ROOT
HETATM    1 Cl1  UNK     1      33.808  -7.101  37.944  1.00  0.00    -0.084 Cl
HETATM    2  O1  UNK     1      28.402  -4.836  38.593  1.00  0.00    -0.274 OA
HETATM    3  O2  UNK     1      26.144  -5.119  38.806  1.00  0.00    -0.259 OA
HETATM    4  C1  UNK     1      29.837  -6.783  38.357  1.00  0.00     0.001 A 
HETATM    5  C2  UNK     1      29.681  -5.404  38.437  1.00  0.00     0.089 A 
HETATM    6  C3  UNK     1      28.658  -7.631  38.437  1.00  0.00     0.035 A 
HETATM    7  C4  UNK     1      27.444  -7.087  38.584  1.00  0.00     0.086 A 
HETATM    8  C5  UNK     1      31.123  -7.308  38.205  1.00  0.00     0.038 A 
HETATM    9  C6  UNK     1      30.769  -4.536  38.370  1.00  0.00     0.040 A 
HETATM   10  C7  UNK     1      27.255  -5.622  38.671  1.00  0.00     0.302 A 
HETATM   11  C8  UNK     1      32.225  -6.451  38.134  1.00  0.00     0.035 A 
HETATM   12  C10 UNK     1      32.048  -5.068  38.216  1.00  0.00     0.026 A 
ENDROOT
BRANCH   7  13
HETATM   13  C9  UNK     1      26.317  -8.024  38.653  1.00  0.00     0.161 C 
HETATM   14  C11 UNK     1      26.458  -9.234  39.541  1.00  0.00     0.097 C 
HETATM   15  O3  UNK     1      25.295  -7.823  37.996  1.00  0.00    -0.293 OA
ENDBRANCH   7  13
TORSDOF 1
ENDMDL
