MODEL 1
REMARK VINA RESULT:      -8.3      0.000      0.000
REMARK  6 active torsions:
REMARK  status: ('A' for Active; 'I' for Inactive)
REMARK    1  A    between atoms: C12_20  and  O2_2 
REMARK    2  A    between atoms: C13_21  and  O3_3 
REMARK    3  A    between atoms: C19_27  and  O3_3 
REMARK    4  A    between atoms: C12_20  and  C2_10 
REMARK    5  A    between atoms: C11_19  and  C6_14 
REMARK    6  A    between atoms: C13_21  and  C8_16 
ROOT
HETATM    1  O1  UNK     1      29.302  -7.956  36.618  1.00  0.00    -0.292 OA
HETATM    2  N1  UNK     1      33.635  -6.045  36.641  1.00  0.00    -0.362 N 
HETATM    3  C1  UNK     1      30.538  -5.211  38.640  1.00  0.00     0.008 C 
HETATM    4  C2  UNK     1      29.845  -6.574  38.509  1.00  0.00     0.164 C 
HETATM    5  C3  UNK     1      32.044  -5.393  38.394  1.00  0.00     0.063 C 
HETATM    6  C4  UNK     1      31.463  -6.981  36.529  1.00  0.00     0.025 C 
HETATM    7  C5  UNK     1      32.355  -6.177  37.144  1.00  0.00     0.020 C 
HETATM    8  C6  UNK     1      31.812  -7.699  35.228  1.00  0.00     0.104 C 
HETATM    9  C7  UNK     1      30.122  -7.213  37.157  1.00  0.00     0.172 C 
HETATM   10  C8  UNK     1      33.306  -7.616  34.902  1.00  0.00     0.052 C 
HETATM   11  C9  UNK     1      29.952  -4.136  37.712  1.00  0.00     0.011 C 
HETATM   12  C10 UNK     1      34.133  -6.788  35.583  1.00  0.00     0.018 C 
HETATM   13  C14 UNK     1      35.597  -6.592  35.300  1.00  0.00     0.069 C 
HETATM   14  H9  UNK     1      34.279  -5.437  37.135  1.00  0.00     0.165 HD
ENDROOT
BRANCH   8  15
HETATM   15  C11 UNK     1      30.999  -7.148  34.083  1.00  0.00     0.029 A 
HETATM   16  C15 UNK     1      30.092  -8.067  33.350  1.00  0.00     0.194 A 
HETATM   17  O7  UNK     1      29.985  -9.250  33.647  1.00  0.00    -0.287 OA
HETATM   18  C17 UNK     1      29.322  -7.478  32.239  1.00  0.00     0.048 A 
HETATM   19  C18 UNK     1      29.484  -6.124  31.945  1.00  0.00     0.089 A 
HETATM   20  C20 UNK     1      28.441  -8.261  31.488  1.00  0.00     0.018 A 
HETATM   21  O4  UNK     1      30.334  -5.309  32.650  1.00  0.00    -0.321 OA
HETATM   22  C22 UNK     1      28.765  -5.545  30.899  1.00  0.00     0.038 A 
HETATM   23  C16 UNK     1      31.045  -5.871  33.681  1.00  0.00     0.154 A 
HETATM   24  C26 UNK     1      27.885  -6.325  30.148  1.00  0.00     0.003 A 
HETATM   25  C23 UNK     1      27.724  -7.679  30.442  1.00  0.00     0.001 A 
ENDBRANCH   8  15
BRANCH  10  26
HETATM   26  C13 UNK     1      33.808  -8.522  33.855  1.00  0.00     0.292 C 
HETATM   27  O6  UNK     1      33.968  -9.715  34.024  1.00  0.00    -0.259 OA
BRANCH  26  28
HETATM   28  O3  UNK     1      34.037  -7.793  32.735  1.00  0.00    -0.313 OA
BRANCH  28  29
HETATM   29  C19 UNK     1      33.695  -8.445  31.508  1.00  0.00     0.124 C 
HETATM   30  C24 UNK     1      32.720  -7.572  30.732  1.00  0.00     0.040 C 
HETATM   31  C25 UNK     1      34.964  -8.721  30.716  1.00  0.00     0.040 C 
ENDBRANCH  28  29
ENDBRANCH  26  28
ENDBRANCH  10  26
BRANCH   4  32
HETATM   32  C12 UNK     1      28.388  -6.463  38.837  1.00  0.00     0.270 C 
HETATM   33  O5  UNK     1      27.596  -5.766  38.216  1.00  0.00    -0.264 OA
BRANCH  32  34
HETATM   34  O2  UNK     1      28.102  -7.247  39.915  1.00  0.00    -0.326 OA
HETATM   35  C21 UNK     1      27.536  -8.526  39.612  1.00  0.00     0.213 C 
ENDBRANCH  32  34
ENDBRANCH   4  32
TORSDOF 6
ENDMDL
MODEL 2
REMARK VINA RESULT:      -8.3      2.172      2.971
REMARK  6 active torsions:
REMARK  status: ('A' for Active; 'I' for Inactive)
REMARK    1  A    between atoms: C12_20  and  O2_2 
REMARK    2  A    between atoms: C13_21  and  O3_3 
REMARK    3  A    between atoms: C19_27  and  O3_3 
REMARK    4  A    between atoms: C12_20  and  C2_10 
REMARK    5  A    between atoms: C11_19  and  C6_14 
REMARK    6  A    between atoms: C13_21  and  C8_16 
ROOT
HETATM    1  O1  UNK     1      28.981  -9.453  36.611  1.00  0.00    -0.292 OA
HETATM    2  N1  UNK     1      30.586  -5.118  37.640  1.00  0.00    -0.362 N 
HETATM    3  C1  UNK     1      27.773  -7.149  39.137  1.00  0.00     0.008 C 
HETATM    4  C2  UNK     1      28.286  -8.535  38.720  1.00  0.00     0.164 C 
HETATM    5  C3  UNK     1      28.952  -6.164  39.144  1.00  0.00     0.063 C 
HETATM    6  C4  UNK     1      29.769  -7.255  37.028  1.00  0.00     0.025 C 
HETATM    7  C5  UNK     1      29.780  -6.213  37.885  1.00  0.00     0.020 C 
HETATM    8  C6  UNK     1      30.579  -7.222  35.734  1.00  0.00     0.104 C 
HETATM    9  C7  UNK     1      28.990  -8.487  37.374  1.00  0.00     0.172 C 
HETATM   10  C8  UNK     1      31.561  -6.048  35.694  1.00  0.00     0.052 C 
HETATM   11  C9  UNK     1      26.626  -6.632  38.255  1.00  0.00     0.011 C 
HETATM   12  C10 UNK     1      31.507  -5.049  36.606  1.00  0.00     0.018 C 
HETATM   13  C14 UNK     1      32.386  -3.828  36.616  1.00  0.00     0.069 C 
HETATM   14  H9  UNK     1      30.572  -4.358  38.311  1.00  0.00     0.165 HD
ENDROOT
BRANCH   8  15
HETATM   15  C11 UNK     1      29.662  -7.173  34.537  1.00  0.00     0.029 A 
HETATM   16  C15 UNK     1      29.816  -8.209  33.483  1.00  0.00     0.194 A 
HETATM   17  O7  UNK     1      30.659  -9.094  33.559  1.00  0.00    -0.287 OA
HETATM   18  C17 UNK     1      28.897  -8.115  32.335  1.00  0.00     0.048 A 
HETATM   19  C18 UNK     1      27.956  -7.085  32.301  1.00  0.00     0.089 A 
HETATM   20  C20 UNK     1      28.963  -9.042  31.291  1.00  0.00     0.018 A 
HETATM   21  O4  UNK     1      27.847  -6.149  33.298  1.00  0.00    -0.321 OA
HETATM   22  C22 UNK     1      27.076  -6.977  31.224  1.00  0.00     0.038 A 
HETATM   23  C16 UNK     1      28.710  -6.248  34.361  1.00  0.00     0.154 A 
HETATM   24  C26 UNK     1      27.140  -7.902  30.181  1.00  0.00     0.003 A 
HETATM   25  C23 UNK     1      28.081  -8.931  30.215  1.00  0.00     0.001 A 
ENDBRANCH   8  15
BRANCH  10  26
HETATM   26  C13 UNK     1      32.601  -6.089  34.652  1.00  0.00     0.292 C 
HETATM   27  O6  UNK     1      32.463  -5.592  33.551  1.00  0.00    -0.259 OA
BRANCH  26  28
HETATM   28  O3  UNK     1      33.674  -6.752  35.146  1.00  0.00    -0.313 OA
BRANCH  28  29
HETATM   29  C19 UNK     1      34.921  -6.061  35.027  1.00  0.00     0.124 C 
HETATM   30  C24 UNK     1      35.424  -5.692  36.415  1.00  0.00     0.040 C 
HETATM   31  C25 UNK     1      35.913  -6.940  34.280  1.00  0.00     0.040 C 
ENDBRANCH  28  29
ENDBRANCH  26  28
ENDBRANCH  10  26
BRANCH   4  32
HETATM   32  C12 UNK     1      27.188  -9.551  38.793  1.00  0.00     0.270 C 
HETATM   33  O5  UNK     1      26.454  -9.836  37.856  1.00  0.00    -0.264 OA
BRANCH  32  34
HETATM   34  O2  UNK     1      27.147 -10.088  40.046  1.00  0.00    -0.326 OA
HETATM   35  C21 UNK     1      28.411 -10.489  40.584  1.00  0.00     0.213 C 
ENDBRANCH  32  34
ENDBRANCH   4  32
TORSDOF 6
ENDMDL
MODEL 3
REMARK VINA RESULT:      -8.1      1.503      1.842
REMARK  6 active torsions:
REMARK  status: ('A' for Active; 'I' for Inactive)
REMARK    1  A    between atoms: C12_20  and  O2_2 
REMARK    2  A    between atoms: C13_21  and  O3_3 
REMARK    3  A    between atoms: C19_27  and  O3_3 
REMARK    4  A    between atoms: C12_20  and  C2_10 
REMARK    5  A    between atoms: C11_19  and  C6_14 
REMARK    6  A    between atoms: C13_21  and  C8_16 
ROOT
HETATM    1  O1  UNK     1      28.249  -9.257  36.621  1.00  0.00    -0.292 OA
HETATM    2  N1  UNK     1      31.587  -6.001  37.443  1.00  0.00    -0.362 N 
HETATM    3  C1  UNK     1      28.210  -6.559  39.044  1.00  0.00     0.008 C 
HETATM    4  C2  UNK     1      28.066  -8.046  38.689  1.00  0.00     0.164 C 
HETATM    5  C3  UNK     1      29.698  -6.179  39.001  1.00  0.00     0.063 C 
HETATM    6  C4  UNK     1      29.916  -7.598  36.933  1.00  0.00     0.025 C 
HETATM    7  C5  UNK     1      30.395  -6.630  37.742  1.00  0.00     0.020 C 
HETATM    8  C6  UNK     1      30.630  -7.969  35.636  1.00  0.00     0.104 C 
HETATM    9  C7  UNK     1      28.690  -8.360  37.338  1.00  0.00     0.172 C 
HETATM   10  C8  UNK     1      32.021  -7.336  35.538  1.00  0.00     0.052 C 
HETATM   11  C9  UNK     1      27.377  -5.633  38.144  1.00  0.00     0.011 C 
HETATM   12  C10 UNK     1      32.424  -6.376  36.403  1.00  0.00     0.018 C 
HETATM   13  C14 UNK     1      33.742  -5.654  36.354  1.00  0.00     0.069 C 
HETATM   14  H9  UNK     1      31.918  -5.283  38.079  1.00  0.00     0.165 HD
ENDROOT
BRANCH   8  15
HETATM   15  C11 UNK     1      29.796  -7.577  34.442  1.00  0.00     0.029 A 
HETATM   16  C15 UNK     1      29.489  -8.612  33.421  1.00  0.00     0.194 A 
HETATM   17  O7  UNK     1      29.889  -9.764  33.521  1.00  0.00    -0.287 OA
HETATM   18  C17 UNK     1      28.671  -8.177  32.274  1.00  0.00     0.048 A 
HETATM   19  C18 UNK     1      28.242  -6.851  32.211  1.00  0.00     0.089 A 
HETATM   20  C20 UNK     1      28.329  -9.076  31.260  1.00  0.00     0.018 A 
HETATM   21  O4  UNK     1      28.548  -5.926  33.178  1.00  0.00    -0.321 OA
HETATM   22  C22 UNK     1      27.468  -6.417  31.135  1.00  0.00     0.038 A 
HETATM   23  C16 UNK     1      29.311  -6.345  34.240  1.00  0.00     0.154 A 
HETATM   24  C26 UNK     1      27.125  -7.313  30.122  1.00  0.00     0.003 A 
HETATM   25  C23 UNK     1      27.554  -8.639  30.185  1.00  0.00     0.001 A 
ENDBRANCH   8  15
BRANCH  10  26
HETATM   26  C13 UNK     1      32.917  -7.862  34.494  1.00  0.00     0.292 C 
HETATM   27  O6  UNK     1      33.559  -8.887  34.620  1.00  0.00    -0.259 OA
BRANCH  26  28
HETATM   28  O3  UNK     1      32.877  -7.021  33.433  1.00  0.00    -0.313 OA
BRANCH  28  29
HETATM   29  C19 UNK     1      33.053  -7.645  32.158  1.00  0.00     0.124 C 
HETATM   30  C24 UNK     1      31.970  -7.157  31.207  1.00  0.00     0.040 C 
HETATM   31  C25 UNK     1      34.448  -7.335  31.636  1.00  0.00     0.040 C 
ENDBRANCH  28  29
ENDBRANCH  26  28
ENDBRANCH  10  26
BRANCH   4  32
HETATM   32  C12 UNK     1      26.640  -8.485  38.813  1.00  0.00     0.270 C 
HETATM   33  O5  UNK     1      25.752  -8.160  38.036  1.00  0.00    -0.264 OA
BRANCH  32  34
HETATM   34  O2  UNK     1      26.504  -9.287  39.907  1.00  0.00    -0.326 OA
HETATM   35  C21 UNK     1      27.594 -10.182  40.152  1.00  0.00     0.213 C 
ENDBRANCH  32  34
ENDBRANCH   4  32
TORSDOF 6
ENDMDL
MODEL 4
REMARK VINA RESULT:      -8.0      1.707      2.246
REMARK  6 active torsions:
REMARK  status: ('A' for Active; 'I' for Inactive)
REMARK    1  A    between atoms: C12_20  and  O2_2 
REMARK    2  A    between atoms: C13_21  and  O3_3 
REMARK    3  A    between atoms: C19_27  and  O3_3 
REMARK    4  A    between atoms: C12_20  and  C2_10 
REMARK    5  A    between atoms: C11_19  and  C6_14 
REMARK    6  A    between atoms: C13_21  and  C8_16 
ROOT
HETATM    1  O1  UNK     1      30.689 -10.168  35.721  1.00  0.00    -0.292 OA
HETATM    2  N1  UNK     1      34.354  -7.174  35.557  1.00  0.00    -0.362 N 
HETATM    3  C1  UNK     1      31.964  -8.029  38.357  1.00  0.00     0.008 C 
HETATM    4  C2  UNK     1      31.537  -9.409  37.838  1.00  0.00     0.164 C 
HETATM    5  C3  UNK     1      33.317  -7.658  37.729  1.00  0.00     0.063 C 
HETATM    6  C4  UNK     1      32.480  -8.621  35.559  1.00  0.00     0.025 C 
HETATM    7  C5  UNK     1      33.353  -7.844  36.233  1.00  0.00     0.020 C 
HETATM    8  C6  UNK     1      32.523  -8.720  34.036  1.00  0.00     0.104 C 
HETATM    9  C7  UNK     1      31.482  -9.441  36.319  1.00  0.00     0.172 C 
HETATM   10  C8  UNK     1      33.789  -8.089  33.449  1.00  0.00     0.052 C 
HETATM   11  C9  UNK     1      30.918  -6.932  38.105  1.00  0.00     0.011 C 
HETATM   12  C10 UNK     1      34.617  -7.332  34.205  1.00  0.00     0.018 C 
HETATM   13  C14 UNK     1      35.849  -6.624  33.709  1.00  0.00     0.069 C 
HETATM   14  H9  UNK     1      34.995  -6.605  36.100  1.00  0.00     0.165 HD
ENDROOT
BRANCH   8  15
HETATM   15  C11 UNK     1      31.296  -8.085  33.429  1.00  0.00     0.029 A 
HETATM   16  C15 UNK     1      30.490  -8.877  32.466  1.00  0.00     0.194 A 
HETATM   17  O7  UNK     1      30.790 -10.022  32.154  1.00  0.00    -0.287 OA
HETATM   18  C17 UNK     1      29.304  -8.209  31.901  1.00  0.00     0.048 A 
HETATM   19  C18 UNK     1      29.010  -6.903  32.293  1.00  0.00     0.089 A 
HETATM   20  C20 UNK     1      28.481  -8.871  30.986  1.00  0.00     0.018 A 
HETATM   21  O4  UNK     1      29.783  -6.206  33.188  1.00  0.00    -0.321 OA
HETATM   22  C22 UNK     1      27.893  -6.251  31.771  1.00  0.00     0.038 A 
HETATM   23  C16 UNK     1      30.885  -6.840  33.705  1.00  0.00     0.154 A 
HETATM   24  C26 UNK     1      27.070  -6.910  30.857  1.00  0.00     0.003 A 
HETATM   25  C23 UNK     1      27.363  -8.216  30.466  1.00  0.00     0.001 A 
ENDBRANCH   8  15
BRANCH  10  26
HETATM   26  C13 UNK     1      34.089  -8.395  32.040  1.00  0.00     0.292 C 
HETATM   27  O6  UNK     1      34.608  -9.433  31.678  1.00  0.00    -0.259 OA
BRANCH  26  28
HETATM   28  O3  UNK     1      33.692  -7.345  31.282  1.00  0.00    -0.313 OA
BRANCH  28  29
HETATM   29  C19 UNK     1      33.347  -7.669  29.931  1.00  0.00     0.124 C 
HETATM   30  C24 UNK     1      32.036  -6.988  29.571  1.00  0.00     0.040 C 
HETATM   31  C25 UNK     1      34.479  -7.244  29.009  1.00  0.00     0.040 C 
ENDBRANCH  28  29
ENDBRANCH  26  28
ENDBRANCH  10  26
BRANCH   4  32
HETATM   32  C12 UNK     1      30.269  -9.855  38.499  1.00  0.00     0.270 C 
HETATM   33  O5  UNK     1      30.221 -10.671  39.410  1.00  0.00    -0.264 OA
BRANCH  32  34
HETATM   34  O2  UNK     1      29.209  -9.217  37.928  1.00  0.00    -0.326 OA
HETATM   35  C21 UNK     1      27.949  -9.414  38.580  1.00  0.00     0.213 C 
ENDBRANCH  32  34
ENDBRANCH   4  32
TORSDOF 6
ENDMDL
MODEL 5
REMARK VINA RESULT:      -7.8      1.379      1.829
REMARK  6 active torsions:
REMARK  status: ('A' for Active; 'I' for Inactive)
REMARK    1  A    between atoms: C12_20  and  O2_2 
REMARK    2  A    between atoms: C13_21  and  O3_3 
REMARK    3  A    between atoms: C19_27  and  O3_3 
REMARK    4  A    between atoms: C12_20  and  C2_10 
REMARK    5  A    between atoms: C11_19  and  C6_14 
REMARK    6  A    between atoms: C13_21  and  C8_16 
ROOT
HETATM    1  O1  UNK     1      29.619  -9.242  36.197  1.00  0.00    -0.292 OA
HETATM    2  N1  UNK     1      32.667  -5.634  36.538  1.00  0.00    -0.362 N 
HETATM    3  C1  UNK     1      29.711  -6.603  38.683  1.00  0.00     0.008 C 
HETATM    4  C2  UNK     1      29.673  -8.091  38.307  1.00  0.00     0.164 C 
HETATM    5  C3  UNK     1      31.116  -6.053  38.395  1.00  0.00     0.063 C 
HETATM    6  C4  UNK     1      31.120  -7.406  36.272  1.00  0.00     0.025 C 
HETATM    7  C5  UNK     1      31.624  -6.401  37.018  1.00  0.00     0.020 C 
HETATM    8  C6  UNK     1      31.629  -7.672  34.857  1.00  0.00     0.104 C 
HETATM    9  C7  UNK     1      30.078  -8.310  36.858  1.00  0.00     0.172 C 
HETATM   10  C8  UNK     1      32.900  -6.881  34.540  1.00  0.00     0.052 C 
HETATM   11  C9  UNK     1      28.634  -5.767  37.976  1.00  0.00     0.011 C 
HETATM   12  C10 UNK     1      33.342  -5.895  35.355  1.00  0.00     0.018 C 
HETATM   13  C14 UNK     1      34.542  -5.024  35.101  1.00  0.00     0.069 C 
HETATM   14  H9  UNK     1      33.023  -4.892  37.131  1.00  0.00     0.165 HD
ENDROOT
BRANCH   8  15
HETATM   15  C11 UNK     1      30.557  -7.362  33.842  1.00  0.00     0.029 A 
HETATM   16  C15 UNK     1      30.111  -8.445  32.928  1.00  0.00     0.194 A 
HETATM   17  O7  UNK     1      30.585  -9.573  32.976  1.00  0.00    -0.287 OA
HETATM   18  C17 UNK     1      29.064  -8.089  31.954  1.00  0.00     0.048 A 
HETATM   19  C18 UNK     1      28.560  -6.788  31.945  1.00  0.00     0.089 A 
HETATM   20  C20 UNK     1      28.577  -9.038  31.051  1.00  0.00     0.018 A 
HETATM   21  O4  UNK     1      29.001  -5.816  32.809  1.00  0.00    -0.321 OA
HETATM   22  C22 UNK     1      27.569  -6.428  31.032  1.00  0.00     0.038 A 
HETATM   23  C16 UNK     1      29.977  -6.162  33.710  1.00  0.00     0.154 A 
HETATM   24  C26 UNK     1      27.082  -7.374  30.129  1.00  0.00     0.003 A 
HETATM   25  C23 UNK     1      27.585  -8.675  30.139  1.00  0.00     0.001 A 
ENDBRANCH   8  15
BRANCH  10  26
HETATM   26  C13 UNK     1      33.650  -7.285  33.338  1.00  0.00     0.292 C 
HETATM   27  O6  UNK     1      33.384  -6.888  32.220  1.00  0.00    -0.259 OA
BRANCH  26  28
HETATM   28  O3  UNK     1      34.635  -8.135  33.715  1.00  0.00    -0.313 OA
BRANCH  28  29
HETATM   29  C19 UNK     1      35.922  -7.859  33.154  1.00  0.00     0.124 C 
HETATM   30  C24 UNK     1      36.938  -7.718  34.277  1.00  0.00     0.040 C 
HETATM   31  C25 UNK     1      36.297  -8.971  32.186  1.00  0.00     0.040 C 
ENDBRANCH  28  29
ENDBRANCH  26  28
ENDBRANCH  10  26
BRANCH   4  32
HETATM   32  C12 UNK     1      28.349  -8.695  38.663  1.00  0.00     0.270 C 
HETATM   33  O5  UNK     1      27.269  -8.175  38.414  1.00  0.00    -0.264 OA
BRANCH  32  34
HETATM   34  O2  UNK     1      28.547  -9.887  39.294  1.00  0.00    -0.326 OA
HETATM   35  C21 UNK     1      27.758 -10.099  40.470  1.00  0.00     0.213 C 
ENDBRANCH  32  34
ENDBRANCH   4  32
TORSDOF 6
ENDMDL
MODEL 6
REMARK VINA RESULT:      -7.8      1.863      2.456
REMARK  6 active torsions:
REMARK  status: ('A' for Active; 'I' for Inactive)
REMARK    1  A    between atoms: C12_20  and  O2_2 
REMARK    2  A    between atoms: C13_21  and  O3_3 
REMARK    3  A    between atoms: C19_27  and  O3_3 
REMARK    4  A    between atoms: C12_20  and  C2_10 
REMARK    5  A    between atoms: C11_19  and  C6_14 
REMARK    6  A    between atoms: C13_21  and  C8_16 
ROOT
HETATM    1  O1  UNK     1      30.739  -9.676  35.427  1.00  0.00    -0.292 OA
HETATM    2  N1  UNK     1      34.764  -7.316  36.238  1.00  0.00    -0.362 N 
HETATM    3  C1  UNK     1      31.740  -7.901  38.427  1.00  0.00     0.008 C 
HETATM    4  C2  UNK     1      31.229  -9.167  37.725  1.00  0.00     0.164 C 
HETATM    5  C3  UNK     1      33.234  -7.726  38.114  1.00  0.00     0.063 C 
HETATM    6  C4  UNK     1      32.735  -8.436  35.750  1.00  0.00     0.025 C 
HETATM    7  C5  UNK     1      33.555  -7.844  36.645  1.00  0.00     0.020 C 
HETATM    8  C6  UNK     1      33.081  -8.468  34.263  1.00  0.00     0.104 C 
HETATM    9  C7  UNK     1      31.489  -9.117  36.228  1.00  0.00     0.172 C 
HETATM   10  C8  UNK     1      34.522  -8.025  33.993  1.00  0.00     0.052 C 
HETATM   11  C9  UNK     1      30.947  -6.637  38.061  1.00  0.00     0.011 C 
HETATM   12  C10 UNK     1      35.278  -7.450  34.957  1.00  0.00     0.018 C 
HETATM   13  C14 UNK     1      36.677  -6.930  34.775  1.00  0.00     0.069 C 
HETATM   14  H9  UNK     1      35.355  -6.885  36.941  1.00  0.00     0.165 HD
ENDROOT
BRANCH   8  15
HETATM   15  C11 UNK     1      32.119  -7.613  33.477  1.00  0.00     0.029 A 
HETATM   16  C15 UNK     1      31.351  -8.243  32.372  1.00  0.00     0.194 A 
HETATM   17  O7  UNK     1      31.476  -9.426  32.085  1.00  0.00    -0.287 OA
HETATM   18  C17 UNK     1      30.426  -7.363  31.635  1.00  0.00     0.048 A 
HETATM   19  C18 UNK     1      30.324  -6.022  32.006  1.00  0.00     0.089 A 
HETATM   20  C20 UNK     1      29.658  -7.860  30.578  1.00  0.00     0.018 A 
HETATM   21  O4  UNK     1      31.053  -5.481  33.036  1.00  0.00    -0.321 OA
HETATM   22  C22 UNK     1      29.456  -5.171  31.323  1.00  0.00     0.038 A 
HETATM   23  C16 UNK     1      31.911  -6.311  33.713  1.00  0.00     0.154 A 
HETATM   24  C26 UNK     1      28.689  -5.666  30.267  1.00  0.00     0.003 A 
HETATM   25  C23 UNK     1      28.790  -7.007  29.896  1.00  0.00     0.001 A 
ENDBRANCH   8  15
BRANCH  10  26
HETATM   26  C13 UNK     1      35.062  -8.309  32.652  1.00  0.00     0.292 C 
HETATM   27  O6  UNK     1      35.109  -7.482  31.762  1.00  0.00    -0.259 OA
BRANCH  26  28
HETATM   28  O3  UNK     1      35.470  -9.600  32.622  1.00  0.00    -0.313 OA
BRANCH  28  29
HETATM   29  C19 UNK     1      36.879  -9.786  32.448  1.00  0.00     0.124 C 
HETATM   30  C24 UNK     1      37.386 -10.769  33.493  1.00  0.00     0.040 C 
HETATM   31  C25 UNK     1      37.150 -10.273  31.033  1.00  0.00     0.040 C 
ENDBRANCH  28  29
ENDBRANCH  26  28
ENDBRANCH  10  26
BRANCH   4  32
HETATM   32  C12 UNK     1      29.799  -9.431  38.082  1.00  0.00     0.270 C 
HETATM   33  O5  UNK     1      28.843  -8.957  37.482  1.00  0.00    -0.264 OA
BRANCH  32  34
HETATM   34  O2  UNK     1      29.745 -10.266  39.158  1.00  0.00    -0.326 OA
HETATM   35  C21 UNK     1      28.503 -10.269  39.872  1.00  0.00     0.213 C 
ENDBRANCH  32  34
ENDBRANCH   4  32
TORSDOF 6
ENDMDL
MODEL 7
REMARK VINA RESULT:      -7.7      2.160      6.492
REMARK  6 active torsions:
REMARK  status: ('A' for Active; 'I' for Inactive)
REMARK    1  A    between atoms: C12_20  and  O2_2 
REMARK    2  A    between atoms: C13_21  and  O3_3 
REMARK    3  A    between atoms: C19_27  and  O3_3 
REMARK    4  A    between atoms: C12_20  and  C2_10 
REMARK    5  A    between atoms: C11_19  and  C6_14 
REMARK    6  A    between atoms: C13_21  and  C8_16 
ROOT
HETATM    1  O1  UNK     1      30.247  -9.185  32.056  1.00  0.00    -0.292 OA
HETATM    2  N1  UNK     1      28.337  -6.326  35.312  1.00  0.00    -0.362 N 
HETATM    3  C1  UNK     1      27.878  -6.484  31.564  1.00  0.00     0.008 C 
HETATM    4  C2  UNK     1      28.303  -7.947  31.375  1.00  0.00     0.164 C 
HETATM    5  C3  UNK     1      27.447  -6.276  33.024  1.00  0.00     0.063 C 
HETATM    6  C4  UNK     1      29.386  -7.726  33.716  1.00  0.00     0.025 C 
HETATM    7  C5  UNK     1      28.441  -6.813  34.024  1.00  0.00     0.020 C 
HETATM    8  C6  UNK     1      30.409  -8.185  34.752  1.00  0.00     0.104 C 
HETATM    9  C7  UNK     1      29.402  -8.339  32.349  1.00  0.00     0.172 C 
HETATM   10  C8  UNK     1      30.053  -7.715  36.165  1.00  0.00     0.052 C 
HETATM   11  C9  UNK     1      28.964  -5.475  31.160  1.00  0.00     0.011 C 
HETATM   12  C10 UNK     1      29.078  -6.802  36.383  1.00  0.00     0.018 C 
HETATM   13  C14 UNK     1      28.696  -6.235  37.723  1.00  0.00     0.069 C 
HETATM   14  H9  UNK     1      27.611  -5.646  35.506  1.00  0.00     0.165 HD
ENDROOT
BRANCH   8  15
HETATM   15  C11 UNK     1      31.791  -7.709  34.379  1.00  0.00     0.029 A 
HETATM   16  C15 UNK     1      32.869  -8.718  34.222  1.00  0.00     0.194 A 
HETATM   17  O7  UNK     1      32.670  -9.914  34.384  1.00  0.00    -0.287 OA
HETATM   18  C17 UNK     1      34.201  -8.200  33.858  1.00  0.00     0.048 A 
HETATM   19  C18 UNK     1      34.370  -6.826  33.686  1.00  0.00     0.089 A 
HETATM   20  C20 UNK     1      35.282  -9.069  33.687  1.00  0.00     0.018 A 
HETATM   21  O4  UNK     1      33.344  -5.927  33.840  1.00  0.00    -0.321 OA
HETATM   22  C22 UNK     1      35.621  -6.314  33.341  1.00  0.00     0.038 A 
HETATM   23  C16 UNK     1      32.110  -6.424  34.180  1.00  0.00     0.154 A 
HETATM   24  C26 UNK     1      36.702  -7.179  33.170  1.00  0.00     0.003 A 
HETATM   25  C23 UNK     1      36.532  -8.553  33.342  1.00  0.00     0.001 A 
ENDBRANCH   8  15
BRANCH  10  26
HETATM   26  C13 UNK     1      30.783  -8.348  37.277  1.00  0.00     0.292 C 
HETATM   27  O6  UNK     1      30.926  -9.551  37.384  1.00  0.00    -0.259 OA
BRANCH  26  28
HETATM   28  O3  UNK     1      31.233  -7.372  38.102  1.00  0.00    -0.313 OA
BRANCH  28  29
HETATM   29  C19 UNK     1      32.332  -6.609  37.595  1.00  0.00     0.124 C 
HETATM   30  C24 UNK     1      32.438  -5.305  38.372  1.00  0.00     0.040 C 
HETATM   31  C25 UNK     1      33.605  -7.434  37.696  1.00  0.00     0.040 C 
ENDBRANCH  28  29
ENDBRANCH  26  28
ENDBRANCH  10  26
BRANCH   4  32
HETATM   32  C12 UNK     1      28.639  -8.220  29.941  1.00  0.00     0.270 C 
HETATM   33  O5  UNK     1      29.547  -7.669  29.332  1.00  0.00    -0.264 OA
BRANCH  32  34
HETATM   34  O2  UNK     1      27.785  -9.159  29.444  1.00  0.00    -0.326 OA
HETATM   35  C21 UNK     1      28.325  -9.998  28.416  1.00  0.00     0.213 C 
ENDBRANCH  32  34
ENDBRANCH   4  32
TORSDOF 6
ENDMDL
MODEL 8
REMARK VINA RESULT:      -7.6      2.257      3.241
REMARK  6 active torsions:
REMARK  status: ('A' for Active; 'I' for Inactive)
REMARK    1  A    between atoms: C12_20  and  O2_2 
REMARK    2  A    between atoms: C13_21  and  O3_3 
REMARK    3  A    between atoms: C19_27  and  O3_3 
REMARK    4  A    between atoms: C12_20  and  C2_10 
REMARK    5  A    between atoms: C11_19  and  C6_14 
REMARK    6  A    between atoms: C13_21  and  C8_16 
ROOT
HETATM    1  O1  UNK     1      31.218  -6.841  36.002  1.00  0.00    -0.292 OA
HETATM    2  N1  UNK     1      35.304  -8.415  34.198  1.00  0.00    -0.362 N 
HETATM    3  C1  UNK     1      34.465  -5.228  36.047  1.00  0.00     0.008 C 
HETATM    4  C2  UNK     1      33.213  -5.742  36.771  1.00  0.00     0.164 C 
HETATM    5  C3  UNK     1      35.334  -6.428  35.641  1.00  0.00     0.063 C 
HETATM    6  C4  UNK     1      33.218  -7.637  35.007  1.00  0.00     0.025 C 
HETATM    7  C5  UNK     1      34.560  -7.514  34.936  1.00  0.00     0.020 C 
HETATM    8  C6  UNK     1      32.481  -8.717  34.218  1.00  0.00     0.104 C 
HETATM    9  C7  UNK     1      32.441  -6.732  35.913  1.00  0.00     0.172 C 
HETATM   10  C8  UNK     1      33.438  -9.747  33.612  1.00  0.00     0.052 C 
HETATM   11  C9  UNK     1      34.149  -4.338  34.835  1.00  0.00     0.011 C 
HETATM   12  C10 UNK     1      34.776  -9.547  33.596  1.00  0.00     0.018 C 
HETATM   13  C14 UNK     1      35.789 -10.468  32.973  1.00  0.00     0.069 C 
HETATM   14  H9  UNK     1      36.310  -8.293  34.175  1.00  0.00     0.165 HD
ENDROOT
BRANCH   8  15
HETATM   15  C11 UNK     1      31.632  -8.096  33.137  1.00  0.00     0.029 A 
HETATM   16  C15 UNK     1      30.183  -8.421  33.098  1.00  0.00     0.194 A 
HETATM   17  O7  UNK     1      29.663  -9.172  33.914  1.00  0.00    -0.287 OA
HETATM   18  C17 UNK     1      29.400  -7.790  32.021  1.00  0.00     0.048 A 
HETATM   19  C18 UNK     1      30.046  -6.944  31.119  1.00  0.00     0.089 A 
HETATM   20  C20 UNK     1      28.029  -8.033  31.900  1.00  0.00     0.018 A 
HETATM   21  O4  UNK     1      31.389  -6.669  31.192  1.00  0.00    -0.321 OA
HETATM   22  C22 UNK     1      29.324  -6.336  30.092  1.00  0.00     0.038 A 
HETATM   23  C16 UNK     1      32.106  -7.265  32.200  1.00  0.00     0.154 A 
HETATM   24  C26 UNK     1      27.956  -6.577  29.969  1.00  0.00     0.003 A 
HETATM   25  C23 UNK     1      27.310  -7.423  30.870  1.00  0.00     0.001 A 
ENDBRANCH   8  15
BRANCH  10  26
HETATM   26  C13 UNK     1      32.835 -10.991  33.101  1.00  0.00     0.292 C 
HETATM   27  O6  UNK     1      32.407 -11.871  33.823  1.00  0.00    -0.259 OA
BRANCH  26  28
HETATM   28  O3  UNK     1      32.856 -10.950  31.747  1.00  0.00    -0.313 OA
BRANCH  28  29
HETATM   29  C19 UNK     1      31.614 -11.270  31.112  1.00  0.00     0.124 C 
HETATM   30  C24 UNK     1      31.329 -10.244  30.025  1.00  0.00     0.040 C 
HETATM   31  C25 UNK     1      31.686 -12.683  30.554  1.00  0.00     0.040 C 
ENDBRANCH  28  29
ENDBRANCH  26  28
ENDBRANCH  10  26
BRANCH   4  32
HETATM   32  C12 UNK     1      32.383  -4.600  37.272  1.00  0.00     0.270 C 
HETATM   33  O5  UNK     1      32.179  -3.572  36.641  1.00  0.00    -0.264 OA
BRANCH  32  34
HETATM   34  O2  UNK     1      31.909  -4.894  38.517  1.00  0.00    -0.326 OA
HETATM   35  C21 UNK     1      30.502  -4.705  38.698  1.00  0.00     0.213 C 
ENDBRANCH  32  34
ENDBRANCH   4  32
TORSDOF 6
ENDMDL
MODEL 9
REMARK VINA RESULT:      -7.5      2.988      6.309
REMARK  6 active torsions:
REMARK  status: ('A' for Active; 'I' for Inactive)
REMARK    1  A    between atoms: C12_20  and  O2_2 
REMARK    2  A    between atoms: C13_21  and  O3_3 
REMARK    3  A    between atoms: C19_27  and  O3_3 
REMARK    4  A    between atoms: C12_20  and  C2_10 
REMARK    5  A    between atoms: C11_19  and  C6_14 
REMARK    6  A    between atoms: C13_21  and  C8_16 
ROOT
HETATM    1  O1  UNK     1      32.271  -6.623  34.162  1.00  0.00    -0.292 OA
HETATM    2  N1  UNK     1      30.534  -6.573  38.567  1.00  0.00    -0.362 N 
HETATM    3  C1  UNK     1      33.955  -5.682  37.233  1.00  0.00     0.008 C 
HETATM    4  C2  UNK     1      33.531  -5.380  35.788  1.00  0.00     0.164 C 
HETATM    5  C3  UNK     1      32.727  -5.554  38.148  1.00  0.00     0.063 C 
HETATM    6  C4  UNK     1      31.377  -6.698  36.358  1.00  0.00     0.025 C 
HETATM    7  C5  UNK     1      31.522  -6.304  37.641  1.00  0.00     0.020 C 
HETATM    8  C6  UNK     1      30.164  -7.513  35.914  1.00  0.00     0.104 C 
HETATM    9  C7  UNK     1      32.396  -6.286  35.339  1.00  0.00     0.172 C 
HETATM   10  C8  UNK     1      29.075  -7.564  36.989  1.00  0.00     0.052 C 
HETATM   11  C9  UNK     1      34.627  -7.053  37.398  1.00  0.00     0.011 C 
HETATM   12  C10 UNK     1      29.306  -7.134  38.251  1.00  0.00     0.018 C 
HETATM   13  C14 UNK     1      28.323  -7.197  39.388  1.00  0.00     0.069 C 
HETATM   14  H9  UNK     1      30.676  -6.255  39.520  1.00  0.00     0.165 HD
ENDROOT
BRANCH   8  15
HETATM   15  C11 UNK     1      30.579  -8.911  35.528  1.00  0.00     0.029 A 
HETATM   16  C15 UNK     1      30.169  -9.430  34.198  1.00  0.00     0.194 A 
HETATM   17  O7  UNK     1      29.510  -8.761  33.413  1.00  0.00    -0.287 OA
HETATM   18  C17 UNK     1      30.598 -10.802  33.870  1.00  0.00     0.048 A 
HETATM   19  C18 UNK     1      31.348 -11.519  34.803  1.00  0.00     0.089 A 
HETATM   20  C20 UNK     1      30.262 -11.381  32.643  1.00  0.00     0.018 A 
HETATM   21  O4  UNK     1      31.707 -10.999  36.022  1.00  0.00    -0.321 OA
HETATM   22  C22 UNK     1      31.765 -12.818  34.515  1.00  0.00     0.038 A 
HETATM   23  C16 UNK     1      31.299  -9.722  36.314  1.00  0.00     0.154 A 
HETATM   24  C26 UNK     1      31.430 -13.398  33.291  1.00  0.00     0.003 A 
HETATM   25  C23 UNK     1      30.681 -12.681  32.358  1.00  0.00     0.001 A 
ENDBRANCH   8  15
BRANCH  10  26
HETATM   26  C13 UNK     1      27.750  -8.050  36.567  1.00  0.00     0.292 C 
HETATM   27  O6  UNK     1      26.878  -7.321  36.134  1.00  0.00    -0.259 OA
BRANCH  26  28
HETATM   28  O3  UNK     1      27.710  -9.391  36.748  1.00  0.00    -0.313 OA
BRANCH  28  29
HETATM   29  C19 UNK     1      26.546  -9.877  37.427  1.00  0.00     0.124 C 
HETATM   30  C24 UNK     1      25.846 -10.904  36.549  1.00  0.00     0.040 C 
HETATM   31  C25 UNK     1      26.956 -10.462  38.769  1.00  0.00     0.040 C 
ENDBRANCH  28  29
ENDBRANCH  26  28
ENDBRANCH  10  26
BRANCH   4  32
HETATM   32  C12 UNK     1      34.717  -5.398  34.873  1.00  0.00     0.270 C 
HETATM   33  O5  UNK     1      35.390  -6.394  34.642  1.00  0.00    -0.264 OA
BRANCH  32  34
HETATM   34  O2  UNK     1      34.913  -4.151  34.357  1.00  0.00    -0.326 OA
HETATM   35  C21 UNK     1      34.115  -3.114  34.938  1.00  0.00     0.213 C 
ENDBRANCH  32  34
ENDBRANCH   4  32
TORSDOF 6
ENDMDL
MODEL 10
REMARK VINA RESULT:      -7.4      2.279      6.774
REMARK  6 active torsions:
REMARK  status: ('A' for Active; 'I' for Inactive)
REMARK    1  A    between atoms: C12_20  and  O2_2 
REMARK    2  A    between atoms: C13_21  and  O3_3 
REMARK    3  A    between atoms: C19_27  and  O3_3 
REMARK    4  A    between atoms: C12_20  and  C2_10 
REMARK    5  A    between atoms: C11_19  and  C6_14 
REMARK    6  A    between atoms: C13_21  and  C8_16 
ROOT
HETATM    1  O1  UNK     1      30.072  -9.345  31.799  1.00  0.00    -0.292 OA
HETATM    2  N1  UNK     1      28.870  -5.953  34.876  1.00  0.00    -0.362 N 
HETATM    3  C1  UNK     1      28.360  -6.217  31.141  1.00  0.00     0.008 C 
HETATM    4  C2  UNK     1      28.447  -7.746  31.037  1.00  0.00     0.164 C 
HETATM    5  C3  UNK     1      27.996  -5.836  32.584  1.00  0.00     0.063 C 
HETATM    6  C4  UNK     1      29.569  -7.639  33.368  1.00  0.00     0.025 C 
HETATM    7  C5  UNK     1      28.853  -6.523  33.618  1.00  0.00     0.020 C 
HETATM    8  C6  UNK     1      30.472  -8.255  34.435  1.00  0.00     0.104 C 
HETATM    9  C7  UNK     1      29.439  -8.318  32.038  1.00  0.00     0.172 C 
HETATM   10  C8  UNK     1      30.240  -7.638  35.817  1.00  0.00     0.052 C 
HETATM   11  C9  UNK     1      29.641  -5.500  30.686  1.00  0.00     0.011 C 
HETATM   12  C10 UNK     1      29.494  -6.520  35.977  1.00  0.00     0.018 C 
HETATM   13  C14 UNK     1      29.257  -5.808  37.280  1.00  0.00     0.069 C 
HETATM   14  H9  UNK     1      28.314  -5.119  35.027  1.00  0.00     0.165 HD
ENDROOT
BRANCH   8  15
HETATM   15  C11 UNK     1      31.922  -8.120  34.043  1.00  0.00     0.029 A 
HETATM   16  C15 UNK     1      32.735  -9.355  33.900  1.00  0.00     0.194 A 
HETATM   17  O7  UNK     1      32.265 -10.469  34.089  1.00  0.00    -0.287 OA
HETATM   18  C17 UNK     1      34.147  -9.168  33.517  1.00  0.00     0.048 A 
HETATM   19  C18 UNK     1      34.629  -7.874  33.315  1.00  0.00     0.089 A 
HETATM   20  C20 UNK     1      34.994 -10.267  33.357  1.00  0.00     0.018 A 
HETATM   21  O4  UNK     1      33.841  -6.759  33.457  1.00  0.00    -0.321 OA
HETATM   22  C22 UNK     1      35.960  -7.673  32.952  1.00  0.00     0.038 A 
HETATM   23  C16 UNK     1      32.529  -6.949  33.815  1.00  0.00     0.154 A 
HETATM   24  C26 UNK     1      36.809  -8.770  32.792  1.00  0.00     0.003 A 
HETATM   25  C23 UNK     1      36.327 -10.063  32.995  1.00  0.00     0.001 A 
ENDBRANCH   8  15
BRANCH  10  26
HETATM   26  C13 UNK     1      30.818  -8.354  36.967  1.00  0.00     0.292 C 
HETATM   27  O6  UNK     1      31.818  -7.983  37.550  1.00  0.00    -0.259 OA
BRANCH  26  28
HETATM   28  O3  UNK     1      30.050  -9.440  37.223  1.00  0.00    -0.313 OA
BRANCH  28  29
HETATM   29  C19 UNK     1      28.873  -9.182  37.995  1.00  0.00     0.124 C 
HETATM   30  C24 UNK     1      27.646  -9.555  37.177  1.00  0.00     0.040 C 
HETATM   31  C25 UNK     1      28.945  -9.963  39.298  1.00  0.00     0.040 C 
ENDBRANCH  28  29
ENDBRANCH  26  28
ENDBRANCH  10  26
BRANCH   4  32
HETATM   32  C12 UNK     1      28.704  -8.168  29.623  1.00  0.00     0.270 C 
HETATM   33  O5  UNK     1      29.604  -7.718  28.926  1.00  0.00    -0.264 OA
BRANCH  32  34
HETATM   34  O2  UNK     1      27.791  -9.111  29.256  1.00  0.00    -0.326 OA
HETATM   35  C21 UNK     1      28.276 -10.124  28.368  1.00  0.00     0.213 C 
ENDBRANCH  32  34
ENDBRANCH   4  32
TORSDOF 6
ENDMDL
