MODEL 1
REMARK VINA RESULT:      -9.2      0.000      0.000
REMARK  4 active torsions:
REMARK  status: ('A' for Active; 'I' for Inactive)
REMARK    1  A    between atoms: C7_13  and  O2_2 
REMARK    2  A    between atoms: C8_14  and  N1_6 
REMARK       I    between atoms: C9_15  and  N1_6 
REMARK    3  A    between atoms: C3_9  and  C9_15 
REMARK    4  A    between atoms: C12_18  and  C17_23 
ROOT
HETATM    1  O1  UNK     1      19.067   1.583  28.749  1.00  0.00    -0.274 OA
HETATM    2  O4  UNK     1      18.237   3.704  28.941  1.00  0.00    -0.259 OA
HETATM    3  C1  UNK     1      19.549   0.297  30.755  1.00  0.00     0.002 A 
HETATM    4  C2  UNK     1      19.521   0.402  29.368  1.00  0.00     0.089 A 
HETATM    5  C3  UNK     1      18.672   2.545  30.962  1.00  0.00     0.108 A 
HETATM    6  C4  UNK     1      19.104   1.427  31.555  1.00  0.00     0.037 A 
HETATM    7  C5  UNK     1      20.006  -0.891  31.331  1.00  0.00     0.051 A 
HETATM    8  C6  UNK     1      19.936  -0.643  28.544  1.00  0.00     0.041 A 
HETATM    9  C7  UNK     1      20.425  -1.947  30.517  1.00  0.00     0.069 A 
HETATM   10  C10 UNK     1      18.632   2.679  29.489  1.00  0.00     0.304 A 
HETATM   11  C11 UNK     1      20.390  -1.823  29.127  1.00  0.00     0.039 A 
ENDROOT
BRANCH   5  12
HETATM   12  C9  UNK     1      18.243   3.629  31.855  1.00  0.00     0.262 C 
HETATM   13  O3  UNK     1      17.617   3.363  32.881  1.00  0.00    -0.267 OA
HETATM   14  N1  UNK     1      18.626   4.877  31.385  1.00  0.00    -0.323 N 
HETATM   15  H5  UNK     1      19.164   4.925  30.523  1.00  0.00     0.169 HD
BRANCH  14  16
HETATM   16  C8  UNK     1      18.384   6.138  31.984  1.00  0.00     0.035 A 
HETATM   17  C13 UNK     1      17.202   6.804  31.705  1.00  0.00     0.030 A 
HETATM   18  C15 UNK     1      16.963   8.044  32.295  1.00  0.00     0.017 A 
HETATM   19  C12 UNK     1      17.909   8.601  33.156  1.00  0.00     0.009 A 
HETATM   20  C16 UNK     1      19.094   7.916  33.427  1.00  0.00     0.017 A 
HETATM   21  C14 UNK     1      19.333   6.676  32.836  1.00  0.00     0.030 A 
BRANCH  19  22
HETATM   22  C17 UNK     1      17.660   9.895  33.770  1.00  0.00     0.155 C 
HETATM   23  O5  UNK     1      18.496  10.819  33.705  1.00  0.00    -0.293 OA
HETATM   24  C18 UNK     1      16.357  10.152  34.519  1.00  0.00     0.096 C 
ENDBRANCH  19  22
ENDBRANCH  14  16
ENDBRANCH   5  12
BRANCH   9  25
HETATM   25  O2  UNK     1      20.869  -3.104  31.083  1.00  0.00    -0.356 OA
HETATM   26  C19 UNK     1      20.996  -3.125  32.504  1.00  0.00     0.210 C 
ENDBRANCH   9  25
TORSDOF 4
ENDMDL
MODEL 2
REMARK VINA RESULT:      -9.2     13.748     18.704
REMARK  4 active torsions:
REMARK  status: ('A' for Active; 'I' for Inactive)
REMARK    1  A    between atoms: C7_13  and  O2_2 
REMARK    2  A    between atoms: C8_14  and  N1_6 
REMARK       I    between atoms: C9_15  and  N1_6 
REMARK    3  A    between atoms: C3_9  and  C9_15 
REMARK    4  A    between atoms: C12_18  and  C17_23 
ROOT
HETATM    1  O1  UNK     1      19.332   1.260  15.596  1.00  0.00    -0.274 OA
HETATM    2  O4  UNK     1      19.426  -0.251  13.885  1.00  0.00    -0.259 OA
HETATM    3  C1  UNK     1      18.934   0.483  17.864  1.00  0.00     0.002 A 
HETATM    4  C2  UNK     1      19.164   1.523  16.969  1.00  0.00     0.089 A 
HETATM    5  C3  UNK     1      19.031  -1.123  16.053  1.00  0.00     0.108 A 
HETATM    6  C4  UNK     1      18.869  -0.879  17.358  1.00  0.00     0.037 A 
HETATM    7  C5  UNK     1      18.773   0.783  19.219  1.00  0.00     0.051 A 
HETATM    8  C6  UNK     1      19.237   2.850  17.389  1.00  0.00     0.041 A 
HETATM    9  C7  UNK     1      18.843   2.110  19.655  1.00  0.00     0.069 A 
HETATM   10  C10 UNK     1      19.277  -0.032  15.083  1.00  0.00     0.304 A 
HETATM   11  C11 UNK     1      19.075   3.140  18.742  1.00  0.00     0.039 A 
ENDROOT
BRANCH   5  12
HETATM   12  C9  UNK     1      18.948  -2.529  15.640  1.00  0.00     0.262 C 
HETATM   13  O3  UNK     1      17.890  -3.143  15.776  1.00  0.00    -0.267 OA
HETATM   14  N1  UNK     1      20.149  -2.995  15.124  1.00  0.00    -0.323 N 
HETATM   15  H5  UNK     1      20.930  -2.348  15.058  1.00  0.00     0.169 HD
BRANCH  14  16
HETATM   16  C8  UNK     1      20.432  -4.293  14.632  1.00  0.00     0.035 A 
HETATM   17  C13 UNK     1      20.107  -4.606  13.323  1.00  0.00     0.030 A 
HETATM   18  C15 UNK     1      20.387  -5.883  12.838  1.00  0.00     0.017 A 
HETATM   19  C12 UNK     1      20.987  -6.829  13.669  1.00  0.00     0.009 A 
HETATM   20  C16 UNK     1      21.309  -6.496  14.986  1.00  0.00     0.017 A 
HETATM   21  C14 UNK     1      21.028  -5.219  15.470  1.00  0.00     0.030 A 
BRANCH  19  22
HETATM   22  C17 UNK     1      21.278  -8.161  13.164  1.00  0.00     0.155 C 
HETATM   23  O5  UNK     1      22.315  -8.771  13.495  1.00  0.00    -0.293 OA
HETATM   24  C18 UNK     1      20.311  -8.848  12.207  1.00  0.00     0.096 C 
ENDBRANCH  19  22
ENDBRANCH  14  16
ENDBRANCH   5  12
BRANCH   9  25
HETATM   25  O2  UNK     1      18.686   2.398  20.976  1.00  0.00    -0.356 OA
HETATM   26  C19 UNK     1      19.762   2.055  21.848  1.00  0.00     0.210 C 
ENDBRANCH   9  25
TORSDOF 4
ENDMDL
MODEL 3
REMARK VINA RESULT:      -8.6      6.151     12.182
REMARK  4 active torsions:
REMARK  status: ('A' for Active; 'I' for Inactive)
REMARK    1  A    between atoms: C7_13  and  O2_2 
REMARK    2  A    between atoms: C8_14  and  N1_6 
REMARK       I    between atoms: C9_15  and  N1_6 
REMARK    3  A    between atoms: C3_9  and  C9_15 
REMARK    4  A    between atoms: C12_18  and  C17_23 
ROOT
HETATM    1  O1  UNK     1      18.355  -0.289  36.858  1.00  0.00    -0.274 OA
HETATM    2  O4  UNK     1      18.759  -1.885  38.442  1.00  0.00    -0.259 OA
HETATM    3  C1  UNK     1      18.901  -0.740  34.533  1.00  0.00     0.002 A 
HETATM    4  C2  UNK     1      18.400   0.114  35.509  1.00  0.00     0.089 A 
HETATM    5  C3  UNK     1      19.333  -2.435  36.209  1.00  0.00     0.108 A 
HETATM    6  C4  UNK     1      19.379  -2.056  34.927  1.00  0.00     0.037 A 
HETATM    7  C5  UNK     1      18.929  -0.305  33.206  1.00  0.00     0.051 A 
HETATM    8  C6  UNK     1      17.928   1.388  35.198  1.00  0.00     0.041 A 
HETATM    9  C7  UNK     1      18.459   0.971  32.879  1.00  0.00     0.069 A 
HETATM   10  C10 UNK     1      18.803  -1.543  37.266  1.00  0.00     0.304 A 
HETATM   11  C11 UNK     1      17.959   1.815  33.873  1.00  0.00     0.039 A 
ENDROOT
BRANCH   5  12
HETATM   12  C9  UNK     1      19.838  -3.780  36.508  1.00  0.00     0.262 C 
HETATM   13  O3  UNK     1      21.050  -3.972  36.591  1.00  0.00    -0.267 OA
HETATM   14  N1  UNK     1      18.812  -4.702  36.662  1.00  0.00    -0.323 N 
HETATM   15  H5  UNK     1      17.852  -4.376  36.584  1.00  0.00     0.169 HD
BRANCH  14  16
HETATM   16  C8  UNK     1      18.929  -6.084  36.953  1.00  0.00     0.035 A 
HETATM   17  C13 UNK     1      19.456  -6.476  38.172  1.00  0.00     0.030 A 
HETATM   18  C15 UNK     1      19.570  -7.836  38.459  1.00  0.00     0.017 A 
HETATM   19  C12 UNK     1      19.156  -8.784  37.524  1.00  0.00     0.009 A 
HETATM   20  C16 UNK     1      18.627  -8.371  36.300  1.00  0.00     0.017 A 
HETATM   21  C14 UNK     1      18.513  -7.011  36.013  1.00  0.00     0.030 A 
BRANCH  19  22
HETATM   22  C17 UNK     1      19.276 -10.202  37.823  1.00  0.00     0.155 C 
HETATM   23  O5  UNK     1      19.322 -11.057  36.915  1.00  0.00    -0.293 OA
HETATM   24  C18 UNK     1      19.347 -10.679  39.269  1.00  0.00     0.096 C 
ENDBRANCH  19  22
ENDBRANCH  14  16
ENDBRANCH   5  12
BRANCH   9  25
HETATM   25  O2  UNK     1      18.486   1.392  31.584  1.00  0.00    -0.356 OA
HETATM   26  C19 UNK     1      19.344   0.685  30.689  1.00  0.00     0.210 C 
ENDBRANCH   9  25
TORSDOF 4
ENDMDL
MODEL 4
REMARK VINA RESULT:      -8.5     14.582     16.493
REMARK  4 active torsions:
REMARK  status: ('A' for Active; 'I' for Inactive)
REMARK    1  A    between atoms: C7_13  and  O2_2 
REMARK    2  A    between atoms: C8_14  and  N1_6 
REMARK       I    between atoms: C9_15  and  N1_6 
REMARK    3  A    between atoms: C3_9  and  C9_15 
REMARK    4  A    between atoms: C12_18  and  C17_23 
ROOT
HETATM    1  O1  UNK     1      28.130  -4.844  38.700  1.00  0.00    -0.274 OA
HETATM    2  O4  UNK     1      25.876  -5.095  38.979  1.00  0.00    -0.259 OA
HETATM    3  C1  UNK     1      29.544  -6.813  38.517  1.00  0.00     0.002 A 
HETATM    4  C2  UNK     1      29.401  -5.429  38.540  1.00  0.00     0.089 A 
HETATM    5  C3  UNK     1      27.155  -7.083  38.815  1.00  0.00     0.108 A 
HETATM    6  C4  UNK     1      28.360  -7.645  38.664  1.00  0.00     0.037 A 
HETATM    7  C5  UNK     1      30.821  -7.356  38.356  1.00  0.00     0.051 A 
HETATM    8  C6  UNK     1      30.495  -4.576  38.406  1.00  0.00     0.041 A 
HETATM    9  C7  UNK     1      31.927  -6.512  38.220  1.00  0.00     0.069 A 
HETATM   10  C10 UNK     1      26.979  -5.614  38.841  1.00  0.00     0.304 A 
HETATM   11  C11 UNK     1      31.765  -5.126  38.245  1.00  0.00     0.039 A 
ENDROOT
BRANCH   5  12
HETATM   12  C9  UNK     1      26.022  -8.006  38.955  1.00  0.00     0.262 C 
HETATM   13  O3  UNK     1      26.191  -9.104  39.484  1.00  0.00    -0.267 OA
HETATM   14  N1  UNK     1      24.848  -7.477  38.437  1.00  0.00    -0.323 N 
HETATM   15  H5  UNK     1      24.871  -6.537  38.050  1.00  0.00     0.169 HD
BRANCH  14  16
HETATM   16  C8  UNK     1      23.569  -8.084  38.400  1.00  0.00     0.035 A 
HETATM   17  C13 UNK     1      22.752  -8.009  39.516  1.00  0.00     0.030 A 
HETATM   18  C15 UNK     1      21.492  -8.606  39.479  1.00  0.00     0.017 A 
HETATM   19  C12 UNK     1      21.068  -9.269  38.329  1.00  0.00     0.009 A 
HETATM   20  C16 UNK     1      21.903  -9.335  37.213  1.00  0.00     0.017 A 
HETATM   21  C14 UNK     1      23.163  -8.738  37.249  1.00  0.00     0.030 A 
BRANCH  19  22
HETATM   22  C17 UNK     1      19.754  -9.892  38.291  1.00  0.00     0.155 C 
HETATM   23  O5  UNK     1      19.403 -10.723  39.153  1.00  0.00    -0.293 OA
HETATM   24  C18 UNK     1      18.769  -9.540  37.182  1.00  0.00     0.096 C 
ENDBRANCH  19  22
ENDBRANCH  14  16
ENDBRANCH   5  12
BRANCH   9  25
HETATM   25  O2  UNK     1      33.170  -7.045  38.062  1.00  0.00    -0.356 OA
HETATM   26  C19 UNK     1      34.207  -6.161  37.640  1.00  0.00     0.210 C 
ENDBRANCH   9  25
TORSDOF 4
ENDMDL
MODEL 5
REMARK VINA RESULT:      -8.5      1.897      9.521
REMARK  4 active torsions:
REMARK  status: ('A' for Active; 'I' for Inactive)
REMARK    1  A    between atoms: C7_13  and  O2_2 
REMARK    2  A    between atoms: C8_14  and  N1_6 
REMARK       I    between atoms: C9_15  and  N1_6 
REMARK    3  A    between atoms: C3_9  and  C9_15 
REMARK    4  A    between atoms: C12_18  and  C17_23 
ROOT
HETATM    1  O1  UNK     1      18.668   7.934  33.716  1.00  0.00    -0.274 OA
HETATM    2  O4  UNK     1      20.284   6.440  33.101  1.00  0.00    -0.259 OA
HETATM    3  C1  UNK     1      16.630   8.106  32.402  1.00  0.00     0.002 A 
HETATM    4  C2  UNK     1      17.407   8.514  33.482  1.00  0.00     0.089 A 
HETATM    5  C3  UNK     1      18.342   6.523  31.746  1.00  0.00     0.108 A 
HETATM    6  C4  UNK     1      17.144   7.072  31.518  1.00  0.00     0.037 A 
HETATM    7  C5  UNK     1      15.385   8.705  32.203  1.00  0.00     0.051 A 
HETATM    8  C6  UNK     1      16.973   9.502  34.366  1.00  0.00     0.041 A 
HETATM    9  C7  UNK     1      14.937   9.697  33.081  1.00  0.00     0.069 A 
HETATM   10  C10 UNK     1      19.185   6.940  32.889  1.00  0.00     0.304 A 
HETATM   11  C11 UNK     1      15.730  10.094  34.160  1.00  0.00     0.039 A 
ENDROOT
BRANCH   5  12
HETATM   12  C9  UNK     1      18.773   5.487  30.799  1.00  0.00     0.262 C 
HETATM   13  O3  UNK     1      19.361   5.811  29.767  1.00  0.00    -0.267 OA
HETATM   14  N1  UNK     1      18.434   4.212  31.227  1.00  0.00    -0.323 N 
HETATM   15  H5  UNK     1      17.964   4.111  32.123  1.00  0.00     0.169 HD
BRANCH  14  16
HETATM   16  C8  UNK     1      18.690   2.983  30.570  1.00  0.00     0.035 A 
HETATM   17  C13 UNK     1      19.378   1.987  31.242  1.00  0.00     0.030 A 
HETATM   18  C15 UNK     1      19.629   0.777  30.595  1.00  0.00     0.017 A 
HETATM   19  C12 UNK     1      19.189   0.581  29.287  1.00  0.00     0.009 A 
HETATM   20  C16 UNK     1      18.496   1.595  28.624  1.00  0.00     0.017 A 
HETATM   21  C14 UNK     1      18.245   2.805  29.271  1.00  0.00     0.030 A 
BRANCH  19  22
HETATM   22  C17 UNK     1      19.451  -0.680  28.612  1.00  0.00     0.155 C 
HETATM   23  O5  UNK     1      19.113  -0.867  27.426  1.00  0.00    -0.293 OA
HETATM   24  C18 UNK     1      20.152  -1.815  29.351  1.00  0.00     0.096 C 
ENDBRANCH  19  22
ENDBRANCH  14  16
ENDBRANCH   5  12
BRANCH   9  25
HETATM   25  O2  UNK     1      13.721  10.278  32.885  1.00  0.00    -0.356 OA
HETATM   26  C19 UNK     1      13.556  11.614  33.356  1.00  0.00     0.210 C 
ENDBRANCH   9  25
TORSDOF 4
ENDMDL
MODEL 6
REMARK VINA RESULT:      -8.4      6.821     10.418
REMARK  4 active torsions:
REMARK  status: ('A' for Active; 'I' for Inactive)
REMARK    1  A    between atoms: C7_13  and  O2_2 
REMARK    2  A    between atoms: C8_14  and  N1_6 
REMARK       I    between atoms: C9_15  and  N1_6 
REMARK    3  A    between atoms: C3_9  and  C9_15 
REMARK    4  A    between atoms: C12_18  and  C17_23 
ROOT
HETATM    1  O1  UNK     1      18.905  -8.264  36.923  1.00  0.00    -0.274 OA
HETATM    2  O4  UNK     1      17.674  -6.373  37.286  1.00  0.00    -0.259 OA
HETATM    3  C1  UNK     1      21.321  -8.101  36.712  1.00  0.00     0.002 A 
HETATM    4  C2  UNK     1      20.161  -8.868  36.724  1.00  0.00     0.089 A 
HETATM    5  C3  UNK     1      20.020  -6.094  37.096  1.00  0.00     0.108 A 
HETATM    6  C4  UNK     1      21.215  -6.663  36.906  1.00  0.00     0.037 A 
HETATM    7  C5  UNK     1      22.549  -8.737  36.513  1.00  0.00     0.051 A 
HETATM    8  C6  UNK     1      20.193 -10.251  36.543  1.00  0.00     0.041 A 
HETATM    9  C7  UNK     1      22.596 -10.123  36.330  1.00  0.00     0.069 A 
HETATM   10  C10 UNK     1      18.772  -6.891  37.114  1.00  0.00     0.304 A 
HETATM   11  C11 UNK     1      21.421 -10.877  36.345  1.00  0.00     0.039 A 
ENDROOT
BRANCH   5  12
HETATM   12  C9  UNK     1      20.016  -4.638  37.282  1.00  0.00     0.262 C 
HETATM   13  O3  UNK     1      20.840  -4.117  38.033  1.00  0.00    -0.267 OA
HETATM   14  N1  UNK     1      19.021  -4.017  36.540  1.00  0.00    -0.323 N 
HETATM   15  H5  UNK     1      18.431  -4.593  35.945  1.00  0.00     0.169 HD
BRANCH  14  16
HETATM   16  C8  UNK     1      18.726  -2.633  36.478  1.00  0.00     0.035 A 
HETATM   17  C13 UNK     1      17.909  -2.071  37.444  1.00  0.00     0.030 A 
HETATM   18  C15 UNK     1      17.619  -0.708  37.383  1.00  0.00     0.017 A 
HETATM   19  C12 UNK     1      18.150   0.072  36.357  1.00  0.00     0.009 A 
HETATM   20  C16 UNK     1      18.972  -0.510  35.391  1.00  0.00     0.017 A 
HETATM   21  C14 UNK     1      19.262  -1.873  35.452  1.00  0.00     0.030 A 
BRANCH  19  22
HETATM   22  C17 UNK     1      17.848   1.493  36.292  1.00  0.00     0.155 C 
HETATM   23  O5  UNK     1      17.059   2.029  37.097  1.00  0.00    -0.293 OA
HETATM   24  C18 UNK     1      18.495   2.368  35.224  1.00  0.00     0.096 C 
ENDBRANCH  19  22
ENDBRANCH  14  16
ENDBRANCH   5  12
BRANCH   9  25
HETATM   25  O2  UNK     1      23.795 -10.740  36.137  1.00  0.00    -0.356 OA
HETATM   26  C19 UNK     1      23.763 -12.105  35.724  1.00  0.00     0.210 C 
ENDBRANCH   9  25
TORSDOF 4
ENDMDL
MODEL 7
REMARK VINA RESULT:      -8.3      2.076      9.540
REMARK  4 active torsions:
REMARK  status: ('A' for Active; 'I' for Inactive)
REMARK    1  A    between atoms: C7_13  and  O2_2 
REMARK    2  A    between atoms: C8_14  and  N1_6 
REMARK       I    between atoms: C9_15  and  N1_6 
REMARK    3  A    between atoms: C3_9  and  C9_15 
REMARK    4  A    between atoms: C12_18  and  C17_23 
ROOT
HETATM    1  O1  UNK     1      16.093   8.533  31.386  1.00  0.00    -0.274 OA
HETATM    2  O4  UNK     1      17.214   6.982  30.138  1.00  0.00    -0.259 OA
HETATM    3  C1  UNK     1      16.160   8.397  33.813  1.00  0.00     0.002 A 
HETATM    4  C2  UNK     1      15.725   9.028  32.653  1.00  0.00     0.089 A 
HETATM    5  C3  UNK     1      17.348   6.750  32.493  1.00  0.00     0.108 A 
HETATM    6  C4  UNK     1      17.001   7.215  33.697  1.00  0.00     0.037 A 
HETATM    7  C5  UNK     1      15.774   8.919  35.050  1.00  0.00     0.051 A 
HETATM    8  C6  UNK     1      14.916  10.164  32.694  1.00  0.00     0.041 A 
HETATM    9  C7  UNK     1      14.964  10.057  35.107  1.00  0.00     0.069 A 
HETATM   10  C10 UNK     1      16.898   7.406  31.245  1.00  0.00     0.304 A 
HETATM   11  C11 UNK     1      14.536  10.677  33.931  1.00  0.00     0.039 A 
ENDROOT
BRANCH   5  12
HETATM   12  C9  UNK     1      18.199   5.553  32.480  1.00  0.00     0.262 C 
HETATM   13  O3  UNK     1      19.250   5.545  33.118  1.00  0.00    -0.267 OA
HETATM   14  N1  UNK     1      17.663   4.538  31.699  1.00  0.00    -0.323 N 
HETATM   15  H5  UNK     1      16.764   4.697  31.250  1.00  0.00     0.169 HD
BRANCH  14  16
HETATM   16  C8  UNK     1      18.208   3.253  31.460  1.00  0.00     0.035 A 
HETATM   17  C13 UNK     1      18.305   2.353  32.507  1.00  0.00     0.030 A 
HETATM   18  C15 UNK     1      18.841   1.087  32.271  1.00  0.00     0.017 A 
HETATM   19  C12 UNK     1      19.273   0.741  30.992  1.00  0.00     0.009 A 
HETATM   20  C16 UNK     1      19.168   1.660  29.947  1.00  0.00     0.017 A 
HETATM   21  C14 UNK     1      18.632   2.925  30.183  1.00  0.00     0.030 A 
BRANCH  19  22
HETATM   22  C17 UNK     1      19.833  -0.579  30.745  1.00  0.00     0.155 C 
HETATM   23  O5  UNK     1      19.772  -1.483  31.603  1.00  0.00    -0.293 OA
HETATM   24  C18 UNK     1      20.515  -0.888  29.417  1.00  0.00     0.096 C 
ENDBRANCH  19  22
ENDBRANCH  14  16
ENDBRANCH   5  12
BRANCH   9  25
HETATM   25  O2  UNK     1      14.591  10.563  36.314  1.00  0.00    -0.356 OA
HETATM   26  C19 UNK     1      13.807  11.755  36.305  1.00  0.00     0.210 C 
ENDBRANCH   9  25
TORSDOF 4
ENDMDL
MODEL 8
REMARK VINA RESULT:      -8.3      5.805     11.620
REMARK  4 active torsions:
REMARK  status: ('A' for Active; 'I' for Inactive)
REMARK    1  A    between atoms: C7_13  and  O2_2 
REMARK    2  A    between atoms: C8_14  and  N1_6 
REMARK       I    between atoms: C9_15  and  N1_6 
REMARK    3  A    between atoms: C3_9  and  C9_15 
REMARK    4  A    between atoms: C12_18  and  C17_23 
ROOT
HETATM    1  O1  UNK     1      18.805  -0.452  34.388  1.00  0.00    -0.274 OA
HETATM    2  O4  UNK     1      18.693  -1.285  36.513  1.00  0.00    -0.259 OA
HETATM    3  C1  UNK     1      19.992  -1.699  32.671  1.00  0.00     0.002 A 
HETATM    4  C2  UNK     1      19.250  -0.588  33.059  1.00  0.00     0.089 A 
HETATM    5  C3  UNK     1      19.876  -2.584  34.923  1.00  0.00     0.108 A 
HETATM    6  C4  UNK     1      20.302  -2.717  33.662  1.00  0.00     0.037 A 
HETATM    7  C5  UNK     1      20.415  -1.798  31.344  1.00  0.00     0.051 A 
HETATM    8  C6  UNK     1      18.919   0.425  32.159  1.00  0.00     0.041 A 
HETATM    9  C7  UNK     1      20.091  -0.790  30.430  1.00  0.00     0.069 A 
HETATM   10  C10 UNK     1      19.084  -1.411  35.358  1.00  0.00     0.304 A 
HETATM   11  C11 UNK     1      19.345   0.318  30.837  1.00  0.00     0.039 A 
ENDROOT
BRANCH   5  12
HETATM   12  C9  UNK     1      20.239  -3.664  35.849  1.00  0.00     0.262 C 
HETATM   13  O3  UNK     1      21.044  -3.446  36.754  1.00  0.00    -0.267 OA
HETATM   14  N1  UNK     1      19.584  -4.851  35.553  1.00  0.00    -0.323 N 
HETATM   15  H5  UNK     1      18.926  -4.859  34.777  1.00  0.00     0.169 HD
BRANCH  14  16
HETATM   16  C8  UNK     1      19.693  -6.090  36.230  1.00  0.00     0.035 A 
HETATM   17  C13 UNK     1      18.951  -6.300  37.380  1.00  0.00     0.030 A 
HETATM   18  C15 UNK     1      19.057  -7.521  38.046  1.00  0.00     0.017 A 
HETATM   19  C12 UNK     1      19.904  -8.513  37.553  1.00  0.00     0.009 A 
HETATM   20  C16 UNK     1      20.644  -8.285  36.393  1.00  0.00     0.017 A 
HETATM   21  C14 UNK     1      20.538  -7.065  35.727  1.00  0.00     0.030 A 
BRANCH  19  22
HETATM   22  C17 UNK     1      20.015  -9.786  38.248  1.00  0.00     0.155 C 
HETATM   23  O5  UNK     1      19.907  -9.862  39.489  1.00  0.00    -0.293 OA
HETATM   24  C18 UNK     1      20.273 -11.068  37.465  1.00  0.00     0.096 C 
ENDBRANCH  19  22
ENDBRANCH  14  16
ENDBRANCH   5  12
BRANCH   9  25
HETATM   25  O2  UNK     1      20.503  -0.891  29.136  1.00  0.00    -0.356 OA
HETATM   26  C19 UNK     1      19.537  -0.616  28.123  1.00  0.00     0.210 C 
ENDBRANCH   9  25
TORSDOF 4
ENDMDL
MODEL 9
REMARK VINA RESULT:      -8.2      1.542      2.133
REMARK  4 active torsions:
REMARK  status: ('A' for Active; 'I' for Inactive)
REMARK    1  A    between atoms: C7_13  and  O2_2 
REMARK    2  A    between atoms: C8_14  and  N1_6 
REMARK       I    between atoms: C9_15  and  N1_6 
REMARK    3  A    between atoms: C3_9  and  C9_15 
REMARK    4  A    between atoms: C12_18  and  C17_23 
ROOT
HETATM    1  O1  UNK     1      19.828  -0.485  29.439  1.00  0.00    -0.274 OA
HETATM    2  O4  UNK     1      19.016   1.393  28.423  1.00  0.00    -0.259 OA
HETATM    3  C1  UNK     1      19.601  -0.741  31.846  1.00  0.00     0.002 A 
HETATM    4  C2  UNK     1      20.034  -1.229  30.617  1.00  0.00     0.089 A 
HETATM    5  C3  UNK     1      18.740   1.252  30.773  1.00  0.00     0.108 A 
HETATM    6  C4  UNK     1      18.935   0.550  31.895  1.00  0.00     0.037 A 
HETATM    7  C5  UNK     1      19.824  -1.509  32.992  1.00  0.00     0.051 A 
HETATM    8  C6  UNK     1      20.681  -2.459  30.502  1.00  0.00     0.041 A 
HETATM    9  C7  UNK     1      20.471  -2.744  32.892  1.00  0.00     0.069 A 
HETATM   10  C10 UNK     1      19.191   0.752  29.454  1.00  0.00     0.304 A 
HETATM   11  C11 UNK     1      20.898  -3.217  31.650  1.00  0.00     0.039 A 
ENDROOT
BRANCH   5  12
HETATM   12  C9  UNK     1      18.058   2.543  30.924  1.00  0.00     0.262 C 
HETATM   13  O3  UNK     1      16.954   2.714  30.409  1.00  0.00    -0.267 OA
HETATM   14  N1  UNK     1      18.802   3.444  31.672  1.00  0.00    -0.323 N 
HETATM   15  H5  UNK     1      19.695   3.138  32.050  1.00  0.00     0.169 HD
BRANCH  14  16
HETATM   16  C8  UNK     1      18.458   4.775  32.016  1.00  0.00     0.035 A 
HETATM   17  C13 UNK     1      18.652   5.785  31.089  1.00  0.00     0.030 A 
HETATM   18  C15 UNK     1      18.312   7.094  31.428  1.00  0.00     0.017 A 
HETATM   19  C12 UNK     1      17.782   7.375  32.686  1.00  0.00     0.009 A 
HETATM   20  C16 UNK     1      17.592   6.344  33.608  1.00  0.00     0.017 A 
HETATM   21  C14 UNK     1      17.933   5.035  33.270  1.00  0.00     0.030 A 
BRANCH  19  22
HETATM   22  C17 UNK     1      17.428   8.740  33.040  1.00  0.00     0.155 C 
HETATM   23  O5  UNK     1      16.365   9.260  32.646  1.00  0.00    -0.293 OA
HETATM   24  C18 UNK     1      18.363   9.576  33.908  1.00  0.00     0.096 C 
ENDBRANCH  19  22
ENDBRANCH  14  16
ENDBRANCH   5  12
BRANCH   9  25
HETATM   25  O2  UNK     1      20.684  -3.490  34.011  1.00  0.00    -0.356 OA
HETATM   26  C19 UNK     1      20.157  -2.987  35.237  1.00  0.00     0.210 C 
ENDBRANCH   9  25
TORSDOF 4
ENDMDL
MODEL 10
REMARK VINA RESULT:      -8.2     14.072     17.016
REMARK  4 active torsions:
REMARK  status: ('A' for Active; 'I' for Inactive)
REMARK    1  A    between atoms: C7_13  and  O2_2 
REMARK    2  A    between atoms: C8_14  and  N1_6 
REMARK       I    between atoms: C9_15  and  N1_6 
REMARK    3  A    between atoms: C3_9  and  C9_15 
REMARK    4  A    between atoms: C12_18  and  C17_23 
ROOT
HETATM    1  O1  UNK     1      19.219  -2.460  12.370  1.00  0.00    -0.274 OA
HETATM    2  O4  UNK     1      19.155  -0.534  13.598  1.00  0.00    -0.259 OA
HETATM    3  C1  UNK     1      18.565  -4.563  13.400  1.00  0.00     0.002 A 
HETATM    4  C2  UNK     1      19.017  -3.852  12.293  1.00  0.00     0.089 A 
HETATM    5  C3  UNK     1      18.498  -2.523  14.706  1.00  0.00     0.108 A 
HETATM    6  C4  UNK     1      18.306  -3.845  14.639  1.00  0.00     0.037 A 
HETATM    7  C5  UNK     1      18.377  -5.942  13.285  1.00  0.00     0.051 A 
HETATM    8  C6  UNK     1      19.285  -4.479  11.077  1.00  0.00     0.041 A 
HETATM    9  C7  UNK     1      18.642  -6.585  12.071  1.00  0.00     0.069 A 
HETATM   10  C10 UNK     1      18.977  -1.746  13.540  1.00  0.00     0.304 A 
HETATM   11  C11 UNK     1      19.094  -5.854  10.971  1.00  0.00     0.039 A 
ENDROOT
BRANCH   5  12
HETATM   12  C9  UNK     1      18.209  -1.890  15.998  1.00  0.00     0.262 C 
HETATM   13  O3  UNK     1      17.182  -2.188  16.607  1.00  0.00    -0.267 OA
HETATM   14  N1  UNK     1      19.196  -0.988  16.372  1.00  0.00    -0.323 N 
HETATM   15  H5  UNK     1      20.001  -0.872  15.762  1.00  0.00     0.169 HD
BRANCH  14  16
HETATM   16  C8  UNK     1      19.246  -0.201  17.548  1.00  0.00     0.035 A 
HETATM   17  C13 UNK     1      19.517  -0.813  18.761  1.00  0.00     0.030 A 
HETATM   18  C15 UNK     1      19.567  -0.037  19.919  1.00  0.00     0.017 A 
HETATM   19  C12 UNK     1      19.346   1.338  19.848  1.00  0.00     0.009 A 
HETATM   20  C16 UNK     1      19.074   1.938  18.618  1.00  0.00     0.017 A 
HETATM   21  C14 UNK     1      19.024   1.163  17.460  1.00  0.00     0.030 A 
BRANCH  19  22
HETATM   22  C17 UNK     1      19.397   2.146  21.056  1.00  0.00     0.155 C 
HETATM   23  O5  UNK     1      18.367   2.650  21.546  1.00  0.00    -0.293 OA
HETATM   24  C18 UNK     1      20.728   2.399  21.755  1.00  0.00     0.096 C 
ENDBRANCH  19  22
ENDBRANCH  14  16
ENDBRANCH   5  12
BRANCH   9  25
HETATM   25  O2  UNK     1      18.456  -7.929  11.962  1.00  0.00    -0.356 OA
HETATM   26  C19 UNK     1      17.581  -8.543  12.907  1.00  0.00     0.210 C 
ENDBRANCH   9  25
TORSDOF 4
ENDMDL
