MODEL 1
REMARK VINA RESULT:      -9.2      0.000      0.000
REMARK  6 active torsions:
REMARK  status: ('A' for Active; 'I' for Inactive)
REMARK    1  A    between atoms: C2_7  and  O1_3 
REMARK    2  A    between atoms: C5_10  and  O1_3 
REMARK    3  A    between atoms: C3_8  and  O2_4 
REMARK    4  A    between atoms: C1_6  and  C9_14 
REMARK    5  A    between atoms: C5_10  and  C8_13 
REMARK    6  A    between atoms: C10_15  and  C11_16 
ROOT
HETATM    1  N1  UNK     1      21.982  -1.706  35.323  1.00  0.00    -0.191 NA
HETATM    2  C9  UNK     1      18.679  -2.473  35.953  1.00  0.00     0.036 C 
HETATM    3  C10 UNK     1      19.906  -3.012  36.187  1.00  0.00     0.055 C 
HETATM    4  C23 UNK     1      21.049  -2.281  35.705  1.00  0.00     0.100 C 
ENDROOT
BRANCH   3   5
HETATM    5  C11 UNK     1      20.119  -4.264  36.894  1.00  0.00    -0.015 A 
HETATM    6  C14 UNK     1      19.163  -5.278  36.822  1.00  0.00     0.014 A 
HETATM    7  C19 UNK     1      19.369  -6.479  37.501  1.00  0.00     0.020 A 
HETATM    8  C21 UNK     1      20.529  -6.667  38.251  1.00  0.00     0.011 A 
HETATM    9 Br2  UNK     1      20.808  -8.295  39.170  1.00  0.00    -0.051 Br
HETATM   10  C20 UNK     1      21.485  -5.654  38.323  1.00  0.00     0.020 A 
HETATM   11  C15 UNK     1      21.280  -4.452  37.644  1.00  0.00     0.014 A 
ENDBRANCH   3   5
BRANCH   2  12
HETATM   12  C1  UNK     1      18.419  -1.208  35.250  1.00  0.00    -0.015 A 
HETATM   13  C4  UNK     1      18.654  -1.185  33.881  1.00  0.00     0.052 A 
HETATM   14  C3  UNK     1      18.424  -0.011  33.164  1.00  0.00     0.102 A 
HETATM   15  C2  UNK     1      17.962   1.129  33.821  1.00  0.00     0.103 A 
HETATM   16  C7  UNK     1      17.729   1.096  35.195  1.00  0.00     0.059 A 
HETATM   17  C6  UNK     1      17.958  -0.079  35.913  1.00  0.00     0.024 A 
HETATM   18 Br1  UNK     1      17.621  -0.056  37.783  1.00  0.00    -0.050 Br
BRANCH  14  19
HETATM   19  O2  UNK     1      18.655   0.010  31.821  1.00  0.00    -0.353 OA
HETATM   20  C22 UNK     1      19.697  -0.832  31.330  1.00  0.00     0.210 C 
ENDBRANCH  14  19
BRANCH  15  21
HETATM   21  O1  UNK     1      17.734   2.281  33.130  1.00  0.00    -0.344 OA
BRANCH  21  22
HETATM   22  C5  UNK     1      18.279   3.482  33.675  1.00  0.00     0.214 C 
BRANCH  22  23
HETATM   23  C8  UNK     1      18.673   4.395  32.552  1.00  0.00    -0.034 A 
HETATM   24  C12 UNK     1      19.054   5.703  32.829  1.00  0.00     0.009 A 
HETATM   25  C16 UNK     1      19.420   6.552  31.784  1.00  0.00     0.001 A 
HETATM   26  C18 UNK     1      19.404   6.086  30.469  1.00  0.00     0.000 A 
HETATM   27  C17 UNK     1      19.021   4.773  30.199  1.00  0.00     0.001 A 
HETATM   28  C13 UNK     1      18.655   3.924  31.243  1.00  0.00     0.009 A 
ENDBRANCH  22  23
ENDBRANCH  21  22
ENDBRANCH  15  21
ENDBRANCH   2  12
TORSDOF 6
ENDMDL
MODEL 2
REMARK VINA RESULT:      -8.9      5.527     10.756
REMARK  6 active torsions:
REMARK  status: ('A' for Active; 'I' for Inactive)
REMARK    1  A    between atoms: C2_7  and  O1_3 
REMARK    2  A    between atoms: C5_10  and  O1_3 
REMARK    3  A    between atoms: C3_8  and  O2_4 
REMARK    4  A    between atoms: C1_6  and  C9_14 
REMARK    5  A    between atoms: C5_10  and  C8_13 
REMARK    6  A    between atoms: C10_15  and  C11_16 
ROOT
HETATM    1  N1  UNK     1      15.219   6.656  32.086  1.00  0.00    -0.191 NA
HETATM    2  C9  UNK     1      18.514   6.671  33.105  1.00  0.00     0.036 C 
HETATM    3  C10 UNK     1      17.471   7.541  33.040  1.00  0.00     0.055 C 
HETATM    4  C23 UNK     1      16.228   7.042  32.510  1.00  0.00     0.100 C 
ENDROOT
BRANCH   3   5
HETATM    5  C11 UNK     1      17.543   8.926  33.478  1.00  0.00    -0.015 A 
HETATM    6  C14 UNK     1      16.372   9.666  33.646  1.00  0.00     0.014 A 
HETATM    7  C19 UNK     1      16.442  10.994  34.068  1.00  0.00     0.020 A 
HETATM    8  C21 UNK     1      17.681  11.582  34.320  1.00  0.00     0.011 A 
HETATM    9 Br2  UNK     1      17.775  13.381  34.890  1.00  0.00    -0.051 Br
HETATM   10  C20 UNK     1      18.851  10.842  34.151  1.00  0.00     0.020 A 
HETATM   11  C15 UNK     1      18.782   9.513  33.731  1.00  0.00     0.014 A 
ENDBRANCH   3   5
BRANCH   2  12
HETATM   12  C1  UNK     1      18.483   5.263  32.681  1.00  0.00    -0.015 A 
HETATM   13  C4  UNK     1      18.217   4.313  33.658  1.00  0.00     0.052 A 
HETATM   14  C3  UNK     1      18.177   2.962  33.312  1.00  0.00     0.102 A 
HETATM   15  C2  UNK     1      18.402   2.574  31.992  1.00  0.00     0.103 A 
HETATM   16  C7  UNK     1      18.668   3.535  31.017  1.00  0.00     0.059 A 
HETATM   17  C6  UNK     1      18.708   4.886  31.364  1.00  0.00     0.024 A 
HETATM   18 Br1  UNK     1      19.075   6.145  29.988  1.00  0.00    -0.050 Br
BRANCH  14  19
HETATM   19  O2  UNK     1      17.916   2.032  34.272  1.00  0.00    -0.353 OA
HETATM   20  C22 UNK     1      18.681   2.110  35.474  1.00  0.00     0.210 C 
ENDBRANCH  14  19
BRANCH  15  21
HETATM   21  O1  UNK     1      18.365   1.258  31.642  1.00  0.00    -0.344 OA
BRANCH  21  22
HETATM   22  C5  UNK     1      19.116   0.872  30.492  1.00  0.00     0.214 C 
BRANCH  22  23
HETATM   23  C8  UNK     1      19.728  -0.476  30.737  1.00  0.00    -0.034 A 
HETATM   24  C12 UNK     1      19.773  -0.987  32.029  1.00  0.00     0.009 A 
HETATM   25  C16 UNK     1      20.343  -2.240  32.258  1.00  0.00     0.001 A 
HETATM   26  C18 UNK     1      20.863  -2.974  31.191  1.00  0.00     0.000 A 
HETATM   27  C17 UNK     1      20.814  -2.455  29.898  1.00  0.00     0.001 A 
HETATM   28  C13 UNK     1      20.245  -1.203  29.669  1.00  0.00     0.009 A 
ENDBRANCH  22  23
ENDBRANCH  21  22
ENDBRANCH  15  21
ENDBRANCH   2  12
TORSDOF 6
ENDMDL
MODEL 3
REMARK VINA RESULT:      -8.2      6.324      9.010
REMARK  6 active torsions:
REMARK  status: ('A' for Active; 'I' for Inactive)
REMARK    1  A    between atoms: C2_7  and  O1_3 
REMARK    2  A    between atoms: C5_10  and  O1_3 
REMARK    3  A    between atoms: C3_8  and  O2_4 
REMARK    4  A    between atoms: C1_6  and  C9_14 
REMARK    5  A    between atoms: C5_10  and  C8_13 
REMARK    6  A    between atoms: C10_15  and  C11_16 
ROOT
HETATM    1  N1  UNK     1      18.204   3.346  34.638  1.00  0.00    -0.191 NA
HETATM    2  C9  UNK     1      17.926   5.073  31.666  1.00  0.00     0.036 C 
HETATM    3  C10 UNK     1      18.229   3.814  32.080  1.00  0.00     0.055 C 
HETATM    4  C23 UNK     1      18.212   3.564  33.498  1.00  0.00     0.100 C 
ENDROOT
BRANCH   3   5
HETATM    5  C11 UNK     1      18.557   2.721  31.178  1.00  0.00    -0.015 A 
HETATM    6  C14 UNK     1      18.297   2.842  29.812  1.00  0.00     0.014 A 
HETATM    7  C19 UNK     1      18.612   1.794  28.947  1.00  0.00     0.020 A 
HETATM    8  C21 UNK     1      19.186   0.625  29.447  1.00  0.00     0.011 A 
HETATM    9 Br2  UNK     1      19.612  -0.795  28.275  1.00  0.00    -0.051 Br
HETATM   10  C20 UNK     1      19.445   0.504  30.812  1.00  0.00     0.020 A 
HETATM   11  C15 UNK     1      19.130   1.553  31.678  1.00  0.00     0.014 A 
ENDBRANCH   3   5
BRANCH   2  12
HETATM   12  C1  UNK     1      17.582   6.203  32.542  1.00  0.00    -0.015 A 
HETATM   13  C4  UNK     1      16.232   6.479  32.719  1.00  0.00     0.052 A 
HETATM   14  C3  UNK     1      15.850   7.541  33.539  1.00  0.00     0.102 A 
HETATM   15  C2  UNK     1      16.819   8.317  34.174  1.00  0.00     0.103 A 
HETATM   16  C7  UNK     1      18.172   8.032  33.989  1.00  0.00     0.059 A 
HETATM   17  C6  UNK     1      18.554   6.970  33.169  1.00  0.00     0.024 A 
HETATM   18 Br1  UNK     1      20.414   6.635  32.961  1.00  0.00    -0.050 Br
BRANCH  14  19
HETATM   19  O2  UNK     1      14.526   7.810  33.712  1.00  0.00    -0.353 OA
HETATM   20  C22 UNK     1      13.640   7.406  32.668  1.00  0.00     0.210 C 
ENDBRANCH  14  19
BRANCH  15  21
HETATM   21  O1  UNK     1      16.457   9.356  34.977  1.00  0.00    -0.344 OA
BRANCH  21  22
HETATM   22  C5  UNK     1      16.458  10.658  34.392  1.00  0.00     0.214 C 
BRANCH  22  23
HETATM   23  C8  UNK     1      15.047  11.163  34.320  1.00  0.00    -0.034 A 
HETATM   24  C12 UNK     1      14.396  11.212  33.092  1.00  0.00     0.009 A 
HETATM   25  C16 UNK     1      13.084  11.682  33.024  1.00  0.00     0.001 A 
HETATM   26  C18 UNK     1      12.432  12.099  34.185  1.00  0.00     0.000 A 
HETATM   27  C17 UNK     1      13.091  12.047  35.412  1.00  0.00     0.001 A 
HETATM   28  C13 UNK     1      14.403  11.577  35.481  1.00  0.00     0.009 A 
ENDBRANCH  22  23
ENDBRANCH  21  22
ENDBRANCH  15  21
ENDBRANCH   2  12
TORSDOF 6
ENDMDL
MODEL 4
REMARK VINA RESULT:      -8.1     26.212     28.617
REMARK  6 active torsions:
REMARK  status: ('A' for Active; 'I' for Inactive)
REMARK    1  A    between atoms: C2_7  and  O1_3 
REMARK    2  A    between atoms: C5_10  and  O1_3 
REMARK    3  A    between atoms: C3_8  and  O2_4 
REMARK    4  A    between atoms: C1_6  and  C9_14 
REMARK    5  A    between atoms: C5_10  and  C8_13 
REMARK    6  A    between atoms: C10_15  and  C11_16 
ROOT
HETATM    1  N1  UNK     1      16.048  12.283  11.516  1.00  0.00    -0.191 NA
HETATM    2  C9  UNK     1      17.650  10.039   9.444  1.00  0.00     0.036 C 
HETATM    3  C10 UNK     1      17.952  11.167  10.141  1.00  0.00     0.055 C 
HETATM    4  C23 UNK     1      16.891  11.778  10.899  1.00  0.00     0.100 C 
ENDROOT
BRANCH   3   5
HETATM    5  C11 UNK     1      19.273  11.775  10.165  1.00  0.00    -0.015 A 
HETATM    6  C14 UNK     1      19.778  12.300  11.354  1.00  0.00     0.014 A 
HETATM    7  C19 UNK     1      21.046  12.882  11.378  1.00  0.00     0.020 A 
HETATM    8  C21 UNK     1      21.808  12.938  10.211  1.00  0.00     0.011 A 
HETATM    9 Br2  UNK     1      23.526  13.726  10.242  1.00  0.00    -0.051 Br
HETATM   10  C20 UNK     1      21.304  12.413   9.022  1.00  0.00     0.020 A 
HETATM   11  C15 UNK     1      20.036  11.830   8.999  1.00  0.00     0.014 A 
ENDBRANCH   3   5
BRANCH   2  12
HETATM   12  C1  UNK     1      16.332   9.388   9.398  1.00  0.00    -0.015 A 
HETATM   13  C4  UNK     1      16.162   8.246  10.169  1.00  0.00     0.052 A 
HETATM   14  C3  UNK     1      14.932   7.588  10.163  1.00  0.00     0.102 A 
HETATM   15  C2  UNK     1      13.883   8.077   9.385  1.00  0.00     0.103 A 
HETATM   16  C7  UNK     1      14.063   9.225   8.613  1.00  0.00     0.059 A 
HETATM   17  C6  UNK     1      15.294   9.883   8.621  1.00  0.00     0.024 A 
HETATM   18 Br1  UNK     1      15.472  11.442   7.547  1.00  0.00    -0.050 Br
BRANCH  14  19
HETATM   19  O2  UNK     1      14.768   6.467  10.920  1.00  0.00    -0.353 OA
HETATM   20  C22 UNK     1      15.051   5.216  10.296  1.00  0.00     0.210 C 
ENDBRANCH  14  19
BRANCH  15  21
HETATM   21  O1  UNK     1      12.678   7.442   9.371  1.00  0.00    -0.344 OA
BRANCH  21  22
HETATM   22  C5  UNK     1      11.541   8.221   9.001  1.00  0.00     0.214 C 
BRANCH  22  23
HETATM   23  C8  UNK     1      10.736   7.461   7.988  1.00  0.00    -0.034 A 
HETATM   24  C12 UNK     1       9.412   7.137   8.263  1.00  0.00     0.009 A 
HETATM   25  C16 UNK     1       8.663   6.431   7.321  1.00  0.00     0.001 A 
HETATM   26  C18 UNK     1       9.244   6.054   6.110  1.00  0.00     0.000 A 
HETATM   27  C17 UNK     1      10.572   6.382   5.841  1.00  0.00     0.001 A 
HETATM   28  C13 UNK     1      11.321   7.089   6.782  1.00  0.00     0.009 A 
ENDBRANCH  22  23
ENDBRANCH  21  22
ENDBRANCH  15  21
ENDBRANCH   2  12
TORSDOF 6
ENDMDL
MODEL 5
REMARK VINA RESULT:      -8.1     26.560     28.671
REMARK  6 active torsions:
REMARK  status: ('A' for Active; 'I' for Inactive)
REMARK    1  A    between atoms: C2_7  and  O1_3 
REMARK    2  A    between atoms: C5_10  and  O1_3 
REMARK    3  A    between atoms: C3_8  and  O2_4 
REMARK    4  A    between atoms: C1_6  and  C9_14 
REMARK    5  A    between atoms: C5_10  and  C8_13 
REMARK    6  A    between atoms: C10_15  and  C11_16 
ROOT
HETATM    1  N1  UNK     1      15.965  11.563   7.418  1.00  0.00    -0.191 NA
HETATM    2  C9  UNK     1      17.011  10.044  10.332  1.00  0.00     0.036 C 
HETATM    3  C10 UNK     1      17.482  10.958   9.442  1.00  0.00     0.055 C 
HETATM    4  C23 UNK     1      16.634  11.287   8.325  1.00  0.00     0.100 C 
ENDROOT
BRANCH   3   5
HETATM    5  C11 UNK     1      18.772  11.617   9.563  1.00  0.00    -0.015 A 
HETATM    6  C14 UNK     1      19.563  11.816   8.432  1.00  0.00     0.014 A 
HETATM    7  C19 UNK     1      20.801  12.448   8.548  1.00  0.00     0.020 A 
HETATM    8  C21 UNK     1      21.248  12.882   9.796  1.00  0.00     0.011 A 
HETATM    9 Br2  UNK     1      22.925  13.739   9.955  1.00  0.00    -0.051 Br
HETATM   10  C20 UNK     1      20.457  12.683  10.927  1.00  0.00     0.020 A 
HETATM   11  C15 UNK     1      19.219  12.050  10.811  1.00  0.00     0.014 A 
ENDBRANCH   3   5
BRANCH   2  12
HETATM   12  C1  UNK     1      15.712   9.361  10.252  1.00  0.00    -0.015 A 
HETATM   13  C4  UNK     1      15.700   8.085   9.702  1.00  0.00     0.052 A 
HETATM   14  C3  UNK     1      14.495   7.390   9.602  1.00  0.00     0.102 A 
HETATM   15  C2  UNK     1      13.312   7.977  10.051  1.00  0.00     0.103 A 
HETATM   16  C7  UNK     1      13.333   9.258  10.602  1.00  0.00     0.059 A 
HETATM   17  C6  UNK     1      14.540   9.953  10.703  1.00  0.00     0.024 A 
HETATM   18 Br1  UNK     1      14.499  11.695  11.463  1.00  0.00    -0.050 Br
BRANCH  14  19
HETATM   19  O2  UNK     1      14.485   6.140   9.062  1.00  0.00    -0.353 OA
HETATM   20  C22 UNK     1      14.923   5.070   9.899  1.00  0.00     0.210 C 
ENDBRANCH  14  19
BRANCH  15  21
HETATM   21  O1  UNK     1      12.128   7.308   9.958  1.00  0.00    -0.344 OA
BRANCH  21  22
HETATM   22  C5  UNK     1      11.029   8.014   9.385  1.00  0.00     0.214 C 
BRANCH  22  23
HETATM   23  C8  UNK     1      10.592   7.308   8.135  1.00  0.00    -0.034 A 
HETATM   24  C12 UNK     1      11.520   7.046   7.132  1.00  0.00     0.009 A 
HETATM   25  C16 UNK     1      11.114   6.390   5.970  1.00  0.00     0.001 A 
HETATM   26  C18 UNK     1       9.784   5.999   5.818  1.00  0.00     0.000 A 
HETATM   27  C17 UNK     1       8.859   6.264   6.827  1.00  0.00     0.001 A 
HETATM   28  C13 UNK     1       9.264   6.920   7.990  1.00  0.00     0.009 A 
ENDBRANCH  22  23
ENDBRANCH  21  22
ENDBRANCH  15  21
ENDBRANCH   2  12
TORSDOF 6
ENDMDL
MODEL 6
REMARK VINA RESULT:      -8.1     26.721     28.618
REMARK  6 active torsions:
REMARK  status: ('A' for Active; 'I' for Inactive)
REMARK    1  A    between atoms: C2_7  and  O1_3 
REMARK    2  A    between atoms: C5_10  and  O1_3 
REMARK    3  A    between atoms: C3_8  and  O2_4 
REMARK    4  A    between atoms: C1_6  and  C9_14 
REMARK    5  A    between atoms: C5_10  and  C8_13 
REMARK    6  A    between atoms: C10_15  and  C11_16 
ROOT
HETATM    1  N1  UNK     1      15.282  10.877   7.541  1.00  0.00    -0.191 NA
HETATM    2  C9  UNK     1      16.867   9.383  10.214  1.00  0.00     0.036 C 
HETATM    3  C10 UNK     1      17.081  10.421   9.362  1.00  0.00     0.055 C 
HETATM    4  C23 UNK     1      16.079  10.666   8.357  1.00  0.00     0.100 C 
ENDROOT
BRANCH   3   5
HETATM    5  C11 UNK     1      18.247  11.288   9.418  1.00  0.00    -0.015 A 
HETATM    6  C14 UNK     1      18.617  11.884  10.624  1.00  0.00     0.014 A 
HETATM    7  C19 UNK     1      19.736  12.715  10.677  1.00  0.00     0.020 A 
HETATM    8  C21 UNK     1      20.485  12.949   9.525  1.00  0.00     0.011 A 
HETATM    9 Br2  UNK     1      22.002  14.076   9.596  1.00  0.00    -0.051 Br
HETATM   10  C20 UNK     1      20.116  12.354   8.319  1.00  0.00     0.020 A 
HETATM   11  C15 UNK     1      18.997  11.522   8.266  1.00  0.00     0.014 A 
ENDBRANCH   3   5
BRANCH   2  12
HETATM   12  C1  UNK     1      15.701   8.488  10.198  1.00  0.00    -0.015 A 
HETATM   13  C4  UNK     1      14.469   9.047  10.513  1.00  0.00     0.052 A 
HETATM   14  C3  UNK     1      13.329   8.243  10.514  1.00  0.00     0.102 A 
HETATM   15  C2  UNK     1      13.430   6.888  10.200  1.00  0.00     0.103 A 
HETATM   16  C7  UNK     1      14.671   6.336   9.885  1.00  0.00     0.059 A 
HETATM   17  C6  UNK     1      15.812   7.140   9.884  1.00  0.00     0.024 A 
HETATM   18 Br1  UNK     1      17.472   6.325   9.446  1.00  0.00    -0.050 Br
BRANCH  14  19
HETATM   19  O2  UNK     1      12.121   8.794  10.823  1.00  0.00    -0.353 OA
HETATM   20  C22 UNK     1      11.377   9.368   9.750  1.00  0.00     0.210 C 
ENDBRANCH  14  19
BRANCH  15  21
HETATM   21  O1  UNK     1      12.323   6.094  10.198  1.00  0.00    -0.344 OA
BRANCH  21  22
HETATM   22  C5  UNK     1      12.207   5.148   9.135  1.00  0.00     0.214 C 
BRANCH  22  23
HETATM   23  C8  UNK     1      11.181   5.637   8.156  1.00  0.00    -0.034 A 
HETATM   24  C12 UNK     1       9.895   5.931   8.596  1.00  0.00     0.009 A 
HETATM   25  C16 UNK     1       8.940   6.385   7.685  1.00  0.00     0.001 A 
HETATM   26  C18 UNK     1       9.279   6.542   6.341  1.00  0.00     0.000 A 
HETATM   27  C17 UNK     1      10.570   6.245   5.907  1.00  0.00     0.001 A 
HETATM   28  C13 UNK     1      11.525   5.792   6.817  1.00  0.00     0.009 A 
ENDBRANCH  22  23
ENDBRANCH  21  22
ENDBRANCH  15  21
ENDBRANCH   2  12
TORSDOF 6
ENDMDL
MODEL 7
REMARK VINA RESULT:      -8.0      1.901      2.804
REMARK  6 active torsions:
REMARK  status: ('A' for Active; 'I' for Inactive)
REMARK    1  A    between atoms: C2_7  and  O1_3 
REMARK    2  A    between atoms: C5_10  and  O1_3 
REMARK    3  A    between atoms: C3_8  and  O2_4 
REMARK    4  A    between atoms: C1_6  and  C9_14 
REMARK    5  A    between atoms: C5_10  and  C8_13 
REMARK    6  A    between atoms: C10_15  and  C11_16 
ROOT
HETATM    1  N1  UNK     1      22.102  -1.601  35.572  1.00  0.00    -0.191 NA
HETATM    2  C9  UNK     1      18.749  -2.394  35.706  1.00  0.00     0.036 C 
HETATM    3  C10 UNK     1      19.944  -3.019  35.876  1.00  0.00     0.055 C 
HETATM    4  C23 UNK     1      21.133  -2.225  35.706  1.00  0.00     0.100 C 
ENDROOT
BRANCH   3   5
HETATM    5  C11 UNK     1      20.081  -4.424  36.225  1.00  0.00    -0.015 A 
HETATM    6  C14 UNK     1      20.376  -4.792  37.538  1.00  0.00     0.014 A 
HETATM    7  C19 UNK     1      20.506  -6.140  37.872  1.00  0.00     0.020 A 
HETATM    8  C21 UNK     1      20.341  -7.120  36.893  1.00  0.00     0.011 A 
HETATM    9 Br2  UNK     1      20.518  -8.947  37.345  1.00  0.00    -0.051 Br
HETATM   10  C20 UNK     1      20.047  -6.753  35.581  1.00  0.00     0.020 A 
HETATM   11  C15 UNK     1      19.916  -5.404  35.246  1.00  0.00     0.014 A 
ENDBRANCH   3   5
BRANCH   2  12
HETATM   12  C1  UNK     1      18.565  -0.976  35.361  1.00  0.00    -0.015 A 
HETATM   13  C4  UNK     1      18.245  -0.109  36.398  1.00  0.00     0.052 A 
HETATM   14  C3  UNK     1      18.059   1.247  36.128  1.00  0.00     0.102 A 
HETATM   15  C2  UNK     1      18.193   1.723  34.824  1.00  0.00     0.103 A 
HETATM   16  C7  UNK     1      18.515   0.845  33.790  1.00  0.00     0.059 A 
HETATM   17  C6  UNK     1      18.701  -0.511  34.061  1.00  0.00     0.024 A 
HETATM   18 Br1  UNK     1      19.138  -1.654  32.605  1.00  0.00    -0.050 Br
BRANCH  14  19
HETATM   19  O2  UNK     1      17.745   2.096  37.146  1.00  0.00    -0.353 OA
HETATM   20  C22 UNK     1      17.615   1.526  38.448  1.00  0.00     0.210 C 
ENDBRANCH  14  19
BRANCH  15  21
HETATM   21  O1  UNK     1      18.014   3.046  34.549  1.00  0.00    -0.344 OA
BRANCH  21  22
HETATM   22  C5  UNK     1      18.203   3.457  33.196  1.00  0.00     0.214 C 
BRANCH  22  23
HETATM   23  C8  UNK     1      18.288   4.954  33.146  1.00  0.00    -0.034 A 
HETATM   24  C12 UNK     1      19.321   5.607  33.809  1.00  0.00     0.009 A 
HETATM   25  C16 UNK     1      19.400   7.000  33.764  1.00  0.00     0.001 A 
HETATM   26  C18 UNK     1      18.445   7.729  33.055  1.00  0.00     0.000 A 
HETATM   27  C17 UNK     1      17.412   7.067  32.393  1.00  0.00     0.001 A 
HETATM   28  C13 UNK     1      17.333   5.675  32.437  1.00  0.00     0.009 A 
ENDBRANCH  22  23
ENDBRANCH  21  22
ENDBRANCH  15  21
ENDBRANCH   2  12
TORSDOF 6
ENDMDL
MODEL 8
REMARK VINA RESULT:      -7.8      2.897      9.714
REMARK  6 active torsions:
REMARK  status: ('A' for Active; 'I' for Inactive)
REMARK    1  A    between atoms: C2_7  and  O1_3 
REMARK    2  A    between atoms: C5_10  and  O1_3 
REMARK    3  A    between atoms: C3_8  and  O2_4 
REMARK    4  A    between atoms: C1_6  and  C9_14 
REMARK    5  A    between atoms: C5_10  and  C8_13 
REMARK    6  A    between atoms: C10_15  and  C11_16 
ROOT
HETATM    1  N1  UNK     1      20.210   2.698  36.544  1.00  0.00    -0.191 NA
HETATM    2  C9  UNK     1      18.088   1.181  34.289  1.00  0.00     0.036 C 
HETATM    3  C10 UNK     1      18.568   2.427  34.547  1.00  0.00     0.055 C 
HETATM    4  C23 UNK     1      19.477   2.567  35.655  1.00  0.00     0.100 C 
ENDROOT
BRANCH   3   5
HETATM    5  C11 UNK     1      18.222   3.605  33.768  1.00  0.00    -0.015 A 
HETATM    6  C14 UNK     1      18.103   3.515  32.381  1.00  0.00     0.014 A 
HETATM    7  C19 UNK     1      17.770   4.645  31.634  1.00  0.00     0.020 A 
HETATM    8  C21 UNK     1      17.557   5.866  32.275  1.00  0.00     0.011 A 
HETATM    9 Br2  UNK     1      17.107   7.398  31.263  1.00  0.00    -0.051 Br
HETATM   10  C20 UNK     1      17.676   5.956  33.661  1.00  0.00     0.020 A 
HETATM   11  C15 UNK     1      18.008   4.826  34.408  1.00  0.00     0.014 A 
ENDBRANCH   3   5
BRANCH   2  12
HETATM   12  C1  UNK     1      18.417  -0.037  35.045  1.00  0.00    -0.015 A 
HETATM   13  C4  UNK     1      19.374  -0.882  34.499  1.00  0.00     0.052 A 
HETATM   14  C3  UNK     1      19.724  -2.052  35.173  1.00  0.00     0.102 A 
HETATM   15  C2  UNK     1      19.114  -2.367  36.387  1.00  0.00     0.103 A 
HETATM   16  C7  UNK     1      18.154  -1.512  36.927  1.00  0.00     0.059 A 
HETATM   17  C6  UNK     1      17.804  -0.341  36.252  1.00  0.00     0.024 A 
HETATM   18 Br1  UNK     1      16.489   0.779  37.044  1.00  0.00    -0.050 Br
BRANCH  14  19
HETATM   19  O2  UNK     1      20.664  -2.879  34.635  1.00  0.00    -0.353 OA
HETATM   20  C22 UNK     1      20.886  -2.780  33.229  1.00  0.00     0.210 C 
ENDBRANCH  14  19
BRANCH  15  21
HETATM   21  O1  UNK     1      19.448  -3.506  37.054  1.00  0.00    -0.344 OA
BRANCH  21  22
HETATM   22  C5  UNK     1      19.083  -4.744  36.446  1.00  0.00     0.214 C 
BRANCH  22  23
HETATM   23  C8  UNK     1      19.404  -5.867  37.388  1.00  0.00    -0.034 A 
HETATM   24  C12 UNK     1      18.647  -7.033  37.353  1.00  0.00     0.009 A 
HETATM   25  C16 UNK     1      18.947  -8.077  38.229  1.00  0.00     0.001 A 
HETATM   26  C18 UNK     1      20.001  -7.947  39.133  1.00  0.00     0.000 A 
HETATM   27  C17 UNK     1      20.756  -6.776  39.162  1.00  0.00     0.001 A 
HETATM   28  C13 UNK     1      20.458  -5.732  38.286  1.00  0.00     0.009 A 
ENDBRANCH  22  23
ENDBRANCH  21  22
ENDBRANCH  15  21
ENDBRANCH   2  12
TORSDOF 6
ENDMDL
MODEL 9
REMARK VINA RESULT:      -7.8     10.484     12.948
REMARK  6 active torsions:
REMARK  status: ('A' for Active; 'I' for Inactive)
REMARK    1  A    between atoms: C2_7  and  O1_3 
REMARK    2  A    between atoms: C5_10  and  O1_3 
REMARK    3  A    between atoms: C3_8  and  O2_4 
REMARK    4  A    between atoms: C1_6  and  C9_14 
REMARK    5  A    between atoms: C5_10  and  C8_13 
REMARK    6  A    between atoms: C10_15  and  C11_16 
ROOT
HETATM    1  N1  UNK     1      26.425  -5.888  39.039  1.00  0.00    -0.191 NA
HETATM    2  C9  UNK     1      26.153  -9.044  37.677  1.00  0.00     0.036 C 
HETATM    3  C10 UNK     1      25.330  -8.082  38.174  1.00  0.00     0.055 C 
HETATM    4  C23 UNK     1      25.946  -6.871  38.650  1.00  0.00     0.100 C 
ENDROOT
BRANCH   3   5
HETATM    5  C11 UNK     1      23.883  -8.208  38.240  1.00  0.00    -0.015 A 
HETATM    6  C14 UNK     1      23.188  -7.707  39.340  1.00  0.00     0.014 A 
HETATM    7  C19 UNK     1      21.800  -7.827  39.403  1.00  0.00     0.020 A 
HETATM    8  C21 UNK     1      21.107  -8.450  38.365  1.00  0.00     0.011 A 
HETATM    9 Br2  UNK     1      19.226  -8.615  38.450  1.00  0.00    -0.051 Br
HETATM   10  C20 UNK     1      21.801  -8.952  37.265  1.00  0.00     0.020 A 
HETATM   11  C15 UNK     1      23.190  -8.831  37.202  1.00  0.00     0.014 A 
ENDBRANCH   3   5
BRANCH   2  12
HETATM   12  C1  UNK     1      27.618  -8.955  37.584  1.00  0.00    -0.015 A 
HETATM   13  C4  UNK     1      28.147  -8.391  36.430  1.00  0.00     0.052 A 
HETATM   14  C3  UNK     1      29.530  -8.282  36.289  1.00  0.00     0.102 A 
HETATM   15  C2  UNK     1      30.372  -8.738  37.302  1.00  0.00     0.103 A 
HETATM   16  C7  UNK     1      29.832  -9.301  38.458  1.00  0.00     0.059 A 
HETATM   17  C6  UNK     1      28.448  -9.410  38.599  1.00  0.00     0.024 A 
HETATM   18 Br1  UNK     1      27.778 -10.188  40.199  1.00  0.00    -0.050 Br
BRANCH  14  19
HETATM   19  O2  UNK     1      30.046  -7.730  35.156  1.00  0.00    -0.353 OA
HETATM   20  C22 UNK     1      29.669  -6.386  34.859  1.00  0.00     0.210 C 
ENDBRANCH  14  19
BRANCH  15  21
HETATM   21  O1  UNK     1      31.725  -8.636  37.176  1.00  0.00    -0.344 OA
BRANCH  21  22
HETATM   22  C5  UNK     1      32.396  -7.757  38.078  1.00  0.00     0.214 C 
BRANCH  22  23
HETATM   23  C8  UNK     1      32.172  -6.340  37.638  1.00  0.00    -0.034 A 
HETATM   24  C12 UNK     1      32.952  -5.805  36.619  1.00  0.00     0.009 A 
HETATM   25  C16 UNK     1      32.744  -4.487  36.210  1.00  0.00     0.001 A 
HETATM   26  C18 UNK     1      31.757  -3.715  36.823  1.00  0.00     0.000 A 
HETATM   27  C17 UNK     1      30.979  -4.258  37.844  1.00  0.00     0.001 A 
HETATM   28  C13 UNK     1      31.186  -5.576  38.253  1.00  0.00     0.009 A 
ENDBRANCH  22  23
ENDBRANCH  21  22
ENDBRANCH  15  21
ENDBRANCH   2  12
TORSDOF 6
ENDMDL
MODEL 10
REMARK VINA RESULT:      -7.7     11.588     13.934
REMARK  6 active torsions:
REMARK  status: ('A' for Active; 'I' for Inactive)
REMARK    1  A    between atoms: C2_7  and  O1_3 
REMARK    2  A    between atoms: C5_10  and  O1_3 
REMARK    3  A    between atoms: C3_8  and  O2_4 
REMARK    4  A    between atoms: C1_6  and  C9_14 
REMARK    5  A    between atoms: C5_10  and  C8_13 
REMARK    6  A    between atoms: C10_15  and  C11_16 
ROOT
HETATM    1  N1  UNK     1      27.374 -10.024  39.870  1.00  0.00    -0.191 NA
HETATM    2  C9  UNK     1      27.508  -8.465  36.797  1.00  0.00     0.036 C 
HETATM    3  C10 UNK     1      26.656  -9.270  37.487  1.00  0.00     0.055 C 
HETATM    4  C23 UNK     1      27.062  -9.682  38.806  1.00  0.00     0.100 C 
ENDROOT
BRANCH   3   5
HETATM    5  C11 UNK     1      25.373  -9.722  36.973  1.00  0.00    -0.015 A 
HETATM    6  C14 UNK     1      25.278 -10.947  36.315  1.00  0.00     0.014 A 
HETATM    7  C19 UNK     1      24.047 -11.381  35.823  1.00  0.00     0.020 A 
HETATM    8  C21 UNK     1      22.911 -10.589  35.989  1.00  0.00     0.011 A 
HETATM    9 Br2  UNK     1      21.242 -11.175  35.322  1.00  0.00    -0.051 Br
HETATM   10  C20 UNK     1      23.006  -9.363  36.647  1.00  0.00     0.020 A 
HETATM   11  C15 UNK     1      24.238  -8.929  37.140  1.00  0.00     0.014 A 
ENDBRANCH   3   5
BRANCH   2  12
HETATM   12  C1  UNK     1      28.809  -7.979  37.280  1.00  0.00    -0.015 A 
HETATM   13  C4  UNK     1      29.935  -8.698  36.899  1.00  0.00     0.052 A 
HETATM   14  C3  UNK     1      31.195  -8.282  37.329  1.00  0.00     0.102 A 
HETATM   15  C2  UNK     1      31.318  -7.152  38.137  1.00  0.00     0.103 A 
HETATM   16  C7  UNK     1      30.182  -6.437  38.515  1.00  0.00     0.059 A 
HETATM   17  C6  UNK     1      28.922  -6.853  38.084  1.00  0.00     0.024 A 
HETATM   18 Br1  UNK     1      27.415  -5.833  38.635  1.00  0.00    -0.050 Br
BRANCH  14  19
HETATM   19  O2  UNK     1      32.297  -8.989  36.954  1.00  0.00    -0.353 OA
HETATM   20  C22 UNK     1      32.715  -8.864  35.595  1.00  0.00     0.210 C 
ENDBRANCH  14  19
BRANCH  15  21
HETATM   21  O1  UNK     1      32.544  -6.737  38.563  1.00  0.00    -0.344 OA
BRANCH  21  22
HETATM   22  C5  UNK     1      32.903  -5.385  38.283  1.00  0.00     0.214 C 
BRANCH  22  23
HETATM   23  C8  UNK     1      33.586  -5.326  36.948  1.00  0.00    -0.034 A 
HETATM   24  C12 UNK     1      33.014  -4.596  35.913  1.00  0.00     0.009 A 
HETATM   25  C16 UNK     1      33.649  -4.542  34.672  1.00  0.00     0.001 A 
HETATM   26  C18 UNK     1      34.853  -5.218  34.475  1.00  0.00     0.000 A 
HETATM   27  C17 UNK     1      35.421  -5.949  35.518  1.00  0.00     0.001 A 
HETATM   28  C13 UNK     1      34.787  -6.003  36.759  1.00  0.00     0.009 A 
ENDBRANCH  22  23
ENDBRANCH  21  22
ENDBRANCH  15  21
ENDBRANCH   2  12
TORSDOF 6
ENDMDL
