MODEL 1
REMARK VINA RESULT:      -8.4      0.000      0.000
REMARK  3 active torsions:
REMARK  status: ('A' for Active; 'I' for Inactive)
REMARK    1  A    between atoms: C5_10  and  N1_4 
REMARK       I    between atoms: C6_11  and  N2_5 
REMARK    2  A    between atoms: C5_10  and  C8_13 
REMARK    3  A    between atoms: C6_11  and  C7_12 
ROOT
HETATM    1  O2  UNK     1      18.669   0.518  32.155  1.00  0.00    -0.274 OA
HETATM    2  O3  UNK     1      17.662   2.550  32.427  1.00  0.00    -0.259 OA
HETATM    3  C7  UNK     1      18.819   2.203  30.388  1.00  0.00     0.108 A 
HETATM    4  C9  UNK     1      19.548   1.379  29.627  1.00  0.00     0.037 A 
HETATM    5  C10 UNK     1      19.885   0.046  30.103  1.00  0.00    -0.001 A 
HETATM    6  C11 UNK     1      18.332   1.799  31.727  1.00  0.00     0.304 A 
HETATM    7  C12 UNK     1      19.436  -0.354  31.358  1.00  0.00     0.089 A 
HETATM    8  C14 UNK     1      20.644  -0.847  29.343  1.00  0.00     0.014 A 
HETATM    9  C15 UNK     1      19.724  -1.616  31.872  1.00  0.00     0.038 A 
HETATM   10  C16 UNK     1      20.940  -2.117  29.845  1.00  0.00     0.001 A 
HETATM   11  C17 UNK     1      20.481  -2.501  31.107  1.00  0.00     0.003 A 
ENDROOT
BRANCH   3  12
HETATM   12  C6  UNK     1      18.530   3.534  29.817  1.00  0.00     0.260 C 
HETATM   13  N2  UNK     1      18.913   4.652  30.556  1.00  0.00    -0.344 N 
HETATM   14  C3  UNK     1      18.647   5.986  30.014  1.00  0.00     0.156 C 
HETATM   15  C4  UNK     1      19.696   4.642  31.798  1.00  0.00     0.156 C 
HETATM   16  C1  UNK     1      18.100   6.933  31.079  1.00  0.00     0.292 C 
HETATM   17  N1  UNK     1      19.000   6.978  32.238  1.00  0.00     0.095 N 
HETATM   18  C2  UNK     1      19.144   5.638  32.822  1.00  0.00     0.292 C 
HETATM   19  O1  UNK     1      17.974   3.575  28.719  1.00  0.00    -0.267 OA
BRANCH  17  20
HETATM   20  C5  UNK     1      18.504   7.923  33.239  1.00  0.00     0.299 C 
BRANCH  20  21
HETATM   21  C8  UNK     1      19.490   8.119  34.349  1.00  0.00    -0.007 C 
HETATM   22  C13 UNK     1      20.255   9.208  34.486  1.00  0.00     0.008 C 
ENDBRANCH  20  21
ENDBRANCH  17  20
ENDBRANCH   3  12
TORSDOF 3
ENDMDL
MODEL 2
REMARK VINA RESULT:      -8.4     22.033     23.996
REMARK  3 active torsions:
REMARK  status: ('A' for Active; 'I' for Inactive)
REMARK    1  A    between atoms: C5_10  and  N1_4 
REMARK       I    between atoms: C6_11  and  N2_5 
REMARK    2  A    between atoms: C5_10  and  C8_13 
REMARK    3  A    between atoms: C6_11  and  C7_12 
ROOT
HETATM    1  O2  UNK     1      10.698   5.543   9.321  1.00  0.00    -0.274 OA
HETATM    2  O3  UNK     1      12.247   5.140  10.952  1.00  0.00    -0.259 OA
HETATM    3  C7  UNK     1      13.078   5.850   8.850  1.00  0.00     0.108 A 
HETATM    4  C9  UNK     1      12.809   6.223   7.594  1.00  0.00     0.037 A 
HETATM    5  C10 UNK     1      11.433   6.278   7.123  1.00  0.00    -0.001 A 
HETATM    6  C11 UNK     1      12.004   5.482   9.800  1.00  0.00     0.304 A 
HETATM    7  C12 UNK     1      10.408   5.936   8.000  1.00  0.00     0.089 A 
HETATM    8  C14 UNK     1      11.105   6.661   5.821  1.00  0.00     0.014 A 
HETATM    9  C15 UNK     1       9.070   5.967   7.613  1.00  0.00     0.038 A 
HETATM   10  C16 UNK     1       9.767   6.698   5.418  1.00  0.00     0.001 A 
HETATM   11  C17 UNK     1       8.752   6.351   6.312  1.00  0.00     0.003 A 
ENDROOT
BRANCH   3  12
HETATM   12  C6  UNK     1      14.505   5.827   9.232  1.00  0.00     0.260 C 
HETATM   13  N2  UNK     1      15.022   6.953   9.869  1.00  0.00    -0.344 N 
HETATM   14  C3  UNK     1      16.431   6.959  10.267  1.00  0.00     0.156 C 
HETATM   15  C4  UNK     1      14.256   8.123  10.318  1.00  0.00     0.156 C 
HETATM   16  C1  UNK     1      17.109   8.286   9.938  1.00  0.00     0.292 C 
HETATM   17  N1  UNK     1      16.364   9.405  10.531  1.00  0.00     0.095 N 
HETATM   18  C2  UNK     1      14.990   9.431  10.012  1.00  0.00     0.292 C 
HETATM   19  O1  UNK     1      15.149   4.811   8.971  1.00  0.00    -0.267 OA
BRANCH  17  20
HETATM   20  C5  UNK     1      17.040  10.674  10.259  1.00  0.00     0.299 C 
BRANCH  20  21
HETATM   21  C8  UNK     1      17.443  10.787   8.821  1.00  0.00    -0.007 C 
HETATM   22  C13 UNK     1      18.550  11.411   8.401  1.00  0.00     0.008 C 
ENDBRANCH  20  21
ENDBRANCH  17  20
ENDBRANCH   3  12
TORSDOF 3
ENDMDL
MODEL 3
REMARK VINA RESULT:      -8.3     22.815     24.561
REMARK  3 active torsions:
REMARK  status: ('A' for Active; 'I' for Inactive)
REMARK    1  A    between atoms: C5_10  and  N1_4 
REMARK       I    between atoms: C6_11  and  N2_5 
REMARK    2  A    between atoms: C5_10  and  C8_13 
REMARK    3  A    between atoms: C6_11  and  C7_12 
ROOT
HETATM    1  O2  UNK     1      11.233   7.472   9.596  1.00  0.00    -0.274 OA
HETATM    2  O3  UNK     1      12.756   8.115  11.172  1.00  0.00    -0.259 OA
HETATM    3  C7  UNK     1      13.616   7.504   9.050  1.00  0.00     0.108 A 
HETATM    4  C9  UNK     1      13.365   7.080   7.806  1.00  0.00     0.037 A 
HETATM    5  C10 UNK     1      11.997   6.824   7.381  1.00  0.00    -0.001 A 
HETATM    6  C11 UNK     1      12.530   7.726  10.032  1.00  0.00     0.304 A 
HETATM    7  C12 UNK     1      10.961   7.027   8.288  1.00  0.00     0.089 A 
HETATM    8  C14 UNK     1      11.688   6.381   6.093  1.00  0.00     0.014 A 
HETATM    9  C15 UNK     1       9.630   6.800   7.945  1.00  0.00     0.038 A 
HETATM   10  C16 UNK     1      10.357   6.149   5.734  1.00  0.00     0.001 A 
HETATM   11  C17 UNK     1       9.331   6.358   6.658  1.00  0.00     0.003 A 
ENDROOT
BRANCH   3  12
HETATM   12  C6  UNK     1      15.036   7.736   9.386  1.00  0.00     0.260 C 
HETATM   13  N2  UNK     1      15.495   9.052   9.379  1.00  0.00    -0.344 N 
HETATM   14  C3  UNK     1      16.896   9.317   9.715  1.00  0.00     0.156 C 
HETATM   15  C4  UNK     1      14.674  10.255   9.195  1.00  0.00     0.156 C 
HETATM   16  C1  UNK     1      17.524  10.336   8.768  1.00  0.00     0.292 C 
HETATM   17  N1  UNK     1      16.723  11.567   8.733  1.00  0.00     0.095 N 
HETATM   18  C2  UNK     1      15.359  11.271   8.277  1.00  0.00     0.292 C 
HETATM   19  O1  UNK     1      15.726   6.754   9.658  1.00  0.00    -0.267 OA
BRANCH  17  20
HETATM   20  C5  UNK     1      17.350  12.564   7.865  1.00  0.00     0.299 C 
BRANCH  20  21
HETATM   21  C8  UNK     1      18.519  11.991   7.123  1.00  0.00    -0.007 C 
HETATM   22  C13 UNK     1      18.794  12.259   5.841  1.00  0.00     0.008 C 
ENDBRANCH  20  21
ENDBRANCH  17  20
ENDBRANCH   3  12
TORSDOF 3
ENDMDL
MODEL 4
REMARK VINA RESULT:      -8.3      4.723      8.057
REMARK  3 active torsions:
REMARK  status: ('A' for Active; 'I' for Inactive)
REMARK    1  A    between atoms: C5_10  and  N1_4 
REMARK       I    between atoms: C6_11  and  N2_5 
REMARK    2  A    between atoms: C5_10  and  C8_13 
REMARK    3  A    between atoms: C6_11  and  C7_12 
ROOT
HETATM    1  O2  UNK     1      18.690   1.215  31.860  1.00  0.00    -0.274 OA
HETATM    2  O3  UNK     1      17.629   1.708  33.822  1.00  0.00    -0.259 OA
HETATM    3  C7  UNK     1      18.372  -0.525  33.549  1.00  0.00     0.108 A 
HETATM    4  C9  UNK     1      18.986  -1.427  32.774  1.00  0.00     0.037 A 
HETATM    5  C10 UNK     1      19.498  -1.044  31.468  1.00  0.00    -0.001 A 
HETATM    6  C11 UNK     1      18.190   0.879  33.115  1.00  0.00     0.304 A 
HETATM    7  C12 UNK     1      19.338   0.271  31.041  1.00  0.00     0.089 A 
HETATM    8  C14 UNK     1      20.145  -1.952  30.625  1.00  0.00     0.014 A 
HETATM    9  C15 UNK     1      19.804   0.702  29.801  1.00  0.00     0.038 A 
HETATM   10  C16 UNK     1      20.619  -1.534  29.379  1.00  0.00     0.001 A 
HETATM   11  C17 UNK     1      20.449  -0.210  28.967  1.00  0.00     0.003 A 
ENDROOT
BRANCH   3  12
HETATM   12  C6  UNK     1      17.888  -1.010  34.857  1.00  0.00     0.260 C 
HETATM   13  N2  UNK     1      18.826  -1.552  35.734  1.00  0.00    -0.344 N 
HETATM   14  C3  UNK     1      18.380  -2.035  37.042  1.00  0.00     0.156 C 
HETATM   15  C4  UNK     1      20.281  -1.575  35.538  1.00  0.00     0.156 C 
HETATM   16  C1  UNK     1      19.015  -3.377  37.399  1.00  0.00     0.292 C 
HETATM   17  N1  UNK     1      20.479  -3.291  37.313  1.00  0.00     0.095 N 
HETATM   18  C2  UNK     1      20.886  -2.919  35.952  1.00  0.00     0.292 C 
HETATM   19  O1  UNK     1      16.685  -0.900  35.097  1.00  0.00    -0.267 OA
BRANCH  17  20
HETATM   20  C5  UNK     1      21.092  -4.561  37.704  1.00  0.00     0.299 C 
BRANCH  20  21
HETATM   21  C8  UNK     1      20.059  -5.582  38.072  1.00  0.00    -0.007 C 
HETATM   22  C13 UNK     1      20.227  -6.504  39.026  1.00  0.00     0.008 C 
ENDBRANCH  20  21
ENDBRANCH  17  20
ENDBRANCH   3  12
TORSDOF 3
ENDMDL
MODEL 5
REMARK VINA RESULT:      -8.3      2.127      7.253
REMARK  3 active torsions:
REMARK  status: ('A' for Active; 'I' for Inactive)
REMARK    1  A    between atoms: C5_10  and  N1_4 
REMARK       I    between atoms: C6_11  and  N2_5 
REMARK    2  A    between atoms: C5_10  and  C8_13 
REMARK    3  A    between atoms: C6_11  and  C7_12 
ROOT
HETATM    1  O2  UNK     1      20.241   6.662  32.611  1.00  0.00    -0.274 OA
HETATM    2  O3  UNK     1      21.201   5.626  30.815  1.00  0.00    -0.259 OA
HETATM    3  C7  UNK     1      18.880   5.270  31.131  1.00  0.00     0.108 A 
HETATM    4  C9  UNK     1      17.786   5.516  31.861  1.00  0.00     0.037 A 
HETATM    5  C10 UNK     1      17.865   6.370  33.036  1.00  0.00    -0.001 A 
HETATM    6  C11 UNK     1      20.197   5.848  31.482  1.00  0.00     0.304 A 
HETATM    7  C12 UNK     1      19.094   6.924  33.384  1.00  0.00     0.089 A 
HETATM    8  C14 UNK     1      16.750   6.654  33.829  1.00  0.00     0.014 A 
HETATM    9  C15 UNK     1      19.238   7.750  34.496  1.00  0.00     0.038 A 
HETATM   10  C16 UNK     1      16.879   7.481  34.948  1.00  0.00     0.001 A 
HETATM   11  C17 UNK     1      18.120   8.028  35.280  1.00  0.00     0.003 A 
ENDROOT
BRANCH   3  12
HETATM   12  C6  UNK     1      18.697   4.392  29.958  1.00  0.00     0.260 C 
HETATM   13  N2  UNK     1      18.618   3.019  30.183  1.00  0.00    -0.344 N 
HETATM   14  C3  UNK     1      18.430   2.121  29.043  1.00  0.00     0.156 C 
HETATM   15  C4  UNK     1      18.572   2.359  31.494  1.00  0.00     0.156 C 
HETATM   16  C1  UNK     1      19.332   0.893  29.131  1.00  0.00     0.292 C 
HETATM   17  N1  UNK     1      19.137   0.203  30.413  1.00  0.00     0.095 N 
HETATM   18  C2  UNK     1      19.452   1.106  31.527  1.00  0.00     0.292 C 
HETATM   19  O1  UNK     1      18.617   4.926  28.851  1.00  0.00    -0.267 OA
BRANCH  17  20
HETATM   20  C5  UNK     1      19.963  -1.002  30.479  1.00  0.00     0.299 C 
BRANCH  20  21
HETATM   21  C8  UNK     1      19.871  -1.660  31.821  1.00  0.00    -0.007 C 
HETATM   22  C13 UNK     1      20.858  -2.379  32.371  1.00  0.00     0.008 C 
ENDBRANCH  20  21
ENDBRANCH  17  20
ENDBRANCH   3  12
TORSDOF 3
ENDMDL
MODEL 6
REMARK VINA RESULT:      -8.2     22.098     24.090
REMARK  3 active torsions:
REMARK  status: ('A' for Active; 'I' for Inactive)
REMARK    1  A    between atoms: C5_10  and  N1_4 
REMARK       I    between atoms: C6_11  and  N2_5 
REMARK    2  A    between atoms: C5_10  and  C8_13 
REMARK    3  A    between atoms: C6_11  and  C7_12 
ROOT
HETATM    1  O2  UNK     1      14.338  10.184  11.406  1.00  0.00    -0.274 OA
HETATM    2  O3  UNK     1      12.803   8.493  11.485  1.00  0.00    -0.259 OA
HETATM    3  C7  UNK     1      14.814   8.049  10.313  1.00  0.00     0.108 A 
HETATM    4  C9  UNK     1      16.007   8.494   9.902  1.00  0.00     0.037 A 
HETATM    5  C10 UNK     1      16.439   9.844  10.232  1.00  0.00    -0.001 A 
HETATM    6  C11 UNK     1      13.897   8.898  11.107  1.00  0.00     0.304 A 
HETATM    7  C12 UNK     1      15.592  10.659  10.977  1.00  0.00     0.089 A 
HETATM    8  C14 UNK     1      17.675  10.351   9.824  1.00  0.00     0.014 A 
HETATM    9  C15 UNK     1      15.946  11.960  11.326  1.00  0.00     0.038 A 
HETATM   10  C16 UNK     1      18.044  11.655  10.167  1.00  0.00     0.001 A 
HETATM   11  C17 UNK     1      17.181  12.458  10.916  1.00  0.00     0.003 A 
ENDROOT
BRANCH   3  12
HETATM   12  C6  UNK     1      14.467   6.666   9.929  1.00  0.00     0.260 C 
HETATM   13  N2  UNK     1      13.763   6.481   8.741  1.00  0.00    -0.344 N 
HETATM   14  C3  UNK     1      13.410   5.122   8.328  1.00  0.00     0.156 C 
HETATM   15  C4  UNK     1      13.437   7.522   7.757  1.00  0.00     0.156 C 
HETATM   16  C1  UNK     1      11.975   5.038   7.814  1.00  0.00     0.292 C 
HETATM   17  N1  UNK     1      11.756   6.015   6.740  1.00  0.00     0.095 N 
HETATM   18  C2  UNK     1      12.007   7.376   7.232  1.00  0.00     0.292 C 
HETATM   19  O1  UNK     1      14.827   5.758  10.679  1.00  0.00    -0.267 OA
BRANCH  17  20
HETATM   20  C5  UNK     1      10.396   5.903   6.212  1.00  0.00     0.299 C 
BRANCH  20  21
HETATM   21  C8  UNK     1       9.396   6.546   7.124  1.00  0.00    -0.007 C 
HETATM   22  C13 UNK     1       8.314   5.922   7.605  1.00  0.00     0.008 C 
ENDBRANCH  20  21
ENDBRANCH  17  20
ENDBRANCH   3  12
TORSDOF 3
ENDMDL
MODEL 7
REMARK VINA RESULT:      -8.2     22.213     24.252
REMARK  3 active torsions:
REMARK  status: ('A' for Active; 'I' for Inactive)
REMARK    1  A    between atoms: C5_10  and  N1_4 
REMARK       I    between atoms: C6_11  and  N2_5 
REMARK    2  A    between atoms: C5_10  and  C8_13 
REMARK    3  A    between atoms: C6_11  and  C7_12 
ROOT
HETATM    1  O2  UNK     1      11.680   6.708   6.494  1.00  0.00    -0.274 OA
HETATM    2  O3  UNK     1      13.950   6.934   6.381  1.00  0.00    -0.259 OA
HETATM    3  C7  UNK     1      13.067   6.089   8.411  1.00  0.00     0.108 A 
HETATM    4  C9  UNK     1      11.985   5.734   9.113  1.00  0.00     0.037 A 
HETATM    5  C10 UNK     1      10.659   5.850   8.527  1.00  0.00    -0.001 A 
HETATM    6  C11 UNK     1      12.961   6.608   7.028  1.00  0.00     0.304 A 
HETATM    7  C12 UNK     1      10.537   6.335   7.228  1.00  0.00     0.089 A 
HETATM    8  C14 UNK     1       9.502   5.492   9.223  1.00  0.00     0.014 A 
HETATM    9  C15 UNK     1       9.297   6.471   6.608  1.00  0.00     0.038 A 
HETATM   10  C16 UNK     1       8.250   5.622   8.614  1.00  0.00     0.001 A 
HETATM   11  C17 UNK     1       8.148   6.111   7.309  1.00  0.00     0.003 A 
ENDROOT
BRANCH   3  12
HETATM   12  C6  UNK     1      14.367   5.934   9.093  1.00  0.00     0.260 C 
HETATM   13  N2  UNK     1      14.921   7.062   9.695  1.00  0.00    -0.344 N 
HETATM   14  C3  UNK     1      16.206   6.940  10.386  1.00  0.00     0.156 C 
HETATM   15  C4  UNK     1      14.276   8.375   9.831  1.00  0.00     0.156 C 
HETATM   16  C1  UNK     1      17.137   8.106  10.063  1.00  0.00     0.292 C 
HETATM   17  N1  UNK     1      16.477   9.386  10.349  1.00  0.00     0.095 N 
HETATM   18  C2  UNK     1      15.255   9.517   9.545  1.00  0.00     0.292 C 
HETATM   19  O1  UNK     1      14.881   4.815   9.095  1.00  0.00    -0.267 OA
BRANCH  17  20
HETATM   20  C5  UNK     1      17.386  10.503  10.087  1.00  0.00     0.299 C 
BRANCH  20  21
HETATM   21  C8  UNK     1      17.398  10.876   8.636  1.00  0.00    -0.007 C 
HETATM   22  C13 UNK     1      18.422  11.488   8.030  1.00  0.00     0.008 C 
ENDBRANCH  20  21
ENDBRANCH  17  20
ENDBRANCH   3  12
TORSDOF 3
ENDMDL
MODEL 8
REMARK VINA RESULT:      -8.1      7.318     11.538
REMARK  3 active torsions:
REMARK  status: ('A' for Active; 'I' for Inactive)
REMARK    1  A    between atoms: C5_10  and  N1_4 
REMARK       I    between atoms: C6_11  and  N2_5 
REMARK    2  A    between atoms: C5_10  and  C8_13 
REMARK    3  A    between atoms: C6_11  and  C7_12 
ROOT
HETATM    1  O2  UNK     1      19.191  -1.423  34.430  1.00  0.00    -0.274 OA
HETATM    2  O3  UNK     1      20.922  -2.911  34.349  1.00  0.00    -0.259 OA
HETATM    3  C7  UNK     1      19.838  -2.655  36.441  1.00  0.00     0.108 A 
HETATM    4  C9  UNK     1      18.879  -2.052  37.152  1.00  0.00     0.037 A 
HETATM    5  C10 UNK     1      18.002  -1.077  36.523  1.00  0.00    -0.001 A 
HETATM    6  C11 UNK     1      20.045  -2.360  35.005  1.00  0.00     0.304 A 
HETATM    7  C12 UNK     1      18.179  -0.785  35.174  1.00  0.00     0.089 A 
HETATM    8  C14 UNK     1      16.988  -0.422  37.226  1.00  0.00     0.014 A 
HETATM    9  C15 UNK     1      17.374   0.139  34.511  1.00  0.00     0.038 A 
HETATM   10  C16 UNK     1      16.171   0.507  36.575  1.00  0.00     0.001 A 
HETATM   11  C17 UNK     1      16.364   0.787  35.220  1.00  0.00     0.003 A 
ENDROOT
BRANCH   3  12
HETATM   12  C6  UNK     1      20.676  -3.629  37.169  1.00  0.00     0.260 C 
HETATM   13  N2  UNK     1      20.359  -4.980  37.041  1.00  0.00    -0.344 N 
HETATM   14  C3  UNK     1      21.174  -5.971  37.744  1.00  0.00     0.156 C 
HETATM   15  C4  UNK     1      19.344  -5.548  36.144  1.00  0.00     0.156 C 
HETATM   16  C1  UNK     1      20.316  -7.044  38.409  1.00  0.00     0.292 C 
HETATM   17  N1  UNK     1      19.418  -7.666  37.427  1.00  0.00     0.095 N 
HETATM   18  C2  UNK     1      18.537  -6.652  36.833  1.00  0.00     0.292 C 
HETATM   19  O1  UNK     1      21.609  -3.189  37.841  1.00  0.00    -0.267 OA
BRANCH  17  20
HETATM   20  C5  UNK     1      18.631  -8.729  38.052  1.00  0.00     0.299 C 
BRANCH  20  21
HETATM   21  C8  UNK     1      19.494  -9.875  38.480  1.00  0.00    -0.007 C 
HETATM   22  C13 UNK     1      19.785 -10.924  37.702  1.00  0.00     0.008 C 
ENDBRANCH  20  21
ENDBRANCH  17  20
ENDBRANCH   3  12
TORSDOF 3
ENDMDL
MODEL 9
REMARK VINA RESULT:      -8.0     22.304     24.225
REMARK  3 active torsions:
REMARK  status: ('A' for Active; 'I' for Inactive)
REMARK    1  A    between atoms: C5_10  and  N1_4 
REMARK       I    between atoms: C6_11  and  N2_5 
REMARK    2  A    between atoms: C5_10  and  C8_13 
REMARK    3  A    between atoms: C6_11  and  C7_12 
ROOT
HETATM    1  O2  UNK     1      17.523   8.139   9.670  1.00  0.00    -0.274 OA
HETATM    2  O3  UNK     1      17.242   5.923   9.191  1.00  0.00    -0.259 OA
HETATM    3  C7  UNK     1      15.309   7.118   9.861  1.00  0.00     0.108 A 
HETATM    4  C9  UNK     1      14.776   8.282  10.247  1.00  0.00     0.037 A 
HETATM    5  C10 UNK     1      15.611   9.467  10.368  1.00  0.00    -0.001 A 
HETATM    6  C11 UNK     1      16.750   6.988   9.546  1.00  0.00     0.304 A 
HETATM    7  C12 UNK     1      16.968   9.367  10.076  1.00  0.00     0.089 A 
HETATM    8  C14 UNK     1      15.097  10.704  10.768  1.00  0.00     0.014 A 
HETATM    9  C15 UNK     1      17.822  10.464  10.172  1.00  0.00     0.038 A 
HETATM   10  C16 UNK     1      15.942  11.813  10.869  1.00  0.00     0.001 A 
HETATM   11  C17 UNK     1      17.301  11.693  10.571  1.00  0.00     0.003 A 
ENDROOT
BRANCH   3  12
HETATM   12  C6  UNK     1      14.380   5.974   9.768  1.00  0.00     0.260 C 
HETATM   13  N2  UNK     1      13.602   5.863   8.618  1.00  0.00    -0.344 N 
HETATM   14  C3  UNK     1      12.676   4.736   8.491  1.00  0.00     0.156 C 
HETATM   15  C4  UNK     1      13.703   6.708   7.420  1.00  0.00     0.156 C 
HETATM   16  C1  UNK     1      11.319   5.174   7.946  1.00  0.00     0.292 C 
HETATM   17  N1  UNK     1      11.484   5.897   6.678  1.00  0.00     0.095 N 
HETATM   18  C2  UNK     1      12.322   7.086   6.877  1.00  0.00     0.292 C 
HETATM   19  O1  UNK     1      14.355   5.181  10.710  1.00  0.00    -0.267 OA
BRANCH  17  20
HETATM   20  C5  UNK     1      10.181   6.273   6.128  1.00  0.00     0.299 C 
BRANCH  20  21
HETATM   21  C8  UNK     1       9.075   6.013   7.103  1.00  0.00    -0.007 C 
HETATM   22  C13 UNK     1       8.111   6.896   7.393  1.00  0.00     0.008 C 
ENDBRANCH  20  21
ENDBRANCH  17  20
ENDBRANCH   3  12
TORSDOF 3
ENDMDL
MODEL 10
REMARK VINA RESULT:      -8.0     22.715     24.859
REMARK  3 active torsions:
REMARK  status: ('A' for Active; 'I' for Inactive)
REMARK    1  A    between atoms: C5_10  and  N1_4 
REMARK       I    between atoms: C6_11  and  N2_5 
REMARK    2  A    between atoms: C5_10  and  C8_13 
REMARK    3  A    between atoms: C6_11  and  C7_12 
ROOT
HETATM    1  O2  UNK     1       6.701   5.967   9.401  1.00  0.00    -0.274 OA
HETATM    2  O3  UNK     1       7.706   4.639   7.837  1.00  0.00    -0.259 OA
HETATM    3  C7  UNK     1       8.834   6.641   8.414  1.00  0.00     0.108 A 
HETATM    4  C9  UNK     1       8.852   7.759   9.149  1.00  0.00     0.037 A 
HETATM    5  C10 UNK     1       7.766   8.046  10.074  1.00  0.00    -0.001 A 
HETATM    6  C11 UNK     1       7.725   5.665   8.508  1.00  0.00     0.304 A 
HETATM    7  C12 UNK     1       6.713   7.141  10.177  1.00  0.00     0.089 A 
HETATM    8  C14 UNK     1       7.742   9.200  10.860  1.00  0.00     0.014 A 
HETATM    9  C15 UNK     1       5.643   7.357  11.043  1.00  0.00     0.038 A 
HETATM   10  C16 UNK     1       6.675   9.430  11.734  1.00  0.00     0.001 A 
HETATM   11  C17 UNK     1       5.628   8.510  11.825  1.00  0.00     0.003 A 
ENDROOT
BRANCH   3  12
HETATM   12  C6  UNK     1       9.981   6.440   7.506  1.00  0.00     0.260 C 
HETATM   13  N2  UNK     1      11.093   5.764   8.008  1.00  0.00    -0.344 N 
HETATM   14  C3  UNK     1      12.244   5.542   7.131  1.00  0.00     0.156 C 
HETATM   15  C4  UNK     1      11.191   5.115   9.321  1.00  0.00     0.156 C 
HETATM   16  C1  UNK     1      13.564   5.821   7.844  1.00  0.00     0.292 C 
HETATM   17  N1  UNK     1      13.655   5.038   9.083  1.00  0.00     0.095 N 
HETATM   18  C2  UNK     1      12.546   5.381   9.983  1.00  0.00     0.292 C 
HETATM   19  O1  UNK     1       9.884   6.874   6.358  1.00  0.00    -0.267 OA
BRANCH  17  20
HETATM   20  C5  UNK     1      14.941   5.266   9.743  1.00  0.00     0.299 C 
BRANCH  20  21
HETATM   21  C8  UNK     1      15.301   6.720   9.759  1.00  0.00    -0.007 C 
HETATM   22  C13 UNK     1      16.518   7.186  10.064  1.00  0.00     0.008 C 
ENDBRANCH  20  21
ENDBRANCH  17  20
ENDBRANCH   3  12
TORSDOF 3
ENDMDL
