MODEL 1
REMARK VINA RESULT:      -7.7      0.000      0.000
REMARK  2 active torsions:
REMARK  status: ('A' for Active; 'I' for Inactive)
REMARK    1  A    between atoms: C10_14  and  O2_2 
REMARK    2  A    between atoms: C13_17  and  O4_4 
ROOT
HETATM    1  O1  UNK     1      18.075   2.419  32.067  1.00  0.00    -0.274 OA
HETATM    2  O3  UNK     1      18.257   3.066  29.893  1.00  0.00    -0.259 OA
HETATM    3  C1  UNK     1      20.068  -1.303  31.073  1.00  0.00     0.040 C 
HETATM    4  C2  UNK     1      19.349  -0.008  31.385  1.00  0.00    -0.030 A 
HETATM    5  C3  UNK     1      20.743  -1.332  29.701  1.00  0.00     0.005 C 
HETATM    6  C4  UNK     1      19.838  -0.729  28.639  1.00  0.00     0.005 C 
HETATM    7  C5  UNK     1      19.495   0.718  28.988  1.00  0.00     0.045 C 
HETATM    8  C6  UNK     1      19.116   0.917  30.436  1.00  0.00     0.025 A 
HETATM    9  C7  UNK     1      18.899   0.236  32.765  1.00  0.00     0.038 A 
HETATM   10  C8  UNK     1      18.279   1.447  33.061  1.00  0.00     0.095 A 
HETATM   11  C9  UNK     1      18.455   2.211  30.750  1.00  0.00     0.295 A 
HETATM   12  C10 UNK     1      19.044  -0.686  33.813  1.00  0.00     0.084 A 
HETATM   13  C11 UNK     1      17.822   1.762  34.343  1.00  0.00     0.075 A 
HETATM   14  C12 UNK     1      18.592  -0.386  35.103  1.00  0.00     0.074 A 
HETATM   15  C13 UNK     1      17.983   0.837  35.369  1.00  0.00     0.073 A 
ENDROOT
BRANCH  12  16
HETATM   16  O2  UNK     1      19.584  -1.931  33.669  1.00  0.00    -0.355 OA
HETATM   17  C14 UNK     1      20.200  -2.505  34.820  1.00  0.00     0.210 C 
ENDBRANCH  12  16
BRANCH  15  18
HETATM   18  O4  UNK     1      17.542   1.124  36.623  1.00  0.00    -0.356 OA
HETATM   19  C15 UNK     1      17.514   0.050  37.564  1.00  0.00     0.210 C 
ENDBRANCH  15  18
TORSDOF 2
ENDMDL
MODEL 2
REMARK VINA RESULT:      -7.5      1.118      3.416
REMARK  2 active torsions:
REMARK  status: ('A' for Active; 'I' for Inactive)
REMARK    1  A    between atoms: C10_14  and  O2_2 
REMARK    2  A    between atoms: C13_17  and  O4_4 
ROOT
HETATM    1  O1  UNK     1      19.938  -2.284  33.424  1.00  0.00    -0.274 OA
HETATM    2  O3  UNK     1      21.012  -3.367  31.736  1.00  0.00    -0.259 OA
HETATM    3  C1  UNK     1      18.946   0.917  30.671  1.00  0.00     0.040 C 
HETATM    4  C2  UNK     1      19.331  -0.200  31.616  1.00  0.00    -0.030 A 
HETATM    5  C3  UNK     1      19.174   0.597  29.193  1.00  0.00     0.005 C 
HETATM    6  C4  UNK     1      20.509  -0.099  28.988  1.00  0.00     0.005 C 
HETATM    7  C5  UNK     1      20.561  -1.400  29.787  1.00  0.00     0.045 C 
HETATM    8  C6  UNK     1      20.044  -1.264  31.199  1.00  0.00     0.025 A 
HETATM    9  C7  UNK     1      18.910  -0.113  33.024  1.00  0.00     0.038 A 
HETATM   10  C8  UNK     1      19.225  -1.163  33.882  1.00  0.00     0.095 A 
HETATM   11  C9  UNK     1      20.380  -2.386  32.114  1.00  0.00     0.295 A 
HETATM   12  C10 UNK     1      18.213   0.977  33.568  1.00  0.00     0.084 A 
HETATM   13  C11 UNK     1      18.863  -1.164  35.231  1.00  0.00     0.075 A 
HETATM   14  C12 UNK     1      17.843   0.993  34.918  1.00  0.00     0.074 A 
HETATM   15  C13 UNK     1      18.166  -0.077  35.749  1.00  0.00     0.073 A 
ENDROOT
BRANCH  12  16
HETATM   16  O2  UNK     1      17.878   2.100  32.869  1.00  0.00    -0.355 OA
HETATM   17  C14 UNK     1      18.244   3.352  33.444  1.00  0.00     0.210 C 
ENDBRANCH  12  16
BRANCH  15  18
HETATM   18  O4  UNK     1      17.808  -0.057  37.060  1.00  0.00    -0.356 OA
HETATM   19  C15 UNK     1      17.473   1.211  37.624  1.00  0.00     0.210 C 
ENDBRANCH  15  18
TORSDOF 2
ENDMDL
MODEL 3
REMARK VINA RESULT:      -7.4     23.795     25.529
REMARK  2 active torsions:
REMARK  status: ('A' for Active; 'I' for Inactive)
REMARK    1  A    between atoms: C10_14  and  O2_2 
REMARK    2  A    between atoms: C13_17  and  O4_4 
ROOT
HETATM    1  O1  UNK     1      13.828   4.697   9.079  1.00  0.00    -0.274 OA
HETATM    2  O3  UNK     1      16.007   4.291   9.595  1.00  0.00    -0.259 OA
HETATM    3  C1  UNK     1      14.551   8.943   9.591  1.00  0.00     0.040 C 
HETATM    4  C2  UNK     1      14.320   7.454   9.447  1.00  0.00    -0.030 A 
HETATM    5  C3  UNK     1      16.024   9.346   9.671  1.00  0.00     0.005 C 
HETATM    6  C4  UNK     1      16.796   8.401  10.576  1.00  0.00     0.005 C 
HETATM    7  C5  UNK     1      16.706   6.968  10.054  1.00  0.00     0.045 C 
HETATM    8  C6  UNK     1      15.313   6.564   9.634  1.00  0.00     0.025 A 
HETATM    9  C7  UNK     1      12.973   6.978   9.092  1.00  0.00     0.038 A 
HETATM   10  C8  UNK     1      12.773   5.611   8.915  1.00  0.00     0.095 A 
HETATM   11  C9  UNK     1      15.102   5.105   9.445  1.00  0.00     0.295 A 
HETATM   12  C10 UNK     1      11.862   7.817   8.929  1.00  0.00     0.084 A 
HETATM   13  C11 UNK     1      11.529   5.072   8.577  1.00  0.00     0.075 A 
HETATM   14  C12 UNK     1      10.608   7.295   8.591  1.00  0.00     0.074 A 
HETATM   15  C13 UNK     1      10.442   5.924   8.412  1.00  0.00     0.073 A 
ENDROOT
BRANCH  12  16
HETATM   16  O2  UNK     1      11.887   9.169   9.119  1.00  0.00    -0.355 OA
HETATM   17  C14 UNK     1      10.789   9.743   9.823  1.00  0.00     0.210 C 
ENDBRANCH  12  16
BRANCH  15  18
HETATM   18  O4  UNK     1       9.222   5.419   8.086  1.00  0.00    -0.356 OA
HETATM   19  C15 UNK     1       8.255   6.336   7.574  1.00  0.00     0.210 C 
ENDBRANCH  15  18
TORSDOF 2
ENDMDL
MODEL 4
REMARK VINA RESULT:      -7.3      2.006      4.487
REMARK  2 active torsions:
REMARK  status: ('A' for Active; 'I' for Inactive)
REMARK    1  A    between atoms: C10_14  and  O2_2 
REMARK    2  A    between atoms: C13_17  and  O4_4 
ROOT
HETATM    1  O1  UNK     1      18.713   0.765  33.577  1.00  0.00    -0.274 OA
HETATM    2  O3  UNK     1      19.261  -1.437  33.414  1.00  0.00    -0.259 OA
HETATM    3  C1  UNK     1      19.351   1.188  29.308  1.00  0.00     0.040 C 
HETATM    4  C2  UNK     1      19.163   1.018  30.800  1.00  0.00    -0.030 A 
HETATM    5  C3  UNK     1      19.471  -0.127  28.536  1.00  0.00     0.005 C 
HETATM    6  C4  UNK     1      20.366  -1.109  29.273  1.00  0.00     0.005 C 
HETATM    7  C5  UNK     1      19.805  -1.405  30.663  1.00  0.00     0.045 C 
HETATM    8  C6  UNK     1      19.347  -0.171  31.405  1.00  0.00     0.025 A 
HETATM    9  C7  UNK     1      18.770   2.188  31.601  1.00  0.00     0.038 A 
HETATM   10  C8  UNK     1      18.552   2.021  32.967  1.00  0.00     0.095 A 
HETATM   11  C9  UNK     1      19.115  -0.352  32.861  1.00  0.00     0.295 A 
HETATM   12  C10 UNK     1      18.607   3.479  31.077  1.00  0.00     0.084 A 
HETATM   13  C11 UNK     1      18.175   3.075  33.801  1.00  0.00     0.075 A 
HETATM   14  C12 UNK     1      18.230   4.548  31.899  1.00  0.00     0.074 A 
HETATM   15  C13 UNK     1      18.012   4.346  33.260  1.00  0.00     0.073 A 
ENDROOT
BRANCH  12  16
HETATM   16  O2  UNK     1      18.832   3.812  29.773  1.00  0.00    -0.355 OA
HETATM   17  C14 UNK     1      19.076   5.187  29.489  1.00  0.00     0.210 C 
ENDBRANCH  12  16
BRANCH  15  18
HETATM   18  O4  UNK     1      17.648   5.387  34.055  1.00  0.00    -0.356 OA
HETATM   19  C15 UNK     1      17.046   6.513  33.418  1.00  0.00     0.210 C 
ENDBRANCH  15  18
TORSDOF 2
ENDMDL
MODEL 5
REMARK VINA RESULT:      -7.3      1.658      6.390
REMARK  2 active torsions:
REMARK  status: ('A' for Active; 'I' for Inactive)
REMARK    1  A    between atoms: C10_14  and  O2_2 
REMARK    2  A    between atoms: C13_17  and  O4_4 
ROOT
HETATM    1  O1  UNK     1      20.492  -3.110  34.015  1.00  0.00    -0.274 OA
HETATM    2  O3  UNK     1      20.405  -3.997  36.108  1.00  0.00    -0.259 OA
HETATM    3  C1  UNK     1      18.074   0.222  35.379  1.00  0.00     0.040 C 
HETATM    4  C2  UNK     1      18.892  -0.967  34.924  1.00  0.00    -0.030 A 
HETATM    5  C3  UNK     1      17.927   0.339  36.897  1.00  0.00     0.005 C 
HETATM    6  C4  UNK     1      17.646  -1.018  37.521  1.00  0.00     0.005 C 
HETATM    7  C5  UNK     1      18.780  -1.994  37.211  1.00  0.00     0.045 C 
HETATM    8  C6  UNK     1      19.231  -1.958  35.770  1.00  0.00     0.025 A 
HETATM    9  C7  UNK     1      19.324  -1.031  33.518  1.00  0.00     0.038 A 
HETATM   10  C8  UNK     1      20.116  -2.102  33.110  1.00  0.00     0.095 A 
HETATM   11  C9  UNK     1      20.077  -3.101  35.337  1.00  0.00     0.295 A 
HETATM   12  C10 UNK     1      18.978  -0.080  32.546  1.00  0.00     0.084 A 
HETATM   13  C11 UNK     1      20.571  -2.241  31.797  1.00  0.00     0.075 A 
HETATM   14  C12 UNK     1      19.426  -0.205  31.226  1.00  0.00     0.074 A 
HETATM   15  C13 UNK     1      20.223  -1.283  30.852  1.00  0.00     0.073 A 
ENDROOT
BRANCH  12  16
HETATM   16  O2  UNK     1      18.170   0.995  32.778  1.00  0.00    -0.355 OA
HETATM   17  C14 UNK     1      18.383   2.150  31.971  1.00  0.00     0.210 C 
ENDBRANCH  12  16
BRANCH  15  18
HETATM   18  O4  UNK     1      20.654  -1.402  29.567  1.00  0.00    -0.356 OA
HETATM   19  C15 UNK     1      19.917  -0.700  28.567  1.00  0.00     0.210 C 
ENDBRANCH  15  18
TORSDOF 2
ENDMDL
MODEL 6
REMARK VINA RESULT:      -7.0     13.570     15.987
REMARK  2 active torsions:
REMARK  status: ('A' for Active; 'I' for Inactive)
REMARK    1  A    between atoms: C10_14  and  O2_2 
REMARK    2  A    between atoms: C13_17  and  O4_4 
ROOT
HETATM    1  O1  UNK     1      31.124  -4.679  38.483  1.00  0.00    -0.274 OA
HETATM    2  O3  UNK     1      29.169  -4.067  39.471  1.00  0.00    -0.259 OA
HETATM    3  C1  UNK     1      29.598  -8.719  38.081  1.00  0.00     0.040 C 
HETATM    4  C2  UNK     1      30.116  -7.308  38.260  1.00  0.00    -0.030 A 
HETATM    5  C3  UNK     1      28.097  -8.873  38.330  1.00  0.00     0.005 C 
HETATM    6  C4  UNK     1      27.668  -8.094  39.561  1.00  0.00     0.005 C 
HETATM    7  C5  UNK     1      27.988  -6.609  39.392  1.00  0.00     0.045 C 
HETATM    8  C6  UNK     1      29.366  -6.348  38.834  1.00  0.00     0.025 A 
HETATM    9  C7  UNK     1      31.474  -6.988  37.791  1.00  0.00     0.038 A 
HETATM   10  C8  UNK     1      31.932  -5.679  37.914  1.00  0.00     0.095 A 
HETATM   11  C9  UNK     1      29.854  -4.950  38.967  1.00  0.00     0.295 A 
HETATM   12  C10 UNK     1      32.352  -7.927  37.230  1.00  0.00     0.084 A 
HETATM   13  C11 UNK     1      33.205  -5.287  37.494  1.00  0.00     0.075 A 
HETATM   14  C12 UNK     1      33.631  -7.552  36.804  1.00  0.00     0.074 A 
HETATM   15  C13 UNK     1      34.057  -6.233  36.934  1.00  0.00     0.073 A 
ENDROOT
BRANCH  12  16
HETATM   16  O2  UNK     1      32.068  -9.255  37.090  1.00  0.00    -0.355 OA
HETATM   17  C14 UNK     1      32.134  -9.794  35.772  1.00  0.00     0.210 C 
ENDBRANCH  12  16
BRANCH  15  18
HETATM   18  O4  UNK     1      35.302  -5.872  36.521  1.00  0.00    -0.356 OA
HETATM   19  C15 UNK     1      35.808  -6.510  35.348  1.00  0.00     0.210 C 
ENDBRANCH  15  18
TORSDOF 2
ENDMDL
MODEL 7
REMARK VINA RESULT:      -7.0      1.981      3.664
REMARK  2 active torsions:
REMARK  status: ('A' for Active; 'I' for Inactive)
REMARK    1  A    between atoms: C10_14  and  O2_2 
REMARK    2  A    between atoms: C13_17  and  O4_4 
ROOT
HETATM    1  O1  UNK     1      19.410   1.120  29.346  1.00  0.00    -0.274 OA
HETATM    2  O3  UNK     1      20.339  -0.507  28.055  1.00  0.00    -0.259 OA
HETATM    3  C1  UNK     1      19.995  -1.388  32.837  1.00  0.00     0.040 C 
HETATM    4  C2  UNK     1      19.777  -0.546  31.598  1.00  0.00    -0.030 A 
HETATM    5  C3  UNK     1      20.913  -2.593  32.624  1.00  0.00     0.005 C 
HETATM    6  C4  UNK     1      20.590  -3.296  31.317  1.00  0.00     0.005 C 
HETATM    7  C5  UNK     1      20.757  -2.337  30.139  1.00  0.00     0.045 C 
HETATM    8  C6  UNK     1      20.151  -0.975  30.378  1.00  0.00     0.025 A 
HETATM    9  C7  UNK     1      19.141   0.773  31.743  1.00  0.00     0.038 A 
HETATM   10  C8  UNK     1      18.982   1.566  30.609  1.00  0.00     0.095 A 
HETATM   11  C9  UNK     1      19.983  -0.130  29.167  1.00  0.00     0.295 A 
HETATM   12  C10 UNK     1      18.667   1.287  32.959  1.00  0.00     0.084 A 
HETATM   13  C11 UNK     1      18.391   2.831  30.654  1.00  0.00     0.075 A 
HETATM   14  C12 UNK     1      18.071   2.553  33.023  1.00  0.00     0.074 A 
HETATM   15  C13 UNK     1      17.935   3.325  31.872  1.00  0.00     0.073 A 
ENDROOT
BRANCH  12  16
HETATM   16  O2  UNK     1      18.704   0.611  34.144  1.00  0.00    -0.355 OA
HETATM   17  C14 UNK     1      18.597   1.388  35.335  1.00  0.00     0.210 C 
ENDBRANCH  12  16
BRANCH  15  18
HETATM   18  O4  UNK     1      17.353   4.552  31.937  1.00  0.00    -0.356 OA
HETATM   19  C15 UNK     1      17.772   5.415  32.995  1.00  0.00     0.210 C 
ENDBRANCH  15  18
TORSDOF 2
ENDMDL
MODEL 8
REMARK VINA RESULT:      -7.0      1.447      6.182
REMARK  2 active torsions:
REMARK  status: ('A' for Active; 'I' for Inactive)
REMARK    1  A    between atoms: C10_14  and  O2_2 
REMARK    2  A    between atoms: C13_17  and  O4_4 
ROOT
HETATM    1  O1  UNK     1      20.006  -2.140  33.775  1.00  0.00    -0.274 OA
HETATM    2  O3  UNK     1      19.782  -2.940  35.892  1.00  0.00    -0.259 OA
HETATM    3  C1  UNK     1      17.658   1.332  34.892  1.00  0.00     0.040 C 
HETATM    4  C2  UNK     1      18.449   0.097  34.522  1.00  0.00    -0.030 A 
HETATM    5  C3  UNK     1      17.442   1.513  36.396  1.00  0.00     0.005 C 
HETATM    6  C4  UNK     1      17.078   0.194  37.055  1.00  0.00     0.005 C 
HETATM    7  C5  UNK     1      18.186  -0.836  36.837  1.00  0.00     0.045 C 
HETATM    8  C6  UNK     1      18.708  -0.873  35.421  1.00  0.00     0.025 A 
HETATM    9  C7  UNK     1      18.946  -0.039  33.143  1.00  0.00     0.038 A 
HETATM   10  C8  UNK     1      19.714  -1.154  32.816  1.00  0.00     0.095 A 
HETATM   11  C9  UNK     1      19.527  -2.063  35.074  1.00  0.00     0.295 A 
HETATM   12  C10 UNK     1      18.686   0.886  32.121  1.00  0.00     0.084 A 
HETATM   13  C11 UNK     1      20.227  -1.361  31.533  1.00  0.00     0.075 A 
HETATM   14  C12 UNK     1      19.192   0.694  30.830  1.00  0.00     0.074 A 
HETATM   15  C13 UNK     1      19.963  -0.428  30.537  1.00  0.00     0.073 A 
ENDROOT
BRANCH  12  16
HETATM   16  O2  UNK     1      17.910   1.999  32.273  1.00  0.00    -0.355 OA
HETATM   17  C14 UNK     1      18.232   3.126  31.462  1.00  0.00     0.210 C 
ENDBRANCH  12  16
BRANCH  15  18
HETATM   18  O4  UNK     1      20.451  -0.613  29.281  1.00  0.00    -0.356 OA
HETATM   19  C15 UNK     1      19.508  -0.600  28.209  1.00  0.00     0.210 C 
ENDBRANCH  15  18
TORSDOF 2
ENDMDL
MODEL 9
REMARK VINA RESULT:      -6.9      2.188      5.990
REMARK  2 active torsions:
REMARK  status: ('A' for Active; 'I' for Inactive)
REMARK    1  A    between atoms: C10_14  and  O2_2 
REMARK    2  A    between atoms: C13_17  and  O4_4 
ROOT
HETATM    1  O1  UNK     1      18.777   0.465  31.638  1.00  0.00    -0.274 OA
HETATM    2  O3  UNK     1      18.704  -1.600  32.590  1.00  0.00    -0.259 OA
HETATM    3  C1  UNK     1      17.998   2.229  35.523  1.00  0.00     0.040 C 
HETATM    4  C2  UNK     1      18.240   1.585  34.175  1.00  0.00    -0.030 A 
HETATM    5  C3  UNK     1      18.146   1.276  36.710  1.00  0.00     0.005 C 
HETATM    6  C4  UNK     1      17.491  -0.063  36.417  1.00  0.00     0.005 C 
HETATM    7  C5  UNK     1      18.123  -0.709  35.185  1.00  0.00     0.045 C 
HETATM    8  C6  UNK     1      18.322   0.248  34.035  1.00  0.00     0.025 A 
HETATM    9  C7  UNK     1      18.390   2.451  32.994  1.00  0.00     0.038 A 
HETATM   10  C8  UNK     1      18.659   1.861  31.762  1.00  0.00     0.095 A 
HETATM   11  C9  UNK     1      18.609  -0.384  32.721  1.00  0.00     0.295 A 
HETATM   12  C10 UNK     1      18.268   3.848  33.025  1.00  0.00     0.084 A 
HETATM   13  C11 UNK     1      18.818   2.606  30.591  1.00  0.00     0.075 A 
HETATM   14  C12 UNK     1      18.424   4.611  31.862  1.00  0.00     0.074 A 
HETATM   15  C13 UNK     1      18.700   3.990  30.646  1.00  0.00     0.073 A 
ENDROOT
BRANCH  12  16
HETATM   16  O2  UNK     1      17.958   4.567  34.143  1.00  0.00    -0.355 OA
HETATM   17  C14 UNK     1      17.755   5.968  33.976  1.00  0.00     0.210 C 
ENDBRANCH  12  16
BRANCH  15  18
HETATM   18  O4  UNK     1      18.848   4.734  29.517  1.00  0.00    -0.356 OA
HETATM   19  C15 UNK     1      19.517   5.988  29.647  1.00  0.00     0.210 C 
ENDBRANCH  15  18
TORSDOF 2
ENDMDL
MODEL 10
REMARK VINA RESULT:      -6.8     12.429     14.866
REMARK  2 active torsions:
REMARK  status: ('A' for Active; 'I' for Inactive)
REMARK    1  A    between atoms: C10_14  and  O2_2 
REMARK    2  A    between atoms: C13_17  and  O4_4 
ROOT
HETATM    1  O1  UNK     1      28.892  -4.434  38.138  1.00  0.00    -0.274 OA
HETATM    2  O3  UNK     1      26.852  -4.807  39.073  1.00  0.00    -0.259 OA
HETATM    3  C1  UNK     1      29.716  -8.687  38.364  1.00  0.00     0.040 C 
HETATM    4  C2  UNK     1      29.413  -7.205  38.324  1.00  0.00    -0.030 A 
HETATM    5  C3  UNK     1      28.503  -9.568  38.668  1.00  0.00     0.005 C 
HETATM    6  C4  UNK     1      27.663  -8.968  39.783  1.00  0.00     0.005 C 
HETATM    7  C5  UNK     1      27.173  -7.575  39.393  1.00  0.00     0.045 C 
HETATM    8  C6  UNK     1      28.243  -6.710  38.770  1.00  0.00     0.025 A 
HETATM    9  C7  UNK     1      30.430  -6.290  37.780  1.00  0.00     0.038 A 
HETATM   10  C8  UNK     1      30.133  -4.931  37.701  1.00  0.00     0.095 A 
HETATM   11  C9  UNK     1      27.923  -5.261  38.686  1.00  0.00     0.295 A 
HETATM   12  C10 UNK     1      31.698  -6.697  37.341  1.00  0.00     0.084 A 
HETATM   13  C11 UNK     1      31.037  -3.993  37.198  1.00  0.00     0.075 A 
HETATM   14  C12 UNK     1      32.617  -5.771  36.835  1.00  0.00     0.074 A 
HETATM   15  C13 UNK     1      32.286  -4.420  36.761  1.00  0.00     0.073 A 
ENDROOT
BRANCH  12  16
HETATM   16  O2  UNK     1      32.155  -7.982  37.402  1.00  0.00    -0.355 OA
HETATM   17  C14 UNK     1      32.904  -8.455  36.285  1.00  0.00     0.210 C 
ENDBRANCH  12  16
BRANCH  15  18
HETATM   18  O4  UNK     1      33.182  -3.522  36.271  1.00  0.00    -0.356 OA
HETATM   19  C15 UNK     1      34.026  -3.961  35.206  1.00  0.00     0.210 C 
ENDBRANCH  15  18
TORSDOF 2
ENDMDL
