MODEL 1
REMARK VINA RESULT:      -7.4      0.000      0.000
REMARK  2 active torsions:
REMARK  status: ('A' for Active; 'I' for Inactive)
REMARK    1  A    between atoms: C11_15  and  O3_3 
REMARK    2  A    between atoms: C11_15  and  C9_13 
ROOT
HETATM    1  O1  UNK     1      18.027   3.266  31.327  1.00  0.00    -0.303 OA
HETATM    2  O2  UNK     1      20.087   6.311  29.562  1.00  0.00    -0.287 OA
HETATM    3  C1  UNK     1      19.071   5.452  31.518  1.00  0.00     0.048 A 
HETATM    4  C2  UNK     1      18.368   4.376  32.059  1.00  0.00     0.090 A 
HETATM    5  C3  UNK     1      18.998   6.578  33.650  1.00  0.00    -0.061 A 
HETATM    6  C4  UNK     1      19.390   6.557  32.310  1.00  0.00     0.025 A 
HETATM    7  C5  UNK     1      17.978   4.400  33.399  1.00  0.00     0.039 A 
HETATM    8  C6  UNK     1      19.471   5.402  30.101  1.00  0.00     0.187 A 
HETATM    9  C7  UNK     1      18.295   5.503  34.193  1.00  0.00     0.009 A 
HETATM   10  C8  UNK     1      19.082   4.188  29.356  1.00  0.00     0.100 A 
HETATM   11  C9  UNK     1      18.406   3.229  30.001  1.00  0.00     0.153 A 
HETATM   12  C10 UNK     1      19.334   7.755  34.504  1.00  0.00     0.048 C 
ENDROOT
BRANCH  11  13
HETATM   13  C11 UNK     1      18.034   2.037  29.238  1.00  0.00     0.201 C 
HETATM   14  O4  UNK     1      17.765   2.033  28.050  1.00  0.00    -0.645 OA
BRANCH  13  15
HETATM   15  O3  UNK     1      18.035   0.959  30.051  1.00  0.00    -0.771 OA
HETATM   16  H8  UNK     1      18.561   0.219  29.680  1.00  0.00     0.167 HD
ENDBRANCH  13  15
ENDBRANCH  11  13
TORSDOF 2
ENDMDL
MODEL 2
REMARK VINA RESULT:      -7.1      3.524      5.070
REMARK  2 active torsions:
REMARK  status: ('A' for Active; 'I' for Inactive)
REMARK    1  A    between atoms: C11_15  and  O3_3 
REMARK    2  A    between atoms: C11_15  and  C9_13 
ROOT
HETATM    1  O1  UNK     1      16.502   6.631  31.767  1.00  0.00    -0.303 OA
HETATM    2  O2  UNK     1      18.172   7.810  35.297  1.00  0.00    -0.287 OA
HETATM    3  C1  UNK     1      18.493   6.902  33.135  1.00  0.00     0.048 A 
HETATM    4  C2  UNK     1      17.858   6.518  31.954  1.00  0.00     0.090 A 
HETATM    5  C3  UNK     1      20.620   6.236  32.215  1.00  0.00    -0.061 A 
HETATM    6  C4  UNK     1      19.876   6.763  33.271  1.00  0.00     0.025 A 
HETATM    7  C5  UNK     1      18.605   5.991  30.900  1.00  0.00     0.039 A 
HETATM    8  C6  UNK     1      17.681   7.455  34.233  1.00  0.00     0.187 A 
HETATM    9  C7  UNK     1      19.987   5.851  31.033  1.00  0.00     0.009 A 
HETATM   10  C8  UNK     1      16.229   7.557  33.984  1.00  0.00     0.100 A 
HETATM   11  C9  UNK     1      15.752   7.150  32.801  1.00  0.00     0.153 A 
HETATM   12  C10 UNK     1      22.098   6.083  32.351  1.00  0.00     0.048 C 
ENDROOT
BRANCH  11  13
HETATM   13  C11 UNK     1      14.309   7.263  32.582  1.00  0.00     0.201 C 
HETATM   14  O4  UNK     1      13.718   6.799  31.623  1.00  0.00    -0.645 OA
BRANCH  13  15
HETATM   15  O3  UNK     1      13.748   7.953  33.597  1.00  0.00    -0.771 OA
HETATM   16  H8  UNK     1      13.705   8.914  33.410  1.00  0.00     0.167 HD
ENDBRANCH  13  15
ENDBRANCH  11  13
TORSDOF 2
ENDMDL
MODEL 3
REMARK VINA RESULT:      -7.0      1.268      2.515
REMARK  2 active torsions:
REMARK  status: ('A' for Active; 'I' for Inactive)
REMARK    1  A    between atoms: C11_15  and  O3_3 
REMARK    2  A    between atoms: C11_15  and  C9_13 
ROOT
HETATM    1  O1  UNK     1      18.733   4.201  30.242  1.00  0.00    -0.303 OA
HETATM    2  O2  UNK     1      17.870   2.452  33.824  1.00  0.00    -0.287 OA
HETATM    3  C1  UNK     1      18.313   4.443  32.623  1.00  0.00     0.048 A 
HETATM    4  C2  UNK     1      18.607   4.976  31.368  1.00  0.00     0.090 A 
HETATM    5  C3  UNK     1      18.380   6.654  33.584  1.00  0.00    -0.061 A 
HETATM    6  C4  UNK     1      18.198   5.279  33.736  1.00  0.00     0.025 A 
HETATM    7  C5  UNK     1      18.788   6.351  31.219  1.00  0.00     0.039 A 
HETATM    8  C6  UNK     1      18.128   2.987  32.754  1.00  0.00     0.187 A 
HETATM    9  C7  UNK     1      18.674   7.189  32.329  1.00  0.00     0.009 A 
HETATM   10  C8  UNK     1      18.272   2.197  31.515  1.00  0.00     0.100 A 
HETATM   11  C9  UNK     1      18.557   2.839  30.375  1.00  0.00     0.153 A 
HETATM   12  C10 UNK     1      18.259   7.555  34.767  1.00  0.00     0.048 C 
ENDROOT
BRANCH  11  13
HETATM   13  C11 UNK     1      18.695   2.031  29.162  1.00  0.00     0.201 C 
HETATM   14  O4  UNK     1      17.989   2.139  28.176  1.00  0.00    -0.645 OA
BRANCH  13  15
HETATM   15  O3  UNK     1      19.716   1.160  29.311  1.00  0.00    -0.771 OA
HETATM   16  H8  UNK     1      20.276   1.379  30.085  1.00  0.00     0.167 HD
ENDBRANCH  13  15
ENDBRANCH  11  13
TORSDOF 2
ENDMDL
MODEL 4
REMARK VINA RESULT:      -7.0     12.565     14.456
REMARK  2 active torsions:
REMARK  status: ('A' for Active; 'I' for Inactive)
REMARK    1  A    between atoms: C11_15  and  O3_3 
REMARK    2  A    between atoms: C11_15  and  C9_13 
ROOT
HETATM    1  O1  UNK     1      19.010  -8.166  36.873  1.00  0.00    -0.303 OA
HETATM    2  O2  UNK     1      21.167  -7.476  33.481  1.00  0.00    -0.287 OA
HETATM    3  C1  UNK     1      20.826  -8.822  35.398  1.00  0.00     0.048 A 
HETATM    4  C2  UNK     1      20.048  -9.000  36.542  1.00  0.00     0.090 A 
HETATM    5  C3  UNK     1      22.137 -10.760  35.980  1.00  0.00    -0.061 A 
HETATM    6  C4  UNK     1      21.873  -9.701  35.111  1.00  0.00     0.025 A 
HETATM    7  C5  UNK     1      20.315 -10.060  37.409  1.00  0.00     0.039 A 
HETATM    8  C6  UNK     1      20.525  -7.693  34.500  1.00  0.00     0.187 A 
HETATM    9  C7  UNK     1      21.361 -10.940  37.125  1.00  0.00     0.009 A 
HETATM   10  C8  UNK     1      19.398  -6.826  34.898  1.00  0.00     0.100 A 
HETATM   11  C9  UNK     1      18.735  -7.113  36.026  1.00  0.00     0.153 A 
HETATM   12  C10 UNK     1      23.254 -11.705  35.682  1.00  0.00     0.048 C 
ENDROOT
BRANCH  11  13
HETATM   13  C11 UNK     1      17.623  -6.236  36.397  1.00  0.00     0.201 C 
HETATM   14  O4  UNK     1      16.450  -6.560  36.371  1.00  0.00    -0.645 OA
BRANCH  13  15
HETATM   15  O3  UNK     1      18.101  -5.028  36.765  1.00  0.00    -0.771 OA
HETATM   16  H8  UNK     1      17.585  -4.636  37.501  1.00  0.00     0.167 HD
ENDBRANCH  13  15
ENDBRANCH  11  13
TORSDOF 2
ENDMDL
MODEL 5
REMARK VINA RESULT:      -6.8     12.357     15.596
REMARK  2 active torsions:
REMARK  status: ('A' for Active; 'I' for Inactive)
REMARK    1  A    between atoms: C11_15  and  O3_3 
REMARK    2  A    between atoms: C11_15  and  C9_13 
ROOT
HETATM    1  O1  UNK     1      18.661  -0.192  18.415  1.00  0.00    -0.303 OA
HETATM    2  O2  UNK     1      19.416   2.723  15.664  1.00  0.00    -0.287 OA
HETATM    3  C1  UNK     1      19.115   0.418  16.107  1.00  0.00     0.048 A 
HETATM    4  C2  UNK     1      18.853  -0.528  17.098  1.00  0.00     0.090 A 
HETATM    5  C3  UNK     1      19.230  -1.335  14.455  1.00  0.00    -0.061 A 
HETATM    6  C4  UNK     1      19.304   0.019  14.782  1.00  0.00     0.025 A 
HETATM    7  C5  UNK     1      18.780  -1.882  16.768  1.00  0.00     0.039 A 
HETATM    8  C6  UNK     1      19.188   1.841  16.481  1.00  0.00     0.187 A 
HETATM    9  C7  UNK     1      18.968  -2.283  15.445  1.00  0.00     0.009 A 
HETATM   10  C8  UNK     1      18.974   2.152  17.909  1.00  0.00     0.100 A 
HETATM   11  C9  UNK     1      18.732   1.143  18.755  1.00  0.00     0.153 A 
HETATM   12  C10 UNK     1      19.431  -1.771  13.042  1.00  0.00     0.048 C 
ENDROOT
BRANCH  11  13
HETATM   13  C11 UNK     1      18.524   1.480  20.165  1.00  0.00     0.201 C 
HETATM   14  O4  UNK     1      19.108   2.370  20.755  1.00  0.00    -0.645 OA
BRANCH  13  15
HETATM   15  O3  UNK     1      17.594   0.658  20.695  1.00  0.00    -0.771 OA
HETATM   16  H8  UNK     1      17.998  -0.120  21.136  1.00  0.00     0.167 HD
ENDBRANCH  13  15
ENDBRANCH  11  13
TORSDOF 2
ENDMDL
MODEL 6
REMARK VINA RESULT:      -6.8      4.775      6.637
REMARK  2 active torsions:
REMARK  status: ('A' for Active; 'I' for Inactive)
REMARK    1  A    between atoms: C11_15  and  O3_3 
REMARK    2  A    between atoms: C11_15  and  C9_13 
ROOT
HETATM    1  O1  UNK     1      16.503   9.002  34.835  1.00  0.00    -0.303 OA
HETATM    2  O2  UNK     1      15.965   8.366  30.843  1.00  0.00    -0.287 OA
HETATM    3  C1  UNK     1      17.310   8.027  32.761  1.00  0.00     0.048 A 
HETATM    4  C2  UNK     1      17.432   8.281  34.127  1.00  0.00     0.090 A 
HETATM    5  C3  UNK     1      19.390   6.808  32.795  1.00  0.00    -0.061 A 
HETATM    6  C4  UNK     1      18.287   7.289  32.089  1.00  0.00     0.025 A 
HETATM    7  C5  UNK     1      18.536   7.799  34.830  1.00  0.00     0.039 A 
HETATM    8  C6  UNK     1      16.135   8.549  32.041  1.00  0.00     0.187 A 
HETATM    9  C7  UNK     1      19.515   7.061  34.162  1.00  0.00     0.009 A 
HETATM   10  C8  UNK     1      15.164   9.316  32.847  1.00  0.00     0.100 A 
HETATM   11  C9  UNK     1      15.407   9.486  34.153  1.00  0.00     0.153 A 
HETATM   12  C10 UNK     1      20.440   6.019  32.087  1.00  0.00     0.048 C 
ENDROOT
BRANCH  11  13
HETATM   13  C11 UNK     1      14.428  10.250  34.927  1.00  0.00     0.201 C 
HETATM   14  O4  UNK     1      13.497  10.869  34.444  1.00  0.00    -0.645 OA
BRANCH  13  15
HETATM   15  O3  UNK     1      14.719  10.161  36.242  1.00  0.00    -0.771 OA
HETATM   16  H8  UNK     1      13.920  10.245  36.803  1.00  0.00     0.167 HD
ENDBRANCH  13  15
ENDBRANCH  11  13
TORSDOF 2
ENDMDL
MODEL 7
REMARK VINA RESULT:      -6.7      4.350      6.545
REMARK  2 active torsions:
REMARK  status: ('A' for Active; 'I' for Inactive)
REMARK    1  A    between atoms: C11_15  and  O3_3 
REMARK    2  A    between atoms: C11_15  and  C9_13 
ROOT
HETATM    1  O1  UNK     1      17.628   8.963  34.326  1.00  0.00    -0.303 OA
HETATM    2  O2  UNK     1      15.473   7.844  31.050  1.00  0.00    -0.287 OA
HETATM    3  C1  UNK     1      17.483   7.654  32.283  1.00  0.00     0.048 A 
HETATM    4  C2  UNK     1      18.166   8.079  33.424  1.00  0.00     0.090 A 
HETATM    5  C3  UNK     1      19.365   6.280  31.662  1.00  0.00    -0.061 A 
HETATM    6  C4  UNK     1      18.079   6.753  31.398  1.00  0.00     0.025 A 
HETATM    7  C5  UNK     1      19.452   7.604  33.685  1.00  0.00     0.039 A 
HETATM    8  C6  UNK     1      16.127   8.171  32.030  1.00  0.00     0.187 A 
HETATM    9  C7  UNK     1      20.050   6.703  32.802  1.00  0.00     0.009 A 
HETATM   10  C8  UNK     1      15.593   9.119  33.030  1.00  0.00     0.100 A 
HETATM   11  C9  UNK     1      16.359   9.441  34.080  1.00  0.00     0.153 A 
HETATM   12  C10 UNK     1      20.011   5.318  30.721  1.00  0.00     0.048 C 
ENDROOT
BRANCH  11  13
HETATM   13  C11 UNK     1      15.804  10.383  35.054  1.00  0.00     0.201 C 
HETATM   14  O4  UNK     1      16.193  11.526  35.208  1.00  0.00    -0.645 OA
BRANCH  13  15
HETATM   15  O3  UNK     1      14.808   9.788  35.743  1.00  0.00    -0.771 OA
HETATM   16  H8  UNK     1      14.909   8.813  35.770  1.00  0.00     0.167 HD
ENDBRANCH  13  15
ENDBRANCH  11  13
TORSDOF 2
ENDMDL
MODEL 8
REMARK VINA RESULT:      -6.6     16.522     17.304
REMARK  2 active torsions:
REMARK  status: ('A' for Active; 'I' for Inactive)
REMARK    1  A    between atoms: C11_15  and  O3_3 
REMARK    2  A    between atoms: C11_15  and  C9_13 
ROOT
HETATM    1  O1  UNK     1      31.026  -6.035  37.290  1.00  0.00    -0.303 OA
HETATM    2  O2  UNK     1      27.849  -4.251  39.122  1.00  0.00    -0.287 OA
HETATM    3  C1  UNK     1      28.956  -6.260  38.543  1.00  0.00     0.048 A 
HETATM    4  C2  UNK     1      30.067  -6.805  37.898  1.00  0.00     0.090 A 
HETATM    5  C3  UNK     1      28.182  -8.477  39.096  1.00  0.00    -0.061 A 
HETATM    6  C4  UNK     1      28.010  -7.093  39.144  1.00  0.00     0.025 A 
HETATM    7  C5  UNK     1      30.236  -8.190  37.852  1.00  0.00     0.039 A 
HETATM    8  C6  UNK     1      28.799  -4.796  38.577  1.00  0.00     0.187 A 
HETATM    9  C7  UNK     1      29.292  -9.024  38.452  1.00  0.00     0.009 A 
HETATM   10  C8  UNK     1      29.857  -4.011  37.910  1.00  0.00     0.100 A 
HETATM   11  C9  UNK     1      30.870  -4.665  37.327  1.00  0.00     0.153 A 
HETATM   12  C10 UNK     1      27.176  -9.374  39.736  1.00  0.00     0.048 C 
ENDROOT
BRANCH  11  13
HETATM   13  C11 UNK     1      31.904  -3.861  36.673  1.00  0.00     0.201 C 
HETATM   14  O4  UNK     1      33.008  -4.274  36.367  1.00  0.00    -0.645 OA
BRANCH  13  15
HETATM   15  O3  UNK     1      31.443  -2.610  36.466  1.00  0.00    -0.771 OA
HETATM   16  H8  UNK     1      31.964  -1.939  36.956  1.00  0.00     0.167 HD
ENDBRANCH  13  15
ENDBRANCH  11  13
TORSDOF 2
ENDMDL
MODEL 9
REMARK VINA RESULT:      -6.6     11.676     13.323
REMARK  2 active torsions:
REMARK  status: ('A' for Active; 'I' for Inactive)
REMARK    1  A    between atoms: C11_15  and  O3_3 
REMARK    2  A    between atoms: C11_15  and  C9_13 
ROOT
HETATM    1  O1  UNK     1      20.222  -5.266  38.056  1.00  0.00    -0.303 OA
HETATM    2  O2  UNK     1      19.282  -7.224  34.604  1.00  0.00    -0.287 OA
HETATM    3  C1  UNK     1      19.688  -7.354  36.932  1.00  0.00     0.048 A 
HETATM    4  C2  UNK     1      20.012  -6.623  38.075  1.00  0.00     0.090 A 
HETATM    5  C3  UNK     1      19.614  -9.378  38.240  1.00  0.00    -0.061 A 
HETATM    6  C4  UNK     1      19.487  -8.734  37.009  1.00  0.00     0.025 A 
HETATM    7  C5  UNK     1      20.139  -7.271  39.305  1.00  0.00     0.039 A 
HETATM    8  C6  UNK     1      19.562  -6.646  35.646  1.00  0.00     0.187 A 
HETATM    9  C7  UNK     1      19.939  -8.649  39.385  1.00  0.00     0.009 A 
HETATM   10  C8  UNK     1      19.795  -5.189  35.678  1.00  0.00     0.100 A 
HETATM   11  C9  UNK     1      20.101  -4.614  36.848  1.00  0.00     0.153 A 
HETATM   12  C10 UNK     1      19.402 -10.853  38.333  1.00  0.00     0.048 C 
ENDROOT
BRANCH  11  13
HETATM   13  C11 UNK     1      20.328  -3.167  36.850  1.00  0.00     0.201 C 
HETATM   14  O4  UNK     1      21.027  -2.577  36.046  1.00  0.00    -0.645 OA
BRANCH  13  15
HETATM   15  O3  UNK     1      19.647  -2.603  37.869  1.00  0.00    -0.771 OA
HETATM   16  H8  UNK     1      19.051  -3.242  38.313  1.00  0.00     0.167 HD
ENDBRANCH  13  15
ENDBRANCH  11  13
TORSDOF 2
ENDMDL
MODEL 10
REMARK VINA RESULT:      -6.5      3.096      4.259
REMARK  2 active torsions:
REMARK  status: ('A' for Active; 'I' for Inactive)
REMARK    1  A    between atoms: C11_15  and  O3_3 
REMARK    2  A    between atoms: C11_15  and  C9_13 
ROOT
HETATM    1  O1  UNK     1      18.988   0.114  31.509  1.00  0.00    -0.303 OA
HETATM    2  O2  UNK     1      17.963   3.956  32.414  1.00  0.00    -0.287 OA
HETATM    3  C1  UNK     1      18.279   1.737  33.173  1.00  0.00     0.048 A 
HETATM    4  C2  UNK     1      18.640   0.444  32.795  1.00  0.00     0.090 A 
HETATM    5  C3  UNK     1      17.947   0.989  35.441  1.00  0.00    -0.061 A 
HETATM    6  C4  UNK     1      17.932   2.016  34.497  1.00  0.00     0.025 A 
HETATM    7  C5  UNK     1      18.654  -0.581  33.742  1.00  0.00     0.039 A 
HETATM    8  C6  UNK     1      18.271   2.801  32.154  1.00  0.00     0.187 A 
HETATM    9  C7  UNK     1      18.308  -0.306  35.066  1.00  0.00     0.009 A 
HETATM   10  C8  UNK     1      18.654   2.397  30.786  1.00  0.00     0.100 A 
HETATM   11  C9  UNK     1      18.977   1.117  30.563  1.00  0.00     0.153 A 
HETATM   12  C10 UNK     1      17.577   1.277  36.858  1.00  0.00     0.048 C 
ENDROOT
BRANCH  11  13
HETATM   13  C11 UNK     1      19.352   0.744  29.197  1.00  0.00     0.201 C 
HETATM   14  O4  UNK     1      18.658   0.932  28.215  1.00  0.00    -0.645 OA
BRANCH  13  15
HETATM   15  O3  UNK     1      20.573   0.169  29.203  1.00  0.00    -0.771 OA
HETATM   16  H8  UNK     1      20.823  -0.174  28.320  1.00  0.00     0.167 HD
ENDBRANCH  13  15
ENDBRANCH  11  13
TORSDOF 2
ENDMDL
