MODEL 1
REMARK VINA RESULT:     -10.0      0.000      0.000
REMARK  3 active torsions:
REMARK  status: ('A' for Active; 'I' for Inactive)
REMARK    1  A    between atoms: C5_13  and  N1_7 
REMARK       I    between atoms: C6_14  and  N1_7 
REMARK    2  A    between atoms: C12_20  and  N2_8 
REMARK    3  A    between atoms: C2_10  and  C6_14 
ROOT
HETATM    1  O2  UNK     1      18.645   4.520  30.080  1.00  0.00    -0.267 OA
HETATM    2  N1  UNK     1      17.917   4.532  32.319  1.00  0.00    -0.321 N 
HETATM    3  C6  UNK     1      18.430   3.970  31.158  1.00  0.00     0.262 C 
HETATM    4  H2  UNK     1      17.818   3.943  33.142  1.00  0.00     0.169 HD
ENDROOT
BRANCH   3   5
HETATM    5  C2  UNK     1      18.728   2.542  31.320  1.00  0.00     0.108 A 
HETATM    6  C4  UNK     1      19.299   1.935  30.272  1.00  0.00     0.037 A 
HETATM    7  C1  UNK     1      19.632   0.520  30.337  1.00  0.00    -0.001 A 
HETATM    8  C3  UNK     1      19.347  -0.186  31.500  1.00  0.00     0.089 A 
HETATM    9  C7  UNK     1      20.230  -0.153  29.269  1.00  0.00     0.014 A 
HETATM   10  O1  UNK     1      18.746   0.459  32.600  1.00  0.00    -0.274 OA
HETATM   11  C9  UNK     1      19.640  -1.542  31.626  1.00  0.00     0.038 A 
HETATM   12  C8  UNK     1      18.415   1.810  32.567  1.00  0.00     0.304 A 
HETATM   13  O3  UNK     1      17.891   2.363  33.529  1.00  0.00    -0.259 OA
HETATM   14  C14 UNK     1      20.235  -2.207  30.556  1.00  0.00     0.003 A 
HETATM   15  C13 UNK     1      20.529  -1.514  29.380  1.00  0.00     0.001 A 
ENDBRANCH   3   5
BRANCH   2  16
HETATM   16  C5  UNK     1      17.522   5.877  32.526  1.00  0.00     0.059 A 
HETATM   17  C10 UNK     1      16.175   6.182  32.412  1.00  0.00     0.067 A 
HETATM   18  C12 UNK     1      15.754   7.498  32.610  1.00  0.00     0.105 A 
HETATM   19  C16 UNK     1      16.685   8.489  32.919  1.00  0.00     0.038 A 
HETATM   20  C15 UNK     1      18.037   8.166  33.031  1.00  0.00     0.028 A 
HETATM   21  C11 UNK     1      18.459   6.852  32.832  1.00  0.00     0.060 A 
HETATM   22 Cl1  UNK     1      20.142   6.496  32.978  1.00  0.00    -0.082 Cl
BRANCH  18  23
HETATM   23  N2  UNK     1      14.377   7.826  32.498  1.00  0.00    -0.116 N 
HETATM   24  O4  UNK     1      13.974   8.924  32.954  1.00  0.00    -0.532 OA
HETATM   25  O5  UNK     1      13.599   7.010  31.946  1.00  0.00    -0.532 OA
ENDBRANCH  18  23
ENDBRANCH   2  16
TORSDOF 3
ENDMDL
MODEL 2
REMARK VINA RESULT:      -9.9      0.956      1.902
REMARK  3 active torsions:
REMARK  status: ('A' for Active; 'I' for Inactive)
REMARK    1  A    between atoms: C5_13  and  N1_7 
REMARK       I    between atoms: C6_14  and  N1_7 
REMARK    2  A    between atoms: C12_20  and  N2_8 
REMARK    3  A    between atoms: C2_10  and  C6_14 
ROOT
HETATM    1  O2  UNK     1      17.794   3.104  33.169  1.00  0.00    -0.267 OA
HETATM    2  N1  UNK     1      18.152   4.632  31.415  1.00  0.00    -0.321 N 
HETATM    3  C6  UNK     1      18.153   3.387  32.028  1.00  0.00     0.262 C 
HETATM    4  H2  UNK     1      18.463   4.699  30.449  1.00  0.00     0.169 HD
ENDROOT
BRANCH   3   5
HETATM    5  C2  UNK     1      18.656   2.333  31.140  1.00  0.00     0.108 A 
HETATM    6  C4  UNK     1      19.029   1.191  31.730  1.00  0.00     0.037 A 
HETATM    7  C1  UNK     1      19.541   0.087  30.933  1.00  0.00    -0.001 A 
HETATM    8  C3  UNK     1      19.636   0.239  29.554  1.00  0.00     0.089 A 
HETATM    9  C7  UNK     1      19.941  -1.123  31.506  1.00  0.00     0.014 A 
HETATM   10  O1  UNK     1      19.240   1.444  28.938  1.00  0.00    -0.274 OA
HETATM   11  C9  UNK     1      20.118  -0.778  28.734  1.00  0.00     0.038 A 
HETATM   12  C8  UNK     1      18.748   2.518  29.674  1.00  0.00     0.304 A 
HETATM   13  O3  UNK     1      18.407   3.563  29.130  1.00  0.00    -0.259 OA
HETATM   14  C14 UNK     1      20.516  -1.981  29.313  1.00  0.00     0.003 A 
HETATM   15  C13 UNK     1      20.428  -2.153  30.697  1.00  0.00     0.001 A 
ENDBRANCH   3   5
BRANCH   2  16
HETATM   16  C5  UNK     1      17.736   5.868  31.969  1.00  0.00     0.059 A 
HETATM   17  C10 UNK     1      16.382   6.167  31.945  1.00  0.00     0.067 A 
HETATM   18  C12 UNK     1      15.940   7.376  32.482  1.00  0.00     0.105 A 
HETATM   19  C16 UNK     1      16.857   8.270  33.036  1.00  0.00     0.038 A 
HETATM   20  C15 UNK     1      18.215   7.955  33.053  1.00  0.00     0.028 A 
HETATM   21  C11 UNK     1      18.658   6.747  32.516  1.00  0.00     0.060 A 
HETATM   22 Cl1  UNK     1      20.349   6.397  32.556  1.00  0.00    -0.082 Cl
BRANCH  18  23
HETATM   23  N2  UNK     1      14.557   7.697  32.466  1.00  0.00    -0.116 N 
HETATM   24  O4  UNK     1      14.170   8.751  33.026  1.00  0.00    -0.532 OA
HETATM   25  O5  UNK     1      13.759   6.916  31.893  1.00  0.00    -0.532 OA
ENDBRANCH  18  23
ENDBRANCH   2  16
TORSDOF 3
ENDMDL
MODEL 3
REMARK VINA RESULT:      -9.4      7.747     12.397
REMARK  3 active torsions:
REMARK  status: ('A' for Active; 'I' for Inactive)
REMARK    1  A    between atoms: C5_13  and  N1_7 
REMARK       I    between atoms: C6_14  and  N1_7 
REMARK    2  A    between atoms: C12_20  and  N2_8 
REMARK    3  A    between atoms: C2_10  and  C6_14 
ROOT
HETATM    1  O2  UNK     1      20.554  -4.180  37.886  1.00  0.00    -0.267 OA
HETATM    2  N1  UNK     1      19.404  -5.064  36.031  1.00  0.00    -0.321 N 
HETATM    3  C6  UNK     1      19.892  -4.060  36.857  1.00  0.00     0.262 C 
HETATM    4  H2  UNK     1      18.886  -4.799  35.196  1.00  0.00     0.169 HD
ENDROOT
BRANCH   3   5
HETATM    5  C2  UNK     1      19.531  -2.722  36.374  1.00  0.00     0.108 A 
HETATM    6  C4  UNK     1      18.806  -1.968  37.210  1.00  0.00     0.037 A 
HETATM    7  C1  UNK     1      18.399  -0.627  36.821  1.00  0.00    -0.001 A 
HETATM    8  C3  UNK     1      18.777  -0.145  35.572  1.00  0.00     0.089 A 
HETATM    9  C7  UNK     1      17.643   0.195  37.660  1.00  0.00     0.014 A 
HETATM   10  O1  UNK     1      19.541  -0.943  34.698  1.00  0.00    -0.274 OA
HETATM   11  C9  UNK     1      18.420   1.131  35.139  1.00  0.00     0.038 A 
HETATM   12  C8  UNK     1      19.943  -2.230  35.041  1.00  0.00     0.304 A 
HETATM   13  O3  UNK     1      20.608  -2.918  34.273  1.00  0.00    -0.259 OA
HETATM   14  C14 UNK     1      17.665   1.943  35.981  1.00  0.00     0.003 A 
HETATM   15  C13 UNK     1      17.277   1.477  37.239  1.00  0.00     0.001 A 
ENDBRANCH   3   5
BRANCH   2  16
HETATM   16  C5  UNK     1      19.560  -6.463  36.187  1.00  0.00     0.059 A 
HETATM   17  C10 UNK     1      20.848  -6.969  36.262  1.00  0.00     0.067 A 
HETATM   18  C12 UNK     1      21.035  -8.343  36.415  1.00  0.00     0.105 A 
HETATM   19  C16 UNK     1      19.932  -9.192  36.492  1.00  0.00     0.038 A 
HETATM   20  C15 UNK     1      18.642  -8.669  36.415  1.00  0.00     0.028 A 
HETATM   21  C11 UNK     1      18.454  -7.296  36.261  1.00  0.00     0.060 A 
HETATM   22 Cl1  UNK     1      16.839  -6.690  36.169  1.00  0.00    -0.082 Cl
BRANCH  18  23
HETATM   23  N2  UNK     1      22.349  -8.876  36.494  1.00  0.00    -0.116 N 
HETATM   24  O4  UNK     1      22.616  -9.932  35.870  1.00  0.00    -0.532 OA
HETATM   25  O5  UNK     1      23.208  -8.278  37.187  1.00  0.00    -0.532 OA
ENDBRANCH  18  23
ENDBRANCH   2  16
TORSDOF 3
ENDMDL
MODEL 4
REMARK VINA RESULT:      -9.4      4.226      8.185
REMARK  3 active torsions:
REMARK  status: ('A' for Active; 'I' for Inactive)
REMARK    1  A    between atoms: C5_13  and  N1_7 
REMARK       I    between atoms: C6_14  and  N1_7 
REMARK    2  A    between atoms: C12_20  and  N2_8 
REMARK    3  A    between atoms: C2_10  and  C6_14 
ROOT
HETATM    1  O2  UNK     1      16.546   0.792  34.114  1.00  0.00    -0.267 OA
HETATM    2  N1  UNK     1      18.821   0.623  34.698  1.00  0.00    -0.321 N 
HETATM    3  C6  UNK     1      17.732   1.085  33.971  1.00  0.00     0.262 C 
HETATM    4  H2  UNK     1      19.745   0.981  34.469  1.00  0.00     0.169 HD
ENDROOT
BRANCH   3   5
HETATM    5  C2  UNK     1      18.127   2.035  32.925  1.00  0.00     0.108 A 
HETATM    6  C4  UNK     1      17.969   3.332  33.214  1.00  0.00     0.037 A 
HETATM    7  C1  UNK     1      18.332   4.350  32.239  1.00  0.00    -0.001 A 
HETATM    8  C3  UNK     1      18.844   3.952  31.009  1.00  0.00     0.089 A 
HETATM    9  C7  UNK     1      18.185   5.715  32.498  1.00  0.00     0.014 A 
HETATM   10  O1  UNK     1      19.008   2.584  30.711  1.00  0.00    -0.274 OA
HETATM   11  C9  UNK     1      19.210   4.875  30.033  1.00  0.00     0.038 A 
HETATM   12  C8  UNK     1      18.669   1.588  31.622  1.00  0.00     0.304 A 
HETATM   13  O3  UNK     1      18.815   0.400  31.354  1.00  0.00    -0.259 OA
HETATM   14  C14 UNK     1      19.059   6.235  30.298  1.00  0.00     0.003 A 
HETATM   15  C13 UNK     1      18.547   6.654  31.528  1.00  0.00     0.001 A 
ENDBRANCH   3   5
BRANCH   2  16
HETATM   16  C5  UNK     1      18.814  -0.296  35.776  1.00  0.00     0.059 A 
HETATM   17  C10 UNK     1      19.450  -1.514  35.595  1.00  0.00     0.067 A 
HETATM   18  C12 UNK     1      19.460  -2.441  36.637  1.00  0.00     0.105 A 
HETATM   19  C16 UNK     1      18.835  -2.137  37.846  1.00  0.00     0.038 A 
HETATM   20  C15 UNK     1      18.199  -0.908  38.013  1.00  0.00     0.028 A 
HETATM   21  C11 UNK     1      18.187   0.019  36.971  1.00  0.00     0.060 A 
HETATM   22 Cl1  UNK     1      17.387   1.529  37.221  1.00  0.00    -0.082 Cl
BRANCH  18  23
HETATM   23  N2  UNK     1      20.109  -3.693  36.467  1.00  0.00    -0.116 N 
HETATM   24  O4  UNK     1      20.557  -4.288  37.477  1.00  0.00    -0.532 OA
HETATM   25  O5  UNK     1      20.218  -4.169  35.312  1.00  0.00    -0.532 OA
ENDBRANCH  18  23
ENDBRANCH   2  16
TORSDOF 3
ENDMDL
MODEL 5
REMARK VINA RESULT:      -9.2     14.909     16.448
REMARK  3 active torsions:
REMARK  status: ('A' for Active; 'I' for Inactive)
REMARK    1  A    between atoms: C5_13  and  N1_7 
REMARK       I    between atoms: C6_14  and  N1_7 
REMARK    2  A    between atoms: C12_20  and  N2_8 
REMARK    3  A    between atoms: C2_10  and  C6_14 
ROOT
HETATM    1  O2  UNK     1      26.122  -9.066  39.464  1.00  0.00    -0.267 OA
HETATM    2  N1  UNK     1      24.969  -7.713  37.920  1.00  0.00    -0.321 N 
HETATM    3  C6  UNK     1      26.023  -8.070  38.749  1.00  0.00     0.262 C 
HETATM    4  H2  UNK     1      25.049  -6.859  37.372  1.00  0.00     0.169 HD
ENDROOT
BRANCH   3   5
HETATM    5  C2  UNK     1      27.114  -7.089  38.713  1.00  0.00     0.108 A 
HETATM    6  C4  UNK     1      28.351  -7.585  38.591  1.00  0.00     0.037 A 
HETATM    7  C1  UNK     1      29.498  -6.691  38.546  1.00  0.00    -0.001 A 
HETATM    8  C3  UNK     1      29.286  -5.319  38.631  1.00  0.00     0.089 A 
HETATM    9  C7  UNK     1      30.806  -7.164  38.419  1.00  0.00     0.014 A 
HETATM   10  O1  UNK     1      27.981  -4.803  38.758  1.00  0.00    -0.274 OA
HETATM   11  C9  UNK     1      30.341  -4.410  38.594  1.00  0.00     0.038 A 
HETATM   12  C8  UNK     1      26.865  -5.633  38.805  1.00  0.00     0.304 A 
HETATM   13  O3  UNK     1      25.732  -5.175  38.917  1.00  0.00    -0.259 OA
HETATM   14  C14 UNK     1      31.643  -4.890  38.468  1.00  0.00     0.003 A 
HETATM   15  C13 UNK     1      31.875  -6.264  38.381  1.00  0.00     0.001 A 
ENDBRANCH   3   5
BRANCH   2  16
HETATM   16  C5  UNK     1      23.760  -8.418  37.707  1.00  0.00     0.059 A 
HETATM   17  C10 UNK     1      23.698  -9.290  36.631  1.00  0.00     0.067 A 
HETATM   18  C12 UNK     1      22.520 -10.000  36.394  1.00  0.00     0.105 A 
HETATM   19  C16 UNK     1      21.421  -9.829  37.236  1.00  0.00     0.038 A 
HETATM   20  C15 UNK     1      21.499  -8.949  38.314  1.00  0.00     0.028 A 
HETATM   21  C11 UNK     1      22.675  -8.238  38.551  1.00  0.00     0.060 A 
HETATM   22 Cl1  UNK     1      22.727  -7.157  39.897  1.00  0.00    -0.082 Cl
BRANCH  18  23
HETATM   23  N2  UNK     1      22.442 -10.898  35.296  1.00  0.00    -0.116 N 
HETATM   24  O4  UNK     1      23.162 -11.925  35.297  1.00  0.00    -0.532 OA
HETATM   25  O5  UNK     1      21.654 -10.639  34.354  1.00  0.00    -0.532 OA
ENDBRANCH  18  23
ENDBRANCH   2  16
TORSDOF 3
ENDMDL
MODEL 6
REMARK VINA RESULT:      -9.2     15.366     18.528
REMARK  3 active torsions:
REMARK  status: ('A' for Active; 'I' for Inactive)
REMARK    1  A    between atoms: C5_13  and  N1_7 
REMARK       I    between atoms: C6_14  and  N1_7 
REMARK    2  A    between atoms: C12_20  and  N2_8 
REMARK    3  A    between atoms: C2_10  and  C6_14 
ROOT
HETATM    1  O2  UNK     1      17.625  -2.286  16.113  1.00  0.00    -0.267 OA
HETATM    2  N1  UNK     1      19.724  -1.902  15.117  1.00  0.00    -0.321 N 
HETATM    3  C6  UNK     1      18.681  -1.665  16.001  1.00  0.00     0.262 C 
HETATM    4  H2  UNK     1      20.547  -1.306  15.164  1.00  0.00     0.169 HD
ENDROOT
BRANCH   3   5
HETATM    5  C2  UNK     1      18.946  -0.517  16.876  1.00  0.00     0.108 A 
HETATM    6  C4  UNK     1      18.949  -0.764  18.192  1.00  0.00     0.037 A 
HETATM    7  C1  UNK     1      19.203   0.311  19.139  1.00  0.00    -0.001 A 
HETATM    8  C3  UNK     1      19.441   1.592  18.655  1.00  0.00     0.089 A 
HETATM    9  C7  UNK     1      19.217   0.098  20.520  1.00  0.00     0.014 A 
HETATM   10  O1  UNK     1      19.438   1.846  17.268  1.00  0.00    -0.274 OA
HETATM   11  C9  UNK     1      19.691   2.665  19.508  1.00  0.00     0.038 A 
HETATM   12  C8  UNK     1      19.197   0.839  16.338  1.00  0.00     0.304 A 
HETATM   13  O3  UNK     1      19.195   1.069  15.133  1.00  0.00    -0.259 OA
HETATM   14  C14 UNK     1      19.701   2.445  20.884  1.00  0.00     0.003 A 
HETATM   15  C13 UNK     1      19.464   1.165  21.389  1.00  0.00     0.001 A 
ENDBRANCH   3   5
BRANCH   2  16
HETATM   16  C5  UNK     1      19.810  -2.921  14.136  1.00  0.00     0.059 A 
HETATM   17  C10 UNK     1      19.379  -2.624  12.853  1.00  0.00     0.067 A 
HETATM   18  C12 UNK     1      19.450  -3.606  11.864  1.00  0.00     0.105 A 
HETATM   19  C16 UNK     1      19.953  -4.870  12.172  1.00  0.00     0.038 A 
HETATM   20  C15 UNK     1      20.384  -5.153  13.468  1.00  0.00     0.028 A 
HETATM   21  C11 UNK     1      20.311  -4.173  14.457  1.00  0.00     0.060 A 
HETATM   22 Cl1  UNK     1      20.854  -4.567  16.048  1.00  0.00    -0.082 Cl
BRANCH  18  23
HETATM   23  N2  UNK     1      19.013  -3.317  10.544  1.00  0.00    -0.116 N 
HETATM   24  O4  UNK     1      19.642  -2.468   9.867  1.00  0.00    -0.532 OA
HETATM   25  O5  UNK     1      18.009  -3.919  10.091  1.00  0.00    -0.532 OA
ENDBRANCH  18  23
ENDBRANCH   2  16
TORSDOF 3
ENDMDL
MODEL 7
REMARK VINA RESULT:      -9.1      7.899     12.395
REMARK  3 active torsions:
REMARK  status: ('A' for Active; 'I' for Inactive)
REMARK    1  A    between atoms: C5_13  and  N1_7 
REMARK       I    between atoms: C6_14  and  N1_7 
REMARK    2  A    between atoms: C12_20  and  N2_8 
REMARK    3  A    between atoms: C2_10  and  C6_14 
ROOT
HETATM    1  O2  UNK     1      21.337  -4.302  37.231  1.00  0.00    -0.267 OA
HETATM    2  N1  UNK     1      19.675  -5.335  35.921  1.00  0.00    -0.321 N 
HETATM    3  C6  UNK     1      20.364  -4.267  36.478  1.00  0.00     0.262 C 
HETATM    4  H2  UNK     1      18.897  -5.138  35.295  1.00  0.00     0.169 HD
ENDROOT
BRANCH   3   5
HETATM    5  C2  UNK     1      19.804  -2.973  36.072  1.00  0.00     0.108 A 
HETATM    6  C4  UNK     1      19.095  -2.318  36.999  1.00  0.00     0.037 A 
HETATM    7  C1  UNK     1      18.500  -1.027  36.690  1.00  0.00    -0.001 A 
HETATM    8  C3  UNK     1      18.680  -0.489  35.421  1.00  0.00     0.089 A 
HETATM    9  C7  UNK     1      17.753  -0.308  37.627  1.00  0.00     0.014 A 
HETATM   10  O1  UNK     1      19.428  -1.183  34.449  1.00  0.00    -0.274 OA
HETATM   11  C9  UNK     1      18.136   0.742  35.061  1.00  0.00     0.038 A 
HETATM   12  C8  UNK     1      20.009  -2.420  34.714  1.00  0.00     0.304 A 
HETATM   13  O3  UNK     1      20.658  -3.017  33.862  1.00  0.00    -0.259 OA
HETATM   14  C14 UNK     1      17.392   1.452  36.000  1.00  0.00     0.003 A 
HETATM   15  C13 UNK     1      17.200   0.928  37.281  1.00  0.00     0.001 A 
ENDBRANCH   3   5
BRANCH   2  16
HETATM   16  C5  UNK     1      19.937  -6.716  36.093  1.00  0.00     0.059 A 
HETATM   17  C10 UNK     1      19.688  -7.274  37.337  1.00  0.00     0.067 A 
HETATM   18  C12 UNK     1      19.936  -8.632  37.538  1.00  0.00     0.105 A 
HETATM   19  C16 UNK     1      20.427  -9.414  36.493  1.00  0.00     0.038 A 
HETATM   20  C15 UNK     1      20.672  -8.838  35.246  1.00  0.00     0.028 A 
HETATM   21  C11 UNK     1      20.426  -7.481  35.045  1.00  0.00     0.060 A 
HETATM   22 Cl1  UNK     1      20.744  -6.808  33.486  1.00  0.00    -0.082 Cl
BRANCH  18  23
HETATM   23  N2  UNK     1      19.686  -9.219  38.807  1.00  0.00    -0.116 N 
HETATM   24  O4  UNK     1      19.800  -8.512  39.837  1.00  0.00    -0.532 OA
HETATM   25  O5  UNK     1      19.358 -10.429  38.864  1.00  0.00    -0.532 OA
ENDBRANCH  18  23
ENDBRANCH   2  16
TORSDOF 3
ENDMDL
MODEL 8
REMARK VINA RESULT:      -9.1      7.177      9.640
REMARK  3 active torsions:
REMARK  status: ('A' for Active; 'I' for Inactive)
REMARK    1  A    between atoms: C5_13  and  N1_7 
REMARK       I    between atoms: C6_14  and  N1_7 
REMARK    2  A    between atoms: C12_20  and  N2_8 
REMARK    3  A    between atoms: C2_10  and  C6_14 
ROOT
HETATM    1  O2  UNK     1      20.878  -3.054  37.658  1.00  0.00    -0.267 OA
HETATM    2  N1  UNK     1      19.094  -3.157  36.125  1.00  0.00    -0.321 N 
HETATM    3  C6  UNK     1      20.078  -3.672  36.958  1.00  0.00     0.262 C 
HETATM    4  H2  UNK     1      18.492  -3.807  35.624  1.00  0.00     0.169 HD
ENDROOT
BRANCH   3   5
HETATM    5  C2  UNK     1      20.101  -5.139  36.948  1.00  0.00     0.108 A 
HETATM    6  C4  UNK     1      20.036  -5.740  38.143  1.00  0.00     0.037 A 
HETATM    7  C1  UNK     1      20.053  -7.191  38.236  1.00  0.00    -0.001 A 
HETATM    8  C3  UNK     1      20.136  -7.940  37.066  1.00  0.00     0.089 A 
HETATM    9  C7  UNK     1      19.986  -7.860  39.461  1.00  0.00     0.014 A 
HETATM   10  O1  UNK     1      20.202  -7.301  35.812  1.00  0.00    -0.274 OA
HETATM   11  C9  UNK     1      20.156  -9.332  37.086  1.00  0.00     0.038 A 
HETATM   12  C8  UNK     1      20.190  -5.915  35.691  1.00  0.00     0.304 A 
HETATM   13  O3  UNK     1      20.250  -5.368  34.595  1.00  0.00    -0.259 OA
HETATM   14  C14 UNK     1      20.091  -9.992  38.312  1.00  0.00     0.003 A 
HETATM   15  C13 UNK     1      20.007  -9.257  39.497  1.00  0.00     0.001 A 
ENDBRANCH   3   5
BRANCH   2  16
HETATM   16  C5  UNK     1      18.787  -1.795  35.890  1.00  0.00     0.059 A 
HETATM   17  C10 UNK     1      18.230  -1.066  36.929  1.00  0.00     0.067 A 
HETATM   18  C12 UNK     1      17.915   0.278  36.729  1.00  0.00     0.105 A 
HETATM   19  C16 UNK     1      18.162   0.876  35.493  1.00  0.00     0.038 A 
HETATM   20  C15 UNK     1      18.723   0.129  34.457  1.00  0.00     0.028 A 
HETATM   21  C11 UNK     1      19.037  -1.214  34.656  1.00  0.00     0.060 A 
HETATM   22 Cl1  UNK     1      19.729  -2.101  33.346  1.00  0.00    -0.082 Cl
BRANCH  18  23
HETATM   23  N2  UNK     1      17.345   1.039  37.784  1.00  0.00    -0.116 N 
HETATM   24  O4  UNK     1      16.275   1.661  37.577  1.00  0.00    -0.532 OA
HETATM   25  O5  UNK     1      17.926   1.068  38.896  1.00  0.00    -0.532 OA
ENDBRANCH  18  23
ENDBRANCH   2  16
TORSDOF 3
ENDMDL
MODEL 9
REMARK VINA RESULT:      -9.0      2.760      8.067
REMARK  3 active torsions:
REMARK  status: ('A' for Active; 'I' for Inactive)
REMARK    1  A    between atoms: C5_13  and  N1_7 
REMARK       I    between atoms: C6_14  and  N1_7 
REMARK    2  A    between atoms: C12_20  and  N2_8 
REMARK    3  A    between atoms: C2_10  and  C6_14 
ROOT
HETATM    1  O2  UNK     1      19.724   4.342  30.291  1.00  0.00    -0.267 OA
HETATM    2  N1  UNK     1      18.423   2.592  31.178  1.00  0.00    -0.321 N 
HETATM    3  C6  UNK     1      18.859   3.903  31.047  1.00  0.00     0.262 C 
HETATM    4  H2  UNK     1      17.677   2.391  31.841  1.00  0.00     0.169 HD
ENDROOT
BRANCH   3   5
HETATM    5  C2  UNK     1      18.154   4.815  31.956  1.00  0.00     0.108 A 
HETATM    6  C4  UNK     1      17.574   5.880  31.391  1.00  0.00     0.037 A 
HETATM    7  C1  UNK     1      16.851   6.842  32.209  1.00  0.00    -0.001 A 
HETATM    8  C3  UNK     1      16.776   6.634  33.582  1.00  0.00     0.089 A 
HETATM    9  C7  UNK     1      16.230   7.967  31.662  1.00  0.00     0.014 A 
HETATM   10  O1  UNK     1      17.388   5.510  34.171  1.00  0.00    -0.274 OA
HETATM   11  C9  UNK     1      16.100   7.517  34.422  1.00  0.00     0.038 A 
HETATM   12  C8  UNK     1      18.087   4.574  33.414  1.00  0.00     0.304 A 
HETATM   13  O3  UNK     1      18.618   3.599  33.936  1.00  0.00    -0.259 OA
HETATM   14  C14 UNK     1      15.484   8.637  33.869  1.00  0.00     0.003 A 
HETATM   15  C13 UNK     1      15.548   8.862  32.492  1.00  0.00     0.001 A 
ENDBRANCH   3   5
BRANCH   2  16
HETATM   16  C5  UNK     1      18.877   1.455  30.466  1.00  0.00     0.059 A 
HETATM   17  C10 UNK     1      19.592   0.494  31.163  1.00  0.00     0.067 A 
HETATM   18  C12 UNK     1      20.054  -0.637  30.490  1.00  0.00     0.105 A 
HETATM   19  C16 UNK     1      19.793  -0.793  29.129  1.00  0.00     0.038 A 
HETATM   20  C15 UNK     1      19.071   0.181  28.441  1.00  0.00     0.028 A 
HETATM   21  C11 UNK     1      18.610   1.313  29.113  1.00  0.00     0.060 A 
HETATM   22 Cl1  UNK     1      17.722   2.496  28.222  1.00  0.00    -0.082 Cl
BRANCH  18  23
HETATM   23  N2  UNK     1      20.787  -1.631  31.191  1.00  0.00    -0.116 N 
HETATM   24  O4  UNK     1      20.763  -2.814  30.773  1.00  0.00    -0.532 OA
HETATM   25  O5  UNK     1      21.439  -1.299  32.210  1.00  0.00    -0.532 OA
ENDBRANCH  18  23
ENDBRANCH   2  16
TORSDOF 3
ENDMDL
MODEL 10
REMARK VINA RESULT:      -9.0     15.211     18.527
REMARK  3 active torsions:
REMARK  status: ('A' for Active; 'I' for Inactive)
REMARK    1  A    between atoms: C5_13  and  N1_7 
REMARK       I    between atoms: C6_14  and  N1_7 
REMARK    2  A    between atoms: C12_20  and  N2_8 
REMARK    3  A    between atoms: C2_10  and  C6_14 
ROOT
HETATM    1  O2  UNK     1      17.617  -2.274  16.011  1.00  0.00    -0.267 OA
HETATM    2  N1  UNK     1      19.750  -1.920  15.080  1.00  0.00    -0.321 N 
HETATM    3  C6  UNK     1      18.686  -1.671  15.935  1.00  0.00     0.262 C 
HETATM    4  H2  UNK     1      20.582  -1.340  15.156  1.00  0.00     0.169 HD
ENDROOT
BRANCH   3   5
HETATM    5  C2  UNK     1      18.947  -0.536  16.828  1.00  0.00     0.108 A 
HETATM    6  C4  UNK     1      18.948  -0.803  18.140  1.00  0.00     0.037 A 
HETATM    7  C1  UNK     1      19.197   0.258  19.103  1.00  0.00    -0.001 A 
HETATM    8  C3  UNK     1      19.432   1.548  18.639  1.00  0.00     0.089 A 
HETATM    9  C7  UNK     1      19.209   0.025  20.481  1.00  0.00     0.014 A 
HETATM   10  O1  UNK     1      19.430   1.822  17.257  1.00  0.00    -0.274 OA
HETATM   11  C9  UNK     1      19.677   2.608  19.509  1.00  0.00     0.038 A 
HETATM   12  C8  UNK     1      19.194   0.829  16.311  1.00  0.00     0.304 A 
HETATM   13  O3  UNK     1      19.193   1.077  15.110  1.00  0.00    -0.259 OA
HETATM   14  C14 UNK     1      19.686   2.368  20.881  1.00  0.00     0.003 A 
HETATM   15  C13 UNK     1      19.452   1.079  21.366  1.00  0.00     0.001 A 
ENDBRANCH   3   5
BRANCH   2  16
HETATM   16  C5  UNK     1      19.847  -2.932  14.093  1.00  0.00     0.059 A 
HETATM   17  C10 UNK     1      20.299  -4.181  14.486  1.00  0.00     0.067 A 
HETATM   18  C12 UNK     1      20.406  -5.199  13.537  1.00  0.00     0.105 A 
HETATM   19  C16 UNK     1      20.059  -4.953  12.209  1.00  0.00     0.038 A 
HETATM   20  C15 UNK     1      19.605  -3.690  11.829  1.00  0.00     0.028 A 
HETATM   21  C11 UNK     1      19.499  -2.673  12.776  1.00  0.00     0.060 A 
HETATM   22 Cl1  UNK     1      18.934  -1.124  12.262  1.00  0.00    -0.082 Cl
BRANCH  18  23
HETATM   23  N2  UNK     1      20.868  -6.485  13.924  1.00  0.00    -0.116 N 
HETATM   24  O4  UNK     1      20.449  -7.493  13.305  1.00  0.00    -0.532 OA
HETATM   25  O5  UNK     1      21.680  -6.579  14.876  1.00  0.00    -0.532 OA
ENDBRANCH  18  23
ENDBRANCH   2  16
TORSDOF 3
ENDMDL
