MODEL 1
REMARK VINA RESULT:      -9.2      0.000      0.000
REMARK  3 active torsions:
REMARK  status: ('A' for Active; 'I' for Inactive)
REMARK    1  A    between atoms: C14_18  and  O3_3 
REMARK    2  A    between atoms: C2_6  and  C3_7 
REMARK    3  A    between atoms: C10_14  and  C5_9 
ROOT
HETATM    1  O2  UNK     1      16.346   5.810   9.989  1.00  0.00    -0.275 OA
HETATM    2  O4  UNK     1      15.861   3.576   9.978  1.00  0.00    -0.260 OA
HETATM    3  C1  UNK     1      14.663   7.395   9.211  1.00  0.00     0.012 A 
HETATM    4  C2  UNK     1      13.749   6.275   8.942  1.00  0.00     0.017 A 
HETATM    5  C4  UNK     1      15.932   7.130   9.724  1.00  0.00     0.090 A 
HETATM    6  C5  UNK     1      15.225   9.760   9.244  1.00  0.00    -0.058 A 
HETATM    7  C6  UNK     1      14.317   8.731   8.973  1.00  0.00     0.022 A 
HETATM    8  C11 UNK     1      14.175   5.028   9.206  1.00  0.00     0.097 A 
HETATM    9  C12 UNK     1      16.847   8.145  10.000  1.00  0.00     0.039 A 
HETATM   10  C13 UNK     1      16.488   9.468   9.757  1.00  0.00     0.010 A 
HETATM   11  C16 UNK     1      15.512   4.730   9.750  1.00  0.00     0.289 A 
ENDROOT
BRANCH   4  12
HETATM   12  C3  UNK     1      12.440   6.387   8.425  1.00  0.00     0.088 A 
HETATM   13  O1  UNK     1      11.384   6.750   9.201  1.00  0.00    -0.306 OA
HETATM   14  C8  UNK     1      10.285   6.762   8.395  1.00  0.00     0.119 A 
HETATM   15  C14 UNK     1       8.989   7.082   8.795  1.00  0.00     0.102 A 
HETATM   16  C7  UNK     1      10.636   6.405   7.097  1.00  0.00     0.003 A 
HETATM   17  C17 UNK     1       8.002   7.032   7.805  1.00  0.00     0.040 A 
HETATM   18  C19 UNK     1       8.314   6.678   6.489  1.00  0.00     0.004 A 
HETATM   19  C15 UNK     1       9.627   6.362   6.118  1.00  0.00     0.014 A 
HETATM   20  C9  UNK     1      12.034   6.165   7.128  1.00  0.00     0.052 A 
BRANCH  15  21
HETATM   21  O3  UNK     1       8.681   7.426  10.079  1.00  0.00    -0.353 OA
HETATM   22  C20 UNK     1       7.406   8.025  10.299  1.00  0.00     0.210 C 
ENDBRANCH  15  21
ENDBRANCH   4  12
BRANCH   6  23
HETATM   23  C10 UNK     1      14.840  11.178   8.985  1.00  0.00     0.034 C 
HETATM   24  C18 UNK     1      15.609  11.783   7.812  1.00  0.00     0.010 C 
ENDBRANCH   6  23
TORSDOF 3
ENDMDL
MODEL 2
REMARK VINA RESULT:      -9.1     23.554     25.553
REMARK  3 active torsions:
REMARK  status: ('A' for Active; 'I' for Inactive)
REMARK    1  A    between atoms: C14_18  and  O3_3 
REMARK    2  A    between atoms: C2_6  and  C3_7 
REMARK    3  A    between atoms: C10_14  and  C5_9 
ROOT
HETATM    1  O2  UNK     1      18.751   0.585  31.370  1.00  0.00    -0.275 OA
HETATM    2  O4  UNK     1      18.944   1.402  29.244  1.00  0.00    -0.260 OA
HETATM    3  C1  UNK     1      18.318   2.136  33.203  1.00  0.00     0.012 A 
HETATM    4  C2  UNK     1      18.319   3.252  32.244  1.00  0.00     0.017 A 
HETATM    5  C4  UNK     1      18.535   0.840  32.738  1.00  0.00     0.090 A 
HETATM    6  C5  UNK     1      18.119   1.220  35.446  1.00  0.00    -0.058 A 
HETATM    7  C6  UNK     1      18.108   2.315  34.575  1.00  0.00     0.022 A 
HETATM    8  C11 UNK     1      18.529   2.975  30.946  1.00  0.00     0.097 A 
HETATM    9  C12 UNK     1      18.548  -0.262  33.594  1.00  0.00     0.039 A 
HETATM   10  C13 UNK     1      18.338  -0.067  34.955  1.00  0.00     0.010 A 
HETATM   11  C16 UNK     1      18.758   1.611  30.438  1.00  0.00     0.289 A 
ENDROOT
BRANCH   4  12
HETATM   12  C3  UNK     1      18.115   4.611  32.564  1.00  0.00     0.088 A 
HETATM   13  O1  UNK     1      17.053   5.315  32.089  1.00  0.00    -0.306 OA
HETATM   14  C8  UNK     1      17.159   6.579  32.587  1.00  0.00     0.119 A 
HETATM   15  C14 UNK     1      16.270   7.625  32.344  1.00  0.00     0.102 A 
HETATM   16  C7  UNK     1      18.293   6.688  33.385  1.00  0.00     0.003 A 
HETATM   17  C17 UNK     1      16.566   8.847  32.955  1.00  0.00     0.040 A 
HETATM   18  C19 UNK     1      17.696   8.998  33.764  1.00  0.00     0.004 A 
HETATM   19  C15 UNK     1      18.571   7.927  33.990  1.00  0.00     0.014 A 
HETATM   20  C9  UNK     1      18.904   5.407  33.363  1.00  0.00     0.052 A 
BRANCH  15  21
HETATM   21  O3  UNK     1      15.167   7.482  31.554  1.00  0.00    -0.353 OA
HETATM   22  C20 UNK     1      13.936   7.185  32.210  1.00  0.00     0.210 C 
ENDBRANCH  15  21
ENDBRANCH   4  12
BRANCH   6  23
HETATM   23  C10 UNK     1      17.893   1.430  36.906  1.00  0.00     0.034 C 
HETATM   24  C18 UNK     1      17.528   0.135  37.628  1.00  0.00     0.010 C 
ENDBRANCH   6  23
TORSDOF 3
ENDMDL
MODEL 3
REMARK VINA RESULT:      -8.9     24.212     26.390
REMARK  3 active torsions:
REMARK  status: ('A' for Active; 'I' for Inactive)
REMARK    1  A    between atoms: C14_18  and  O3_3 
REMARK    2  A    between atoms: C2_6  and  C3_7 
REMARK    3  A    between atoms: C10_14  and  C5_9 
ROOT
HETATM    1  O2  UNK     1      21.003  -2.532  30.842  1.00  0.00    -0.275 OA
HETATM    2  O4  UNK     1      21.441  -4.107  32.440  1.00  0.00    -0.260 OA
HETATM    3  C1  UNK     1      19.512  -0.677  31.380  1.00  0.00     0.012 A 
HETATM    4  C2  UNK     1      19.340  -1.224  32.735  1.00  0.00     0.017 A 
HETATM    5  C4  UNK     1      20.335  -1.347  30.476  1.00  0.00     0.090 A 
HETATM    6  C5  UNK     1      19.078   0.973  29.649  1.00  0.00    -0.058 A 
HETATM    7  C6  UNK     1      18.882   0.497  30.949  1.00  0.00     0.022 A 
HETATM    8  C11 UNK     1      19.989  -2.356  33.052  1.00  0.00     0.097 A 
HETATM    9  C12 UNK     1      20.541  -0.883  29.177  1.00  0.00     0.039 A 
HETATM   10  C13 UNK     1      19.907   0.285  28.764  1.00  0.00     0.010 A 
HETATM   11  C16 UNK     1      20.865  -3.076  32.109  1.00  0.00     0.289 A 
ENDROOT
BRANCH   4  12
HETATM   12  C3  UNK     1      18.542  -0.660  33.754  1.00  0.00     0.088 A 
HETATM   13  O1  UNK     1      19.045   0.213  34.667  1.00  0.00    -0.306 OA
HETATM   14  C8  UNK     1      18.018   0.559  35.494  1.00  0.00     0.119 A 
HETATM   15  C14 UNK     1      18.104   1.438  36.572  1.00  0.00     0.102 A 
HETATM   16  C7  UNK     1      16.851  -0.094  35.110  1.00  0.00     0.003 A 
HETATM   17  C17 UNK     1      16.926   1.654  37.294  1.00  0.00     0.040 A 
HETATM   18  C19 UNK     1      15.733   1.017  36.941  1.00  0.00     0.004 A 
HETATM   19  C15 UNK     1      15.678   0.139  35.850  1.00  0.00     0.014 A 
HETATM   20  C9  UNK     1      17.202  -0.881  33.982  1.00  0.00     0.052 A 
BRANCH  15  21
HETATM   21  O3  UNK     1      19.267   2.060  36.920  1.00  0.00    -0.353 OA
HETATM   22  C20 UNK     1      19.739   3.084  36.046  1.00  0.00     0.210 C 
ENDBRANCH  15  21
ENDBRANCH   4  12
BRANCH   6  23
HETATM   23  C10 UNK     1      18.399   2.226  29.207  1.00  0.00     0.034 C 
HETATM   24  C18 UNK     1      18.747   3.420  30.093  1.00  0.00     0.010 C 
ENDBRANCH   6  23
TORSDOF 3
ENDMDL
MODEL 4
REMARK VINA RESULT:      -8.8     24.101     26.563
REMARK  3 active torsions:
REMARK  status: ('A' for Active; 'I' for Inactive)
REMARK    1  A    between atoms: C14_18  and  O3_3 
REMARK    2  A    between atoms: C2_6  and  C3_7 
REMARK    3  A    between atoms: C10_14  and  C5_9 
ROOT
HETATM    1  O2  UNK     1      19.205   1.839  29.222  1.00  0.00    -0.275 OA
HETATM    2  O4  UNK     1      18.246   3.887  29.556  1.00  0.00    -0.260 OA
HETATM    3  C1  UNK     1      19.403   0.300  31.105  1.00  0.00     0.012 A 
HETATM    4  C2  UNK     1      18.764   1.300  31.975  1.00  0.00     0.017 A 
HETATM    5  C4  UNK     1      19.605   0.600  29.759  1.00  0.00     0.090 A 
HETATM    6  C5  UNK     1      20.427  -1.867  30.700  1.00  0.00    -0.058 A 
HETATM    7  C6  UNK     1      19.823  -0.952  31.569  1.00  0.00     0.022 A 
HETATM    8  C11 UNK     1      18.396   2.472  31.433  1.00  0.00     0.097 A 
HETATM    9  C12 UNK     1      20.204  -0.303  28.880  1.00  0.00     0.039 A 
HETATM   10  C13 UNK     1      20.617  -1.543  29.357  1.00  0.00     0.010 A 
HETATM   11  C16 UNK     1      18.599   2.804  30.011  1.00  0.00     0.289 A 
ENDROOT
BRANCH   4  12
HETATM   12  C3  UNK     1      18.496   1.140  33.351  1.00  0.00     0.088 A 
HETATM   13  O1  UNK     1      18.679  -0.045  33.992  1.00  0.00    -0.306 OA
HETATM   14  C8  UNK     1      18.332   0.150  35.296  1.00  0.00     0.119 A 
HETATM   15  C14 UNK     1      18.372  -0.816  36.299  1.00  0.00     0.102 A 
HETATM   16  C7  UNK     1      17.924   1.465  35.493  1.00  0.00     0.003 A 
HETATM   17  C17 UNK     1      17.971  -0.404  37.575  1.00  0.00     0.040 A 
HETATM   18  C19 UNK     1      17.555   0.908  37.814  1.00  0.00     0.004 A 
HETATM   19  C15 UNK     1      17.525   1.857  36.784  1.00  0.00     0.014 A 
HETATM   20  C9  UNK     1      18.035   2.098  34.227  1.00  0.00     0.052 A 
BRANCH  15  21
HETATM   21  O3  UNK     1      18.777  -2.098  36.069  1.00  0.00    -0.353 OA
HETATM   22  C20 UNK     1      20.154  -2.391  36.294  1.00  0.00     0.210 C 
ENDBRANCH  15  21
ENDBRANCH   4  12
BRANCH   6  23
HETATM   23  C10 UNK     1      20.869  -3.198  31.212  1.00  0.00     0.034 C 
HETATM   24  C18 UNK     1      20.999  -3.220  32.733  1.00  0.00     0.010 C 
ENDBRANCH   6  23
TORSDOF 3
ENDMDL
MODEL 5
REMARK VINA RESULT:      -8.7     24.310     26.411
REMARK  3 active torsions:
REMARK  status: ('A' for Active; 'I' for Inactive)
REMARK    1  A    between atoms: C14_18  and  O3_3 
REMARK    2  A    between atoms: C2_6  and  C3_7 
REMARK    3  A    between atoms: C10_14  and  C5_9 
ROOT
HETATM    1  O2  UNK     1      18.720   3.860  29.983  1.00  0.00    -0.275 OA
HETATM    2  O4  UNK     1      18.718   1.750  29.104  1.00  0.00    -0.260 OA
HETATM    3  C1  UNK     1      18.497   4.142  32.396  1.00  0.00     0.012 A 
HETATM    4  C2  UNK     1      18.420   2.682  32.548  1.00  0.00     0.017 A 
HETATM    5  C4  UNK     1      18.643   4.687  31.121  1.00  0.00     0.090 A 
HETATM    6  C5  UNK     1      18.507   6.406  33.283  1.00  0.00    -0.058 A 
HETATM    7  C6  UNK     1      18.430   5.024  33.482  1.00  0.00     0.022 A 
HETATM    8  C11 UNK     1      18.495   1.922  31.443  1.00  0.00     0.097 A 
HETATM    9  C12 UNK     1      18.722   6.063  30.907  1.00  0.00     0.039 A 
HETATM   10  C13 UNK     1      18.653   6.925  31.997  1.00  0.00     0.010 A 
HETATM   11  C16 UNK     1      18.651   2.480  30.088  1.00  0.00     0.289 A 
ENDROOT
BRANCH   4  12
HETATM   12  C3  UNK     1      18.272   1.989  33.769  1.00  0.00     0.088 A 
HETATM   13  O1  UNK     1      18.715   0.714  33.936  1.00  0.00    -0.306 OA
HETATM   14  C8  UNK     1      18.418   0.355  35.217  1.00  0.00     0.119 A 
HETATM   15  C14 UNK     1      18.702  -0.878  35.800  1.00  0.00     0.102 A 
HETATM   16  C7  UNK     1      17.782   1.402  35.875  1.00  0.00     0.003 A 
HETATM   17  C17 UNK     1      18.310  -1.041  37.133  1.00  0.00     0.040 A 
HETATM   18  C19 UNK     1      17.668  -0.013  37.829  1.00  0.00     0.004 A 
HETATM   19  C15 UNK     1      17.396   1.216  37.215  1.00  0.00     0.014 A 
HETATM   20  C9  UNK     1      17.692   2.455  34.927  1.00  0.00     0.052 A 
BRANCH  15  21
HETATM   21  O3  UNK     1      19.328  -1.884  35.123  1.00  0.00    -0.353 OA
HETATM   22  C20 UNK     1      20.583  -2.325  35.635  1.00  0.00     0.210 C 
ENDBRANCH  15  21
ENDBRANCH   4  12
BRANCH   6  23
HETATM   23  C10 UNK     1      18.434   7.330  34.452  1.00  0.00     0.034 C 
HETATM   24  C18 UNK     1      19.525   8.398  34.417  1.00  0.00     0.010 C 
ENDBRANCH   6  23
TORSDOF 3
ENDMDL
MODEL 6
REMARK VINA RESULT:      -8.3     23.226     25.345
REMARK  3 active torsions:
REMARK  status: ('A' for Active; 'I' for Inactive)
REMARK    1  A    between atoms: C14_18  and  O3_3 
REMARK    2  A    between atoms: C2_6  and  C3_7 
REMARK    3  A    between atoms: C10_14  and  C5_9 
ROOT
HETATM    1  O2  UNK     1      18.440  -1.030  34.402  1.00  0.00    -0.275 OA
HETATM    2  O4  UNK     1      17.457  -0.148  36.268  1.00  0.00    -0.260 OA
HETATM    3  C1  UNK     1      18.903   0.429  32.502  1.00  0.00     0.012 A 
HETATM    4  C2  UNK     1      18.331   1.561  33.246  1.00  0.00     0.017 A 
HETATM    5  C4  UNK     1      18.940  -0.830  33.100  1.00  0.00     0.090 A 
HETATM    6  C5  UNK     1      19.953  -0.555  30.542  1.00  0.00    -0.058 A 
HETATM    7  C6  UNK     1      19.420   0.555  31.207  1.00  0.00     0.022 A 
HETATM    8  C11 UNK     1      17.862   1.337  34.485  1.00  0.00     0.097 A 
HETATM    9  C12 UNK     1      19.469  -1.945  32.451  1.00  0.00     0.039 A 
HETATM   10  C13 UNK     1      19.977  -1.803  31.163  1.00  0.00     0.010 A 
HETATM   11  C16 UNK     1      17.894   0.014  35.133  1.00  0.00     0.289 A 
ENDROOT
BRANCH   4  12
HETATM   12  C3  UNK     1      18.225   2.886  32.773  1.00  0.00     0.088 A 
HETATM   13  O1  UNK     1      17.816   3.909  33.570  1.00  0.00    -0.306 OA
HETATM   14  C8  UNK     1      17.830   5.039  32.807  1.00  0.00     0.119 A 
HETATM   15  C14 UNK     1      17.479   6.316  33.240  1.00  0.00     0.102 A 
HETATM   16  C7  UNK     1      18.250   4.740  31.515  1.00  0.00     0.003 A 
HETATM   17  C17 UNK     1      17.564   7.340  32.291  1.00  0.00     0.040 A 
HETATM   18  C19 UNK     1      17.981   7.081  30.982  1.00  0.00     0.004 A 
HETATM   19  C15 UNK     1      18.329   5.786  30.577  1.00  0.00     0.014 A 
HETATM   20  C9  UNK     1      18.503   3.344  31.504  1.00  0.00     0.052 A 
BRANCH  15  21
HETATM   21  O3  UNK     1      17.070   6.571  34.516  1.00  0.00    -0.353 OA
HETATM   22  C20 UNK     1      16.960   7.940  34.898  1.00  0.00     0.210 C 
ENDBRANCH  15  21
ENDBRANCH   4  12
BRANCH   6  23
HETATM   23  C10 UNK     1      20.499  -0.402  29.161  1.00  0.00     0.034 C 
HETATM   24  C18 UNK     1      19.412  -0.502  28.093  1.00  0.00     0.010 C 
ENDBRANCH   6  23
TORSDOF 3
ENDMDL
MODEL 7
REMARK VINA RESULT:      -8.3     27.284     29.897
REMARK  3 active torsions:
REMARK  status: ('A' for Active; 'I' for Inactive)
REMARK    1  A    between atoms: C14_18  and  O3_3 
REMARK    2  A    between atoms: C2_6  and  C3_7 
REMARK    3  A    between atoms: C10_14  and  C5_9 
ROOT
HETATM    1  O2  UNK     1      17.738   0.338  35.438  1.00  0.00    -0.275 OA
HETATM    2  O4  UNK     1      17.061   0.427  37.619  1.00  0.00    -0.260 OA
HETATM    3  C1  UNK     1      19.112  -1.537  34.697  1.00  0.00     0.012 A 
HETATM    4  C2  UNK     1      19.071  -2.091  36.059  1.00  0.00     0.017 A 
HETATM    5  C4  UNK     1      18.447  -0.342  34.428  1.00  0.00     0.090 A 
HETATM    6  C5  UNK     1      19.805  -1.589  32.367  1.00  0.00    -0.058 A 
HETATM    7  C6  UNK     1      19.795  -2.159  33.644  1.00  0.00     0.022 A 
HETATM    8  C11 UNK     1      18.386  -1.418  36.999  1.00  0.00     0.097 A 
HETATM    9  C12 UNK     1      18.447   0.238  33.159  1.00  0.00     0.039 A 
HETATM   10  C13 UNK     1      19.131  -0.392  32.125  1.00  0.00     0.010 A 
HETATM   11  C16 UNK     1      17.676  -0.155  36.732  1.00  0.00     0.289 A 
ENDROOT
BRANCH   4  12
HETATM   12  C3  UNK     1      19.693  -3.286  36.479  1.00  0.00     0.088 A 
HETATM   13  O1  UNK     1      19.382  -4.494  35.938  1.00  0.00    -0.306 OA
HETATM   14  C8  UNK     1      20.159  -5.422  36.564  1.00  0.00     0.119 A 
HETATM   15  C14 UNK     1      20.154  -6.792  36.307  1.00  0.00     0.102 A 
HETATM   16  C7  UNK     1      20.973  -4.808  37.510  1.00  0.00     0.003 A 
HETATM   17  C17 UNK     1      21.034  -7.570  37.065  1.00  0.00     0.040 A 
HETATM   18  C19 UNK     1      21.868  -6.992  38.026  1.00  0.00     0.004 A 
HETATM   19  C15 UNK     1      21.850  -5.611  38.262  1.00  0.00     0.014 A 
HETATM   20  C9  UNK     1      20.663  -3.425  37.447  1.00  0.00     0.052 A 
BRANCH  15  21
HETATM   21  O3  UNK     1      19.341  -7.359  35.370  1.00  0.00    -0.353 OA
HETATM   22  C20 UNK     1      18.020  -7.703  35.784  1.00  0.00     0.210 C 
ENDBRANCH  15  21
ENDBRANCH   4  12
BRANCH   6  23
HETATM   23  C10 UNK     1      20.538  -2.266  31.257  1.00  0.00     0.034 C 
HETATM   24  C18 UNK     1      20.428  -1.503  29.939  1.00  0.00     0.010 C 
ENDBRANCH   6  23
TORSDOF 3
ENDMDL
MODEL 8
REMARK VINA RESULT:      -8.3     23.754     25.930
REMARK  3 active torsions:
REMARK  status: ('A' for Active; 'I' for Inactive)
REMARK    1  A    between atoms: C14_18  and  O3_3 
REMARK    2  A    between atoms: C2_6  and  C3_7 
REMARK    3  A    between atoms: C10_14  and  C5_9 
ROOT
HETATM    1  O2  UNK     1      19.020   6.615  32.227  1.00  0.00    -0.275 OA
HETATM    2  O4  UNK     1      19.108   7.587  34.294  1.00  0.00    -0.260 OA
HETATM    3  C1  UNK     1      18.592   4.219  32.059  1.00  0.00     0.012 A 
HETATM    4  C2  UNK     1      18.517   4.141  33.526  1.00  0.00     0.017 A 
HETATM    5  C4  UNK     1      18.842   5.450  31.455  1.00  0.00     0.090 A 
HETATM    6  C5  UNK     1      18.506   3.231  29.840  1.00  0.00    -0.058 A 
HETATM    7  C6  UNK     1      18.423   3.103  31.230  1.00  0.00     0.022 A 
HETATM    8  C11 UNK     1      18.692   5.270  34.233  1.00  0.00     0.097 A 
HETATM    9  C12 UNK     1      18.927   5.593  30.070  1.00  0.00     0.039 A 
HETATM   10  C13 UNK     1      18.757   4.475  29.260  1.00  0.00     0.010 A 
HETATM   11  C16 UNK     1      18.955   6.579  33.611  1.00  0.00     0.289 A 
ENDROOT
BRANCH   4  12
HETATM   12  C3  UNK     1      18.272   2.970  34.276  1.00  0.00     0.088 A 
HETATM   13  O1  UNK     1      18.041   1.767  33.685  1.00  0.00    -0.306 OA
HETATM   14  C8  UNK     1      17.848   0.863  34.687  1.00  0.00     0.119 A 
HETATM   15  C14 UNK     1      17.581  -0.494  34.515  1.00  0.00     0.102 A 
HETATM   16  C7  UNK     1      17.956   1.487  35.925  1.00  0.00     0.003 A 
HETATM   17  C17 UNK     1      17.415  -1.247  35.681  1.00  0.00     0.040 A 
HETATM   18  C19 UNK     1      17.515  -0.658  36.944  1.00  0.00     0.004 A 
HETATM   19  C15 UNK     1      17.786   0.710  37.085  1.00  0.00     0.014 A 
HETATM   20  C9  UNK     1      18.230   2.852  35.647  1.00  0.00     0.052 A 
BRANCH  15  21
HETATM   21  O3  UNK     1      17.481  -1.072  33.283  1.00  0.00    -0.353 OA
HETATM   22  C20 UNK     1      18.700  -1.326  32.587  1.00  0.00     0.210 C 
ENDBRANCH  15  21
ENDBRANCH   4  12
BRANCH   6  23
HETATM   23  C10 UNK     1      18.323   2.031  28.971  1.00  0.00     0.034 C 
HETATM   24  C18 UNK     1      19.310   0.916  29.307  1.00  0.00     0.010 C 
ENDBRANCH   6  23
TORSDOF 3
ENDMDL
MODEL 9
REMARK VINA RESULT:      -8.2     24.369     26.688
REMARK  3 active torsions:
REMARK  status: ('A' for Active; 'I' for Inactive)
REMARK    1  A    between atoms: C14_18  and  O3_3 
REMARK    2  A    between atoms: C2_6  and  C3_7 
REMARK    3  A    between atoms: C10_14  and  C5_9 
ROOT
HETATM    1  O2  UNK     1      19.698   0.090  29.320  1.00  0.00    -0.275 OA
HETATM    2  O4  UNK     1      20.333  -2.105  29.256  1.00  0.00    -0.260 OA
HETATM    3  C1  UNK     1      18.943   1.047  31.433  1.00  0.00     0.012 A 
HETATM    4  C2  UNK     1      19.158  -0.254  32.086  1.00  0.00     0.017 A 
HETATM    5  C4  UNK     1      19.217   1.179  30.073  1.00  0.00     0.090 A 
HETATM    6  C5  UNK     1      18.281   3.385  31.451  1.00  0.00    -0.058 A 
HETATM    7  C6  UNK     1      18.470   2.172  32.120  1.00  0.00     0.022 A 
HETATM    8  C11 UNK     1      19.617  -1.273  31.339  1.00  0.00     0.097 A 
HETATM    9  C12 UNK     1      19.035   2.383  29.393  1.00  0.00     0.039 A 
HETATM   10  C13 UNK     1      18.563   3.491  30.090  1.00  0.00     0.010 A 
HETATM   11  C16 UNK     1      19.914  -1.150  29.901  1.00  0.00     0.289 A 
ENDROOT
BRANCH   4  12
HETATM   12  C3  UNK     1      18.925  -0.538  33.448  1.00  0.00     0.088 A 
HETATM   13  O1  UNK     1      19.597  -1.520  34.108  1.00  0.00    -0.306 OA
HETATM   14  C8  UNK     1      19.135  -1.524  35.391  1.00  0.00     0.119 A 
HETATM   15  C14 UNK     1      19.563  -2.380  36.404  1.00  0.00     0.102 A 
HETATM   16  C7  UNK     1      18.164  -0.542  35.556  1.00  0.00     0.003 A 
HETATM   17  C17 UNK     1      18.956  -2.216  37.654  1.00  0.00     0.040 A 
HETATM   18  C19 UNK     1      17.976  -1.241  37.860  1.00  0.00     0.004 A 
HETATM   19  C15 UNK     1      17.568  -0.395  36.821  1.00  0.00     0.014 A 
HETATM   20  C9  UNK     1      18.036   0.090  34.292  1.00  0.00     0.052 A 
BRANCH  15  21
HETATM   21  O3  UNK     1      20.518  -3.333  36.205  1.00  0.00    -0.353 OA
HETATM   22  C20 UNK     1      20.275  -4.621  36.768  1.00  0.00     0.210 C 
ENDBRANCH  15  21
ENDBRANCH   4  12
BRANCH   6  23
HETATM   23  C10 UNK     1      17.776   4.575  32.199  1.00  0.00     0.034 C 
HETATM   24  C18 UNK     1      18.300   4.625  33.632  1.00  0.00     0.010 C 
ENDBRANCH   6  23
TORSDOF 3
ENDMDL
MODEL 10
REMARK VINA RESULT:      -8.1     23.795     25.867
REMARK  3 active torsions:
REMARK  status: ('A' for Active; 'I' for Inactive)
REMARK    1  A    between atoms: C14_18  and  O3_3 
REMARK    2  A    between atoms: C2_6  and  C3_7 
REMARK    3  A    between atoms: C10_14  and  C5_9 
ROOT
HETATM    1  O2  UNK     1      19.108  -1.760  32.950  1.00  0.00    -0.275 OA
HETATM    2  O4  UNK     1      19.876  -2.068  30.819  1.00  0.00    -0.260 OA
HETATM    3  C1  UNK     1      18.429   0.474  33.656  1.00  0.00     0.012 A 
HETATM    4  C2  UNK     1      18.772   0.988  32.321  1.00  0.00     0.017 A 
HETATM    5  C4  UNK     1      18.608  -0.881  33.930  1.00  0.00     0.090 A 
HETATM    6  C5  UNK     1      17.615   0.751  35.930  1.00  0.00    -0.058 A 
HETATM    7  C6  UNK     1      17.925   1.289  34.677  1.00  0.00     0.022 A 
HETATM    8  C11 UNK     1      19.248   0.123  31.410  1.00  0.00     0.097 A 
HETATM    9  C12 UNK     1      18.302  -1.432  35.174  1.00  0.00     0.039 A 
HETATM   10  C13 UNK     1      17.804  -0.608  36.179  1.00  0.00     0.010 A 
HETATM   11  C16 UNK     1      19.441  -1.312  31.682  1.00  0.00     0.289 A 
ENDROOT
BRANCH   4  12
HETATM   12  C3  UNK     1      18.646   2.329  31.899  1.00  0.00     0.088 A 
HETATM   13  O1  UNK     1      18.107   3.291  32.695  1.00  0.00    -0.306 OA
HETATM   14  C8  UNK     1      18.140   4.456  31.988  1.00  0.00     0.119 A 
HETATM   15  C14 UNK     1      17.681   5.692  32.440  1.00  0.00     0.102 A 
HETATM   16  C7  UNK     1      18.701   4.242  30.734  1.00  0.00     0.003 A 
HETATM   17  C17 UNK     1      17.808   6.764  31.551  1.00  0.00     0.040 A 
HETATM   18  C19 UNK     1      18.366   6.591  30.281  1.00  0.00     0.004 A 
HETATM   19  C15 UNK     1      18.818   5.335  29.856  1.00  0.00     0.014 A 
HETATM   20  C9  UNK     1      19.025   2.861  30.687  1.00  0.00     0.052 A 
BRANCH  15  21
HETATM   21  O3  UNK     1      17.135   5.865  33.677  1.00  0.00    -0.353 OA
HETATM   22  C20 UNK     1      17.408   7.098  34.338  1.00  0.00     0.210 C 
ENDBRANCH  15  21
ENDBRANCH   4  12
BRANCH   6  23
HETATM   23  C10 UNK     1      17.080   1.635  37.007  1.00  0.00     0.034 C 
HETATM   24  C18 UNK     1      17.644   1.282  38.382  1.00  0.00     0.010 C 
ENDBRANCH   6  23
TORSDOF 3
ENDMDL
