MODEL 1
REMARK VINA RESULT:      -6.9      0.000      0.000
REMARK  3 active torsions:
REMARK  status: ('A' for Active; 'I' for Inactive)
REMARK    1  A    between atoms: C11_14  and  O2_2 
REMARK    2  A    between atoms: C6_9  and  O2_2 
REMARK    3  A    between atoms: C11_14  and  C12_15 
ROOT
HETATM    1  O1  UNK     1      19.294  -0.163  32.792  1.00  0.00    -0.275 OA
HETATM    2  O3  UNK     1      20.129  -2.228  33.311  1.00  0.00    -0.260 OA
HETATM    3  C1  UNK     1      19.376   0.614  30.477  1.00  0.00     0.004 A 
HETATM    4  C2  UNK     1      19.033   0.819  31.815  1.00  0.00     0.092 A 
HETATM    5  C3  UNK     1      20.018  -0.654  30.102  1.00  0.00    -0.043 A 
HETATM    6  C4  UNK     1      19.083   1.637  29.567  1.00  0.00     0.017 A 
HETATM    7  C5  UNK     1      18.422   1.994  32.255  1.00  0.00     0.075 A 
HETATM    8  C6  UNK     1      18.140   2.998  31.336  1.00  0.00     0.071 A 
HETATM    9  C7  UNK     1      18.469   2.820  29.993  1.00  0.00     0.038 A 
HETATM   10  C8  UNK     1      20.253  -1.570  31.053  1.00  0.00     0.090 A 
HETATM   11  C9  UNK     1      20.398  -0.906  28.672  1.00  0.00     0.049 C 
HETATM   12  C10 UNK     1      19.898  -1.367  32.468  1.00  0.00     0.288 A 
ENDROOT
BRANCH   8  13
HETATM   13  O2  UNK     1      17.544   4.151  31.746  1.00  0.00    -0.347 OA
BRANCH  13  14
HETATM   14  C11 UNK     1      18.273   4.972  32.656  1.00  0.00     0.202 C 
BRANCH  14  15
HETATM   15  C12 UNK     1      18.870   6.113  31.900  1.00  0.00    -0.011 C 
HETATM   16  C13 UNK     1      19.982   6.021  31.162  1.00  0.00     0.009 C 
ENDBRANCH  14  15
ENDBRANCH  13  14
ENDBRANCH   8  13
TORSDOF 3
ENDMDL
MODEL 2
REMARK VINA RESULT:      -6.8     22.977     24.608
REMARK  3 active torsions:
REMARK  status: ('A' for Active; 'I' for Inactive)
REMARK    1  A    between atoms: C11_14  and  O2_2 
REMARK    2  A    between atoms: C6_9  and  O2_2 
REMARK    3  A    between atoms: C11_14  and  C12_15 
ROOT
HETATM    1  O1  UNK     1       9.473   5.540   9.542  1.00  0.00    -0.275 OA
HETATM    2  O3  UNK     1       7.213   5.667   9.220  1.00  0.00    -0.260 OA
HETATM    3  C1  UNK     1      10.973   5.918   7.651  1.00  0.00     0.004 A 
HETATM    4  C2  UNK     1      10.772   5.627   9.001  1.00  0.00     0.092 A 
HETATM    5  C3  UNK     1       9.799   6.134   6.796  1.00  0.00    -0.043 A 
HETATM    6  C4  UNK     1      12.294   5.986   7.190  1.00  0.00     0.017 A 
HETATM    7  C5  UNK     1      11.832   5.407   9.882  1.00  0.00     0.075 A 
HETATM    8  C6  UNK     1      13.137   5.479   9.406  1.00  0.00     0.071 A 
HETATM    9  C7  UNK     1      13.368   5.769   8.062  1.00  0.00     0.038 A 
HETATM   10  C8  UNK     1       8.575   6.046   7.337  1.00  0.00     0.090 A 
HETATM   11  C9  UNK     1       9.980   6.449   5.339  1.00  0.00     0.049 C 
HETATM   12  C10 UNK     1       8.347   5.739   8.760  1.00  0.00     0.288 A 
ENDROOT
BRANCH   8  13
HETATM   13  O2  UNK     1      14.184   5.269  10.248  1.00  0.00    -0.347 OA
BRANCH  13  14
HETATM   14  C11 UNK     1      15.487   5.573   9.754  1.00  0.00     0.202 C 
BRANCH  14  15
HETATM   15  C12 UNK     1      15.976   6.816  10.422  1.00  0.00    -0.011 C 
HETATM   16  C13 UNK     1      17.190   7.343  10.225  1.00  0.00     0.009 C 
ENDBRANCH  14  15
ENDBRANCH  13  14
ENDBRANCH   8  13
TORSDOF 3
ENDMDL
MODEL 3
REMARK VINA RESULT:      -6.7      3.082      7.211
REMARK  3 active torsions:
REMARK  status: ('A' for Active; 'I' for Inactive)
REMARK    1  A    between atoms: C11_14  and  O2_2 
REMARK    2  A    between atoms: C6_9  and  O2_2 
REMARK    3  A    between atoms: C11_14  and  C12_15 
ROOT
HETATM    1  O1  UNK     1      16.468   6.588  33.115  1.00  0.00    -0.275 OA
HETATM    2  O3  UNK     1      15.174   7.851  34.516  1.00  0.00    -0.260 OA
HETATM    3  C1  UNK     1      18.876   6.989  33.026  1.00  0.00     0.004 A 
HETATM    4  C2  UNK     1      17.746   6.290  32.600  1.00  0.00     0.092 A 
HETATM    5  C3  UNK     1      18.711   8.050  34.029  1.00  0.00    -0.043 A 
HETATM    6  C4  UNK     1      20.110   6.633  32.467  1.00  0.00     0.017 A 
HETATM    7  C5  UNK     1      17.815   5.269  31.651  1.00  0.00     0.075 A 
HETATM    8  C6  UNK     1      19.049   4.931  31.106  1.00  0.00     0.071 A 
HETATM    9  C7  UNK     1      20.195   5.610  31.515  1.00  0.00     0.038 A 
HETATM   10  C8  UNK     1      17.483   8.311  34.502  1.00  0.00     0.090 A 
HETATM   11  C9  UNK     1      19.906   8.820  34.509  1.00  0.00     0.049 C 
HETATM   12  C10 UNK     1      16.281   7.583  34.061  1.00  0.00     0.288 A 
ENDROOT
BRANCH   8  13
HETATM   13  O2  UNK     1      19.137   3.938  30.180  1.00  0.00    -0.347 OA
BRANCH  13  14
HETATM   14  C11 UNK     1      18.345   2.772  30.399  1.00  0.00     0.202 C 
BRANCH  14  15
HETATM   15  C12 UNK     1      17.980   2.184  29.076  1.00  0.00    -0.011 C 
HETATM   16  C13 UNK     1      18.459   1.023  28.617  1.00  0.00     0.009 C 
ENDBRANCH  14  15
ENDBRANCH  13  14
ENDBRANCH   8  13
TORSDOF 3
ENDMDL
MODEL 4
REMARK VINA RESULT:      -6.7      1.723      2.598
REMARK  3 active torsions:
REMARK  status: ('A' for Active; 'I' for Inactive)
REMARK    1  A    between atoms: C11_14  and  O2_2 
REMARK    2  A    between atoms: C6_9  and  O2_2 
REMARK    3  A    between atoms: C11_14  and  C12_15 
ROOT
HETATM    1  O1  UNK     1      19.552   0.985  29.420  1.00  0.00    -0.275 OA
HETATM    2  O3  UNK     1      20.486  -0.658  28.133  1.00  0.00    -0.260 OA
HETATM    3  C1  UNK     1      19.081   0.537  31.775  1.00  0.00     0.004 A 
HETATM    4  C2  UNK     1      19.066   1.399  30.678  1.00  0.00     0.092 A 
HETATM    5  C3  UNK     1      19.614  -0.820  31.597  1.00  0.00    -0.043 A 
HETATM    6  C4  UNK     1      18.581   1.023  32.990  1.00  0.00     0.017 A 
HETATM    7  C5  UNK     1      18.577   2.703  30.761  1.00  0.00     0.075 A 
HETATM    8  C6  UNK     1      18.084   3.167  31.975  1.00  0.00     0.071 A 
HETATM    9  C7  UNK     1      18.087   2.329  33.089  1.00  0.00     0.038 A 
HETATM   10  C8  UNK     1      20.070  -1.186  30.390  1.00  0.00     0.090 A 
HETATM   11  C9  UNK     1      19.644  -1.772  32.758  1.00  0.00     0.049 C 
HETATM   12  C10 UNK     1      20.061  -0.288  29.223  1.00  0.00     0.288 A 
ENDROOT
BRANCH   8  13
HETATM   13  O2  UNK     1      17.603   4.436  32.077  1.00  0.00    -0.347 OA
BRANCH  13  14
HETATM   14  C11 UNK     1      18.219   5.289  33.040  1.00  0.00     0.202 C 
BRANCH  14  15
HETATM   15  C12 UNK     1      19.241   6.132  32.350  1.00  0.00    -0.011 C 
HETATM   16  C13 UNK     1      20.421   6.463  32.885  1.00  0.00     0.009 C 
ENDBRANCH  14  15
ENDBRANCH  13  14
ENDBRANCH   8  13
TORSDOF 3
ENDMDL
MODEL 5
REMARK VINA RESULT:      -6.6      3.714      5.892
REMARK  3 active torsions:
REMARK  status: ('A' for Active; 'I' for Inactive)
REMARK    1  A    between atoms: C11_14  and  O2_2 
REMARK    2  A    between atoms: C6_9  and  O2_2 
REMARK    3  A    between atoms: C11_14  and  C12_15 
ROOT
HETATM    1  O1  UNK     1      17.147  -0.257  33.831  1.00  0.00    -0.275 OA
HETATM    2  O3  UNK     1      15.496   0.486  35.229  1.00  0.00    -0.260 OA
HETATM    3  C1  UNK     1      18.956  -1.627  34.738  1.00  0.00     0.004 A 
HETATM    4  C2  UNK     1      18.341  -0.987  33.661  1.00  0.00     0.092 A 
HETATM    5  C3  UNK     1      18.332  -1.527  36.064  1.00  0.00    -0.043 A 
HETATM    6  C4  UNK     1      20.140  -2.331  34.486  1.00  0.00     0.017 A 
HETATM    7  C5  UNK     1      18.868  -1.031  32.369  1.00  0.00     0.075 A 
HETATM    8  C6  UNK     1      20.045  -1.735  32.139  1.00  0.00     0.071 A 
HETATM    9  C7  UNK     1      20.680  -2.385  33.196  1.00  0.00     0.038 A 
HETATM   10  C8  UNK     1      17.195  -0.827  36.197  1.00  0.00     0.090 A 
HETATM   11  C9  UNK     1      18.967  -2.204  37.244  1.00  0.00     0.049 C 
HETATM   12  C10 UNK     1      16.536  -0.146  35.070  1.00  0.00     0.288 A 
ENDROOT
BRANCH   8  13
HETATM   13  O2  UNK     1      20.574  -1.790  30.887  1.00  0.00    -0.347 OA
BRANCH  13  14
HETATM   14  C11 UNK     1      20.683  -0.560  30.172  1.00  0.00     0.202 C 
BRANCH  14  15
HETATM   15  C12 UNK     1      20.234  -0.781  28.765  1.00  0.00    -0.011 C 
HETATM   16  C13 UNK     1      19.146  -0.217  28.231  1.00  0.00     0.009 C 
ENDBRANCH  14  15
ENDBRANCH  13  14
ENDBRANCH   8  13
TORSDOF 3
ENDMDL
MODEL 6
REMARK VINA RESULT:      -6.5     22.500     24.051
REMARK  3 active torsions:
REMARK  status: ('A' for Active; 'I' for Inactive)
REMARK    1  A    between atoms: C11_14  and  O2_2 
REMARK    2  A    between atoms: C6_9  and  O2_2 
REMARK    3  A    between atoms: C11_14  and  C12_15 
ROOT
HETATM    1  O1  UNK     1      14.007   5.054   9.383  1.00  0.00    -0.275 OA
HETATM    2  O3  UNK     1      15.924   3.873   9.785  1.00  0.00    -0.260 OA
HETATM    3  C1  UNK     1      14.032   7.486   9.609  1.00  0.00     0.004 A 
HETATM    4  C2  UNK     1      13.353   6.301   9.322  1.00  0.00     0.092 A 
HETATM    5  C3  UNK     1      15.452   7.412   9.979  1.00  0.00    -0.043 A 
HETATM    6  C4  UNK     1      13.311   8.685   9.525  1.00  0.00     0.017 A 
HETATM    7  C5  UNK     1      12.004   6.283   8.963  1.00  0.00     0.075 A 
HETATM    8  C6  UNK     1      11.306   7.483   8.886  1.00  0.00     0.071 A 
HETATM    9  C7  UNK     1      11.959   8.683   9.166  1.00  0.00     0.038 A 
HETATM   10  C8  UNK     1      16.048   6.212  10.028  1.00  0.00     0.090 A 
HETATM   11  C9  UNK     1      16.211   8.668  10.293  1.00  0.00     0.049 C 
HETATM   12  C10 UNK     1      15.345   4.953   9.729  1.00  0.00     0.288 A 
ENDROOT
BRANCH   8  13
HETATM   13  O2  UNK     1       9.991   7.487   8.538  1.00  0.00    -0.347 OA
BRANCH  13  14
HETATM   14  C11 UNK     1       9.397   6.227   8.228  1.00  0.00     0.202 C 
BRANCH  14  15
HETATM   15  C12 UNK     1       8.975   6.235   6.796  1.00  0.00    -0.011 C 
HETATM   16  C13 UNK     1       9.824   6.148   5.766  1.00  0.00     0.009 C 
ENDBRANCH  14  15
ENDBRANCH  13  14
ENDBRANCH   8  13
TORSDOF 3
ENDMDL
MODEL 7
REMARK VINA RESULT:      -6.4      2.719      4.827
REMARK  3 active torsions:
REMARK  status: ('A' for Active; 'I' for Inactive)
REMARK    1  A    between atoms: C11_14  and  O2_2 
REMARK    2  A    between atoms: C6_9  and  O2_2 
REMARK    3  A    between atoms: C11_14  and  C12_15 
ROOT
HETATM    1  O1  UNK     1      18.465   1.863  31.411  1.00  0.00    -0.275 OA
HETATM    2  O3  UNK     1      18.601   3.037  29.452  1.00  0.00    -0.260 OA
HETATM    3  C1  UNK     1      19.385  -0.398  31.515  1.00  0.00     0.004 A 
HETATM    4  C2  UNK     1      18.736   0.677  32.123  1.00  0.00     0.092 A 
HETATM    5  C3  UNK     1      19.785  -0.273  30.107  1.00  0.00    -0.043 A 
HETATM    6  C4  UNK     1      19.618  -1.541  32.291  1.00  0.00     0.017 A 
HETATM    7  C5  UNK     1      18.322   0.640  33.456  1.00  0.00     0.075 A 
HETATM    8  C6  UNK     1      18.561  -0.503  34.210  1.00  0.00     0.071 A 
HETATM    9  C7  UNK     1      19.209  -1.592  33.629  1.00  0.00     0.038 A 
HETATM   10  C8  UNK     1      19.516   0.867  29.454  1.00  0.00     0.090 A 
HETATM   11  C9  UNK     1      20.486  -1.411  29.423  1.00  0.00     0.049 C 
HETATM   12  C10 UNK     1      18.831   2.009  30.082  1.00  0.00     0.288 A 
ENDROOT
BRANCH   8  13
HETATM   13  O2  UNK     1      18.166  -0.559  35.511  1.00  0.00    -0.347 OA
BRANCH  13  14
HETATM   14  C11 UNK     1      16.771  -0.408  35.773  1.00  0.00     0.202 C 
BRANCH  14  15
HETATM   15  C12 UNK     1      16.599   0.506  36.941  1.00  0.00    -0.011 C 
HETATM   16  C13 UNK     1      17.591   0.862  37.765  1.00  0.00     0.009 C 
ENDBRANCH  14  15
ENDBRANCH  13  14
ENDBRANCH   8  13
TORSDOF 3
ENDMDL
MODEL 8
REMARK VINA RESULT:      -6.4      2.834      5.205
REMARK  3 active torsions:
REMARK  status: ('A' for Active; 'I' for Inactive)
REMARK    1  A    between atoms: C11_14  and  O2_2 
REMARK    2  A    between atoms: C6_9  and  O2_2 
REMARK    3  A    between atoms: C11_14  and  C12_15 
ROOT
HETATM    1  O1  UNK     1      18.263   1.770  30.652  1.00  0.00    -0.275 OA
HETATM    2  O3  UNK     1      18.372   1.585  28.374  1.00  0.00    -0.260 OA
HETATM    3  C1  UNK     1      18.533   3.966  31.687  1.00  0.00     0.004 A 
HETATM    4  C2  UNK     1      18.319   2.591  31.796  1.00  0.00     0.092 A 
HETATM    5  C3  UNK     1      18.702   4.548  30.348  1.00  0.00    -0.043 A 
HETATM    6  C4  UNK     1      18.575   4.713  32.871  1.00  0.00     0.017 A 
HETATM    7  C5  UNK     1      18.150   1.959  33.029  1.00  0.00     0.075 A 
HETATM    8  C6  UNK     1      18.196   2.718  34.193  1.00  0.00     0.071 A 
HETATM    9  C7  UNK     1      18.407   4.093  34.114  1.00  0.00     0.038 A 
HETATM   10  C8  UNK     1      18.643   3.742  29.277  1.00  0.00     0.090 A 
HETATM   11  C9  UNK     1      18.933   6.023  30.196  1.00  0.00     0.049 C 
HETATM   12  C10 UNK     1      18.419   2.290  29.377  1.00  0.00     0.288 A 
ENDROOT
BRANCH   8  13
HETATM   13  O2  UNK     1      18.033   2.120  35.404  1.00  0.00    -0.347 OA
BRANCH  13  14
HETATM   14  C11 UNK     1      17.220   0.949  35.447  1.00  0.00     0.202 C 
BRANCH  14  15
HETATM   15  C12 UNK     1      16.843   0.678  36.866  1.00  0.00    -0.011 C 
HETATM   16  C13 UNK     1      17.504   1.167  37.922  1.00  0.00     0.009 C 
ENDBRANCH  14  15
ENDBRANCH  13  14
ENDBRANCH   8  13
TORSDOF 3
ENDMDL
MODEL 9
REMARK VINA RESULT:      -6.4     22.183     23.955
REMARK  3 active torsions:
REMARK  status: ('A' for Active; 'I' for Inactive)
REMARK    1  A    between atoms: C11_14  and  O2_2 
REMARK    2  A    between atoms: C6_9  and  O2_2 
REMARK    3  A    between atoms: C11_14  and  C12_15 
ROOT
HETATM    1  O1  UNK     1      12.890   8.326  10.951  1.00  0.00    -0.275 OA
HETATM    2  O3  UNK     1      13.546   9.760  12.607  1.00  0.00    -0.260 OA
HETATM    3  C1  UNK     1      14.574   6.990   9.791  1.00  0.00     0.004 A 
HETATM    4  C2  UNK     1      13.244   7.369   9.979  1.00  0.00     0.092 A 
HETATM    5  C3  UNK     1      15.608   7.610  10.630  1.00  0.00    -0.043 A 
HETATM    6  C4  UNK     1      14.844   6.033   8.804  1.00  0.00     0.017 A 
HETATM    7  C5  UNK     1      12.202   6.829   9.223  1.00  0.00     0.075 A 
HETATM    8  C6  UNK     1      12.490   5.881   8.248  1.00  0.00     0.071 A 
HETATM    9  C7  UNK     1      13.809   5.482   8.039  1.00  0.00     0.038 A 
HETATM   10  C8  UNK     1      15.242   8.517  11.548  1.00  0.00     0.090 A 
HETATM   11  C9  UNK     1      17.048   7.224  10.454  1.00  0.00     0.049 C 
HETATM   12  C10 UNK     1      13.843   8.927  11.758  1.00  0.00     0.288 A 
ENDROOT
BRANCH   8  13
HETATM   13  O2  UNK     1      11.488   5.343   7.502  1.00  0.00    -0.347 OA
BRANCH  13  14
HETATM   14  C11 UNK     1      11.175   5.991   6.270  1.00  0.00     0.202 C 
BRANCH  14  15
HETATM   15  C12 UNK     1       9.692   5.998   6.094  1.00  0.00    -0.011 C 
HETATM   16  C13 UNK     1       8.831   6.421   7.027  1.00  0.00     0.009 C 
ENDBRANCH  14  15
ENDBRANCH  13  14
ENDBRANCH   8  13
TORSDOF 3
ENDMDL
MODEL 10
REMARK VINA RESULT:      -6.3      8.064     11.061
REMARK  3 active torsions:
REMARK  status: ('A' for Active; 'I' for Inactive)
REMARK    1  A    between atoms: C11_14  and  O2_2 
REMARK    2  A    between atoms: C6_9  and  O2_2 
REMARK    3  A    between atoms: C11_14  and  C12_15 
ROOT
HETATM    1  O1  UNK     1      21.447  -8.629  35.529  1.00  0.00    -0.275 OA
HETATM    2  O3  UNK     1      21.877 -10.549  34.363  1.00  0.00    -0.260 OA
HETATM    3  C1  UNK     1      20.269  -8.766  37.664  1.00  0.00     0.004 A 
HETATM    4  C2  UNK     1      20.892  -8.013  36.668  1.00  0.00     0.092 A 
HETATM    5  C3  UNK     1      20.200 -10.225  37.504  1.00  0.00    -0.043 A 
HETATM    6  C4  UNK     1      19.742  -8.079  38.766  1.00  0.00     0.017 A 
HETATM    7  C5  UNK     1      20.999  -6.623  36.743  1.00  0.00     0.075 A 
HETATM    8  C6  UNK     1      20.470  -5.959  37.844  1.00  0.00     0.071 A 
HETATM    9  C7  UNK     1      19.843  -6.686  38.855  1.00  0.00     0.038 A 
HETATM   10  C8  UNK     1      20.737 -10.784  36.410  1.00  0.00     0.090 A 
HETATM   11  C9  UNK     1      19.537 -11.064  38.557  1.00  0.00     0.049 C 
HETATM   12  C10 UNK     1      21.397 -10.002  35.350  1.00  0.00     0.288 A 
ENDROOT
BRANCH   8  13
HETATM   13  O2  UNK     1      20.564  -4.605  37.935  1.00  0.00    -0.347 OA
BRANCH  13  14
HETATM   14  C11 UNK     1      20.164  -3.847  36.795  1.00  0.00     0.202 C 
BRANCH  14  15
HETATM   15  C12 UNK     1      19.478  -2.605  37.260  1.00  0.00    -0.011 C 
HETATM   16  C13 UNK     1      18.329  -2.150  36.749  1.00  0.00     0.009 C 
ENDBRANCH  14  15
ENDBRANCH  13  14
ENDBRANCH   8  13
TORSDOF 3
ENDMDL
