MODEL 1
REMARK VINA RESULT:      -7.5      0.000      0.000
REMARK  2 active torsions:
REMARK  status: ('A' for Active; 'I' for Inactive)
REMARK    1  A    between atoms: C6_10  and  O2_2 
REMARK    2  A    between atoms: C10_14  and  C4_8 
ROOT
HETATM    1  O1  UNK     1      19.314   1.026  15.218  1.00  0.00    -0.274 OA
HETATM    2  O3  UNK     1      19.261  -0.589  13.603  1.00  0.00    -0.259 OA
HETATM    3  C1  UNK     1      18.959   0.410  17.543  1.00  0.00     0.002 A 
HETATM    4  C2  UNK     1      19.211   1.380  16.577  1.00  0.00     0.089 A 
HETATM    5  C3  UNK     1      18.805  -0.975  17.126  1.00  0.00     0.035 A 
HETATM    6  C4  UNK     1      18.904  -1.306  15.833  1.00  0.00     0.086 A 
HETATM    7  C5  UNK     1      18.864   0.800  18.882  1.00  0.00     0.051 A 
HETATM    8  C6  UNK     1      19.020   2.145  19.231  1.00  0.00     0.069 A 
HETATM    9  C7  UNK     1      19.368   2.724  16.911  1.00  0.00     0.041 A 
HETATM   10  C8  UNK     1      19.272   3.104  18.247  1.00  0.00     0.039 A 
HETATM   11  C9  UNK     1      19.171  -0.291  14.789  1.00  0.00     0.302 A 
ENDROOT
BRANCH   6  12
HETATM   12  C10 UNK     1      18.733  -2.727  15.512  1.00  0.00     0.161 C 
HETATM   13  O4  UNK     1      17.624  -3.172  15.216  1.00  0.00    -0.293 OA
HETATM   14  C11 UNK     1      19.952  -3.611  15.550  1.00  0.00     0.097 C 
ENDBRANCH   6  12
BRANCH   8  15
HETATM   15  O2  UNK     1      18.927   2.521  20.537  1.00  0.00    -0.356 OA
HETATM   16  C12 UNK     1      19.788   1.899  21.469  1.00  0.00     0.210 C 
ENDBRANCH   8  15
TORSDOF 2
ENDMDL
MODEL 2
REMARK VINA RESULT:      -6.8     11.990     14.294
REMARK  2 active torsions:
REMARK  status: ('A' for Active; 'I' for Inactive)
REMARK    1  A    between atoms: C6_10  and  O2_2 
REMARK    2  A    between atoms: C10_14  and  C4_8 
ROOT
HETATM    1  O1  UNK     1      18.876   1.463  28.531  1.00  0.00    -0.274 OA
HETATM    2  O3  UNK     1      18.075   3.602  28.490  1.00  0.00    -0.259 OA
HETATM    3  C1  UNK     1      19.546   0.473  30.649  1.00  0.00     0.002 A 
HETATM    4  C2  UNK     1      19.385   0.377  29.270  1.00  0.00     0.089 A 
HETATM    5  C3  UNK     1      19.179   1.713  31.316  1.00  0.00     0.035 A 
HETATM    6  C4  UNK     1      18.695   2.742  30.609  1.00  0.00     0.086 A 
HETATM    7  C5  UNK     1      20.054  -0.626  31.347  1.00  0.00     0.051 A 
HETATM    8  C6  UNK     1      20.392  -1.796  30.659  1.00  0.00     0.069 A 
HETATM    9  C7  UNK     1      19.718  -0.782  28.572  1.00  0.00     0.041 A 
HETATM   10  C8  UNK     1      20.224  -1.873  29.275  1.00  0.00     0.039 A 
HETATM   11  C9  UNK     1      18.516   2.662  29.142  1.00  0.00     0.302 A 
ENDROOT
BRANCH   6  12
HETATM   12  C10 UNK     1      18.354   3.949  31.370  1.00  0.00     0.161 C 
HETATM   13  O4  UNK     1      17.469   3.918  32.226  1.00  0.00    -0.293 OA
HETATM   14  C11 UNK     1      19.122   5.210  31.076  1.00  0.00     0.097 C 
ENDBRANCH   6  12
BRANCH   8  15
HETATM   15  O2  UNK     1      20.886  -2.864  31.344  1.00  0.00    -0.356 OA
HETATM   16  C12 UNK     1      21.001  -2.757  32.748  1.00  0.00     0.210 C 
ENDBRANCH   8  15
TORSDOF 2
ENDMDL
MODEL 3
REMARK VINA RESULT:      -6.7     12.086     15.906
REMARK  2 active torsions:
REMARK  status: ('A' for Active; 'I' for Inactive)
REMARK    1  A    between atoms: C6_10  and  O2_2 
REMARK    2  A    between atoms: C10_14  and  C4_8 
ROOT
HETATM    1  O1  UNK     1      20.615  -2.442  32.249  1.00  0.00    -0.274 OA
HETATM    2  O3  UNK     1      20.514  -3.255  34.381  1.00  0.00    -0.259 OA
HETATM    3  C1  UNK     1      19.317  -0.474  31.652  1.00  0.00     0.002 A 
HETATM    4  C2  UNK     1      20.206  -1.484  31.300  1.00  0.00     0.089 A 
HETATM    5  C3  UNK     1      18.816  -0.422  33.018  1.00  0.00     0.035 A 
HETATM    6  C4  UNK     1      19.208  -1.334  33.916  1.00  0.00     0.086 A 
HETATM    7  C5  UNK     1      18.935   0.457  30.683  1.00  0.00     0.051 A 
HETATM    8  C6  UNK     1      19.445   0.363  29.384  1.00  0.00     0.069 A 
HETATM    9  C7  UNK     1      20.721  -1.591  30.010  1.00  0.00     0.041 A 
HETATM   10  C8  UNK     1      20.336  -0.659  29.049  1.00  0.00     0.039 A 
HETATM   11  C9  UNK     1      20.153  -2.417  33.563  1.00  0.00     0.302 A 
ENDROOT
BRANCH   6  12
HETATM   12  C10 UNK     1      18.649  -1.197  35.266  1.00  0.00     0.161 C 
HETATM   13  O4  UNK     1      19.380  -1.260  36.254  1.00  0.00    -0.293 OA
HETATM   14  C11 UNK     1      17.166  -0.972  35.396  1.00  0.00     0.097 C 
ENDBRANCH   6  12
BRANCH   8  15
HETATM   15  O2  UNK     1      19.070   1.273  28.443  1.00  0.00    -0.356 OA
HETATM   16  C12 UNK     1      17.913   2.045  28.690  1.00  0.00     0.210 C 
ENDBRANCH   8  15
TORSDOF 2
ENDMDL
MODEL 4
REMARK VINA RESULT:      -6.7     12.212     14.941
REMARK  2 active torsions:
REMARK  status: ('A' for Active; 'I' for Inactive)
REMARK    1  A    between atoms: C6_10  and  O2_2 
REMARK    2  A    between atoms: C10_14  and  C4_8 
ROOT
HETATM    1  O1  UNK     1      18.398   1.835  32.683  1.00  0.00    -0.274 OA
HETATM    2  O3  UNK     1      18.708  -0.247  31.797  1.00  0.00    -0.259 OA
HETATM    3  C1  UNK     1      18.595   3.790  31.250  1.00  0.00     0.002 A 
HETATM    4  C2  UNK     1      18.357   3.232  32.502  1.00  0.00     0.089 A 
HETATM    5  C3  UNK     1      18.886   2.909  30.130  1.00  0.00     0.035 A 
HETATM    6  C4  UNK     1      18.923   1.582  30.307  1.00  0.00     0.086 A 
HETATM    7  C5  UNK     1      18.545   5.180  31.110  1.00  0.00     0.051 A 
HETATM    8  C6  UNK     1      18.261   5.984  32.219  1.00  0.00     0.069 A 
HETATM    9  C7  UNK     1      18.074   4.021  33.615  1.00  0.00     0.041 A 
HETATM   10  C8  UNK     1      18.025   5.405  33.468  1.00  0.00     0.039 A 
HETATM   11  C9  UNK     1      18.674   0.967  31.630  1.00  0.00     0.302 A 
ENDROOT
BRANCH   6  12
HETATM   12  C10 UNK     1      19.225   0.777  29.118  1.00  0.00     0.161 C 
HETATM   13  O4  UNK     1      18.486   0.815  28.134  1.00  0.00    -0.293 OA
HETATM   14  C11 UNK     1      20.462  -0.082  29.142  1.00  0.00     0.097 C 
ENDBRANCH   6  12
BRANCH   8  15
HETATM   15  O2  UNK     1      18.214   7.338  32.078  1.00  0.00    -0.356 OA
HETATM   16  C12 UNK     1      18.239   8.127  33.250  1.00  0.00     0.210 C 
ENDBRANCH   8  15
TORSDOF 2
ENDMDL
MODEL 5
REMARK VINA RESULT:      -6.6     12.263     15.760
REMARK  2 active torsions:
REMARK  status: ('A' for Active; 'I' for Inactive)
REMARK    1  A    between atoms: C6_10  and  O2_2 
REMARK    2  A    between atoms: C10_14  and  C4_8 
ROOT
HETATM    1  O1  UNK     1      18.330   2.261  32.157  1.00  0.00    -0.274 OA
HETATM    2  O3  UNK     1      18.696   2.881  29.990  1.00  0.00    -0.259 OA
HETATM    3  C1  UNK     1      18.766  -0.032  32.840  1.00  0.00     0.002 A 
HETATM    4  C2  UNK     1      18.351   1.260  33.148  1.00  0.00     0.089 A 
HETATM    5  C3  UNK     1      19.179  -0.333  31.478  1.00  0.00     0.035 A 
HETATM    6  C4  UNK     1      19.157   0.623  30.540  1.00  0.00     0.086 A 
HETATM    7  C5  UNK     1      18.773  -0.998  33.850  1.00  0.00     0.051 A 
HETATM    8  C6  UNK     1      18.366  -0.658  35.145  1.00  0.00     0.069 A 
HETATM    9  C7  UNK     1      17.942   1.612  34.433  1.00  0.00     0.041 A 
HETATM   10  C8  UNK     1      17.952   0.644  35.435  1.00  0.00     0.039 A 
HETATM   11  C9  UNK     1      18.719   2.003  30.845  1.00  0.00     0.302 A 
ENDROOT
BRANCH   6  12
HETATM   12  C10 UNK     1      19.592   0.222  29.197  1.00  0.00     0.161 C 
HETATM   13  O4  UNK     1      18.940   0.552  28.205  1.00  0.00    -0.293 OA
HETATM   14  C11 UNK     1      20.854  -0.590  29.076  1.00  0.00     0.097 C 
ENDBRANCH   6  12
BRANCH   8  15
HETATM   15  O2  UNK     1      18.375  -1.602  36.126  1.00  0.00    -0.356 OA
HETATM   16  C12 UNK     1      18.028  -1.200  37.436  1.00  0.00     0.210 C 
ENDBRANCH   8  15
TORSDOF 2
ENDMDL
MODEL 6
REMARK VINA RESULT:      -6.5     13.685     18.088
REMARK  2 active torsions:
REMARK  status: ('A' for Active; 'I' for Inactive)
REMARK    1  A    between atoms: C6_10  and  O2_2 
REMARK    2  A    between atoms: C10_14  and  C4_8 
ROOT
HETATM    1  O1  UNK     1      19.212  -1.980  35.758  1.00  0.00    -0.274 OA
HETATM    2  O3  UNK     1      18.016  -1.393  37.614  1.00  0.00    -0.259 OA
HETATM    3  C1  UNK     1      18.692  -0.946  33.619  1.00  0.00     0.002 A 
HETATM    4  C2  UNK     1      19.452  -1.831  34.378  1.00  0.00     0.089 A 
HETATM    5  C3  UNK     1      17.646  -0.175  34.275  1.00  0.00     0.035 A 
HETATM    6  C4  UNK     1      17.423  -0.320  35.587  1.00  0.00     0.086 A 
HETATM    7  C5  UNK     1      18.961  -0.826  32.254  1.00  0.00     0.051 A 
HETATM    8  C6  UNK     1      19.977  -1.589  31.671  1.00  0.00     0.069 A 
HETATM    9  C7  UNK     1      20.467  -2.598  33.811  1.00  0.00     0.041 A 
HETATM   10  C8  UNK     1      20.729  -2.473  32.449  1.00  0.00     0.039 A 
HETATM   11  C9  UNK     1      18.218  -1.256  36.413  1.00  0.00     0.302 A 
ENDROOT
BRANCH   6  12
HETATM   12  C10 UNK     1      16.347   0.500  36.156  1.00  0.00     0.161 C 
HETATM   13  O4  UNK     1      15.187   0.371  35.761  1.00  0.00    -0.293 OA
HETATM   14  C11 UNK     1      16.707   1.489  37.233  1.00  0.00     0.097 C 
ENDBRANCH   6  12
BRANCH   8  15
HETATM   15  O2  UNK     1      20.236  -1.469  30.339  1.00  0.00    -0.356 OA
HETATM   16  C12 UNK     1      20.434  -0.171  29.817  1.00  0.00     0.210 C 
ENDBRANCH   8  15
TORSDOF 2
ENDMDL
MODEL 7
REMARK VINA RESULT:      -6.5     14.822     17.447
REMARK  2 active torsions:
REMARK  status: ('A' for Active; 'I' for Inactive)
REMARK    1  A    between atoms: C6_10  and  O2_2 
REMARK    2  A    between atoms: C10_14  and  C4_8 
ROOT
HETATM    1  O1  UNK     1      18.314   1.655  32.011  1.00  0.00    -0.274 OA
HETATM    2  O3  UNK     1      18.248   3.209  30.338  1.00  0.00    -0.259 OA
HETATM    3  C1  UNK     1      18.280   2.386  34.330  1.00  0.00     0.002 A 
HETATM    4  C2  UNK     1      18.325   1.363  33.389  1.00  0.00     0.089 A 
HETATM    5  C3  UNK     1      18.219   3.765  33.868  1.00  0.00     0.035 A 
HETATM    6  C4  UNK     1      18.208   4.037  32.557  1.00  0.00     0.086 A 
HETATM    7  C5  UNK     1      18.292   2.056  35.688  1.00  0.00     0.051 A 
HETATM    8  C6  UNK     1      18.352   0.716  36.081  1.00  0.00     0.069 A 
HETATM    9  C7  UNK     1      18.386   0.023  33.766  1.00  0.00     0.041 A 
HETATM   10  C8  UNK     1      18.398  -0.299  35.122  1.00  0.00     0.039 A 
HETATM   11  C9  UNK     1      18.256   2.964  31.539  1.00  0.00     0.302 A 
ENDROOT
BRANCH   6  12
HETATM   12  C10 UNK     1      18.145   5.457  32.190  1.00  0.00     0.161 C 
HETATM   13  O4  UNK     1      17.060   6.035  32.114  1.00  0.00    -0.293 OA
HETATM   14  C11 UNK     1      19.441   6.175  31.921  1.00  0.00     0.097 C 
ENDBRANCH   6  12
BRANCH   8  15
HETATM   15  O2  UNK     1      18.364   0.398  37.405  1.00  0.00    -0.356 OA
HETATM   16  C12 UNK     1      17.583   1.184  38.282  1.00  0.00     0.210 C 
ENDBRANCH   8  15
TORSDOF 2
ENDMDL
MODEL 8
REMARK VINA RESULT:      -6.5      1.492      5.609
REMARK  2 active torsions:
REMARK  status: ('A' for Active; 'I' for Inactive)
REMARK    1  A    between atoms: C6_10  and  O2_2 
REMARK    2  A    between atoms: C10_14  and  C4_8 
ROOT
HETATM    1  O1  UNK     1      19.497   0.239  14.562  1.00  0.00    -0.274 OA
HETATM    2  O3  UNK     1      19.868   2.186  15.699  1.00  0.00    -0.259 OA
HETATM    3  C1  UNK     1      18.678  -1.712  15.760  1.00  0.00     0.002 A 
HETATM    4  C2  UNK     1      19.087  -1.108  14.575  1.00  0.00     0.089 A 
HETATM    5  C3  UNK     1      18.680  -0.929  16.986  1.00  0.00     0.035 A 
HETATM    6  C4  UNK     1      19.070   0.352  16.968  1.00  0.00     0.086 A 
HETATM    7  C5  UNK     1      18.278  -3.051  15.732  1.00  0.00     0.051 A 
HETATM    8  C6  UNK     1      18.295  -3.761  14.527  1.00  0.00     0.069 A 
HETATM    9  C7  UNK     1      19.110  -1.803  13.367  1.00  0.00     0.041 A 
HETATM   10  C8  UNK     1      18.709  -3.138  13.348  1.00  0.00     0.039 A 
HETATM   11  C9  UNK     1      19.509   1.014  15.720  1.00  0.00     0.302 A 
ENDROOT
BRANCH   6  12
HETATM   12  C10 UNK     1      19.037   1.057  18.254  1.00  0.00     0.161 C 
HETATM   13  O4  UNK     1      18.681   2.235  18.312  1.00  0.00    -0.293 OA
HETATM   14  C11 UNK     1      19.441   0.295  19.489  1.00  0.00     0.097 C 
ENDBRANCH   6  12
BRANCH   8  15
HETATM   15  O2  UNK     1      17.905  -5.065  14.504  1.00  0.00    -0.356 OA
HETATM   16  C12 UNK     1      18.345  -5.908  15.549  1.00  0.00     0.210 C 
ENDBRANCH   8  15
TORSDOF 2
ENDMDL
MODEL 9
REMARK VINA RESULT:      -6.4     14.271     17.479
REMARK  2 active torsions:
REMARK  status: ('A' for Active; 'I' for Inactive)
REMARK    1  A    between atoms: C6_10  and  O2_2 
REMARK    2  A    between atoms: C10_14  and  C4_8 
ROOT
HETATM    1  O1  UNK     1      18.978   7.601  33.683  1.00  0.00    -0.274 OA
HETATM    2  O3  UNK     1      20.729   6.347  32.921  1.00  0.00    -0.259 OA
HETATM    3  C1  UNK     1      16.990   7.850  32.305  1.00  0.00     0.002 A 
HETATM    4  C2  UNK     1      17.686   8.124  33.478  1.00  0.00     0.089 A 
HETATM    5  C3  UNK     1      17.617   7.012  31.294  1.00  0.00     0.035 A 
HETATM    6  C4  UNK     1      18.845   6.517  31.494  1.00  0.00     0.086 A 
HETATM    7  C5  UNK     1      15.711   8.386  32.138  1.00  0.00     0.051 A 
HETATM    8  C6  UNK     1      15.152   9.186  33.141  1.00  0.00     0.069 A 
HETATM    9  C7  UNK     1      17.143   8.920  34.484  1.00  0.00     0.041 A 
HETATM   10  C8  UNK     1      15.866   9.451  34.311  1.00  0.00     0.039 A 
HETATM   11  C9  UNK     1      19.604   6.797  32.733  1.00  0.00     0.302 A 
ENDROOT
BRANCH   6  12
HETATM   12  C10 UNK     1      19.392   5.685  30.417  1.00  0.00     0.161 C 
HETATM   13  O4  UNK     1      20.161   6.166  29.584  1.00  0.00    -0.293 OA
HETATM   14  C11 UNK     1      18.989   4.234  30.371  1.00  0.00     0.097 C 
ENDBRANCH   6  12
BRANCH   8  15
HETATM   15  O2  UNK     1      13.905   9.707  32.974  1.00  0.00    -0.356 OA
HETATM   16  C12 UNK     1      13.760  11.112  33.028  1.00  0.00     0.210 C 
ENDBRANCH   8  15
TORSDOF 2
ENDMDL
MODEL 10
REMARK VINA RESULT:      -6.4     13.706     17.318
REMARK  2 active torsions:
REMARK  status: ('A' for Active; 'I' for Inactive)
REMARK    1  A    between atoms: C6_10  and  O2_2 
REMARK    2  A    between atoms: C10_14  and  C4_8 
ROOT
HETATM    1  O1  UNK     1      20.308  -2.599  34.483  1.00  0.00    -0.274 OA
HETATM    2  O3  UNK     1      21.558  -3.253  32.686  1.00  0.00    -0.259 OA
HETATM    3  C1  UNK     1      18.542  -0.955  34.182  1.00  0.00     0.002 A 
HETATM    4  C2  UNK     1      19.267  -1.809  35.008  1.00  0.00     0.089 A 
HETATM    5  C3  UNK     1      18.875  -0.894  32.767  1.00  0.00     0.035 A 
HETATM    6  C4  UNK     1      19.865  -1.648  32.273  1.00  0.00     0.086 A 
HETATM    7  C5  UNK     1      17.517  -0.187  34.740  1.00  0.00     0.051 A 
HETATM    8  C6  UNK     1      17.236  -0.282  36.106  1.00  0.00     0.069 A 
HETATM    9  C7  UNK     1      18.999  -1.913  36.371  1.00  0.00     0.041 A 
HETATM   10  C8  UNK     1      17.975  -1.144  36.920  1.00  0.00     0.039 A 
HETATM   11  C9  UNK     1      20.650  -2.562  33.134  1.00  0.00     0.302 A 
ENDROOT
BRANCH   6  12
HETATM   12  C10 UNK     1      20.125  -1.516  30.835  1.00  0.00     0.161 C 
HETATM   13  O4  UNK     1      19.947  -2.471  30.078  1.00  0.00    -0.293 OA
HETATM   14  C11 UNK     1      20.606  -0.184  30.324  1.00  0.00     0.097 C 
ENDBRANCH   6  12
BRANCH   8  15
HETATM   15  O2  UNK     1      16.236   0.468  36.646  1.00  0.00    -0.356 OA
HETATM   16  C12 UNK     1      16.595   1.587  37.430  1.00  0.00     0.210 C 
ENDBRANCH   8  15
TORSDOF 2
ENDMDL
