MODEL 1
REMARK VINA RESULT:     -10.2      0.000      0.000
REMARK  2 active torsions:
REMARK  status: ('A' for Active; 'I' for Inactive)
REMARK    1  A    between atoms: C5_11  and  N1_5 
REMARK       I    between atoms: C9_15  and  N1_5 
REMARK    2  A    between atoms: C1_7  and  C9_15 
ROOT
HETATM    1 Cl1  UNK     1      19.166   2.069  36.510  1.00  0.00    -0.083 Cl
HETATM    2  N2  UNK     1      18.180  -0.053  33.775  1.00  0.00    -0.247 NA
HETATM    3  C1  UNK     1      19.457  -2.210  34.919  1.00  0.00     0.047 A 
HETATM    4  C2  UNK     1      19.697  -1.916  33.584  1.00  0.00     0.008 A 
HETATM    5  C4  UNK     1      19.022  -0.804  33.040  1.00  0.00     0.068 A 
HETATM    6  C6  UNK     1      17.988  -0.391  35.071  1.00  0.00     0.070 A 
HETATM    7  C7  UNK     1      18.603  -1.460  35.691  1.00  0.00     0.050 A 
HETATM    8  C14 UNK     1      17.072   0.461  35.791  1.00  0.00     0.014 A 
HETATM    9  C15 UNK     1      20.569  -2.677  32.787  1.00  0.00     0.015 A 
HETATM   10  C16 UNK     1      19.248  -0.492  31.702  1.00  0.00     0.032 A 
HETATM   11  C18 UNK     1      20.777  -2.342  31.452  1.00  0.00     0.001 A 
HETATM   12  C19 UNK     1      20.115  -1.247  30.910  1.00  0.00     0.002 A 
HETATM   13  C22 UNK     1      17.502   1.601  36.477  1.00  0.00     0.046 A 
HETATM   14  C23 UNK     1      15.714   0.126  35.795  1.00  0.00     0.015 A 
HETATM   15  C24 UNK     1      16.583   2.399  37.159  1.00  0.00     0.025 A 
HETATM   16  C25 UNK     1      14.796   0.924  36.477  1.00  0.00     0.001 A 
HETATM   17  C26 UNK     1      15.230   2.060  37.159  1.00  0.00     0.002 A 
ENDROOT
BRANCH   3  18
HETATM   18  C9  UNK     1      20.115  -3.359  35.594  1.00  0.00     0.257 C 
HETATM   19  O2  UNK     1      21.236  -3.182  36.059  1.00  0.00    -0.267 OA
HETATM   20  N1  UNK     1      19.374  -4.536  35.599  1.00  0.00    -0.323 N 
HETATM   21  H3  UNK     1      18.455  -4.510  35.162  1.00  0.00     0.169 HD
BRANCH  20  22
HETATM   22  C5  UNK     1      19.753  -5.768  36.134  1.00  0.00     0.037 A 
HETATM   23  C11 UNK     1      20.363  -6.722  35.327  1.00  0.00     0.067 A 
HETATM   24  C8  UNK     1      20.736  -7.947  35.883  1.00  0.00     0.092 A 
HETATM   25  C3  UNK     1      20.518  -8.253  37.227  1.00  0.00     0.004 A 
HETATM   26  O1  UNK     1      21.349  -8.873  35.016  1.00  0.00    -0.275 OA
HETATM   27  C10 UNK     1      20.942  -9.566  37.728  1.00  0.00    -0.043 A 
HETATM   28  C12 UNK     1      19.902  -7.278  38.024  1.00  0.00     0.017 A 
HETATM   29  C17 UNK     1      21.523 -10.428  36.881  1.00  0.00     0.090 A 
HETATM   30  C20 UNK     1      20.721  -9.926  39.169  1.00  0.00     0.049 C 
HETATM   31  C21 UNK     1      21.761 -10.120  35.460  1.00  0.00     0.288 A 
HETATM   32  O3  UNK     1      22.295 -10.932  34.715  1.00  0.00    -0.260 OA
HETATM   33  C13 UNK     1      19.523  -6.045  37.481  1.00  0.00     0.030 A 
ENDBRANCH  20  22
ENDBRANCH   3  18
TORSDOF 2
ENDMDL
MODEL 2
REMARK VINA RESULT:      -9.9      1.676      2.200
REMARK  2 active torsions:
REMARK  status: ('A' for Active; 'I' for Inactive)
REMARK    1  A    between atoms: C5_11  and  N1_5 
REMARK       I    between atoms: C9_15  and  N1_5 
REMARK    2  A    between atoms: C1_7  and  C9_15 
ROOT
HETATM    1 Cl1  UNK     1      19.659   1.863  36.131  1.00  0.00    -0.083 Cl
HETATM    2  N2  UNK     1      18.333   0.460  33.092  1.00  0.00    -0.247 NA
HETATM    3  C1  UNK     1      19.655  -1.914  33.550  1.00  0.00     0.047 A 
HETATM    4  C2  UNK     1      19.765  -1.311  32.305  1.00  0.00     0.008 A 
HETATM    5  C4  UNK     1      19.072  -0.098  32.115  1.00  0.00     0.068 A 
HETATM    6  C6  UNK     1      18.265  -0.177  34.284  1.00  0.00     0.070 A 
HETATM    7  C7  UNK     1      18.907  -1.365  34.564  1.00  0.00     0.050 A 
HETATM    8  C14 UNK     1      17.454   0.484  35.279  1.00  0.00     0.014 A 
HETATM    9  C15 UNK     1      20.527  -1.865  31.262  1.00  0.00     0.015 A 
HETATM   10  C16 UNK     1      19.169   0.524  30.872  1.00  0.00     0.032 A 
HETATM   11  C18 UNK     1      20.607  -1.222  30.030  1.00  0.00     0.001 A 
HETATM   12  C19 UNK     1      19.927  -0.026  29.836  1.00  0.00     0.002 A 
HETATM   13  C22 UNK     1      17.987   1.426  36.165  1.00  0.00     0.046 A 
HETATM   14  C23 UNK     1      16.094   0.165  35.349  1.00  0.00     0.015 A 
HETATM   15  C24 UNK     1      17.168   2.043  37.112  1.00  0.00     0.025 A 
HETATM   16  C25 UNK     1      15.276   0.782  36.295  1.00  0.00     0.001 A 
HETATM   17  C26 UNK     1      15.812   1.720  37.176  1.00  0.00     0.002 A 
ENDROOT
BRANCH   3  18
HETATM   18  C9  UNK     1      20.343  -3.194  33.860  1.00  0.00     0.257 C 
HETATM   19  O2  UNK     1      21.301  -3.510  33.162  1.00  0.00    -0.267 OA
HETATM   20  N1  UNK     1      19.792  -3.914  34.915  1.00  0.00    -0.323 N 
HETATM   21  H3  UNK     1      18.988  -3.505  35.388  1.00  0.00     0.169 HD
BRANCH  20  22
HETATM   22  C5  UNK     1      20.214  -5.151  35.402  1.00  0.00     0.037 A 
HETATM   23  C11 UNK     1      20.680  -5.265  36.707  1.00  0.00     0.067 A 
HETATM   24  C8  UNK     1      21.096  -6.512  37.176  1.00  0.00     0.092 A 
HETATM   25  C3  UNK     1      21.062  -7.657  36.379  1.00  0.00     0.004 A 
HETATM   26  O1  UNK     1      21.558  -6.565  38.506  1.00  0.00    -0.275 OA
HETATM   27  C10 UNK     1      21.519  -8.929  36.953  1.00  0.00    -0.043 A 
HETATM   28  C12 UNK     1      20.589  -7.522  35.066  1.00  0.00     0.017 A 
HETATM   29  C17 UNK     1      21.953  -8.950  38.222  1.00  0.00     0.090 A 
HETATM   30  C20 UNK     1      21.495 -10.178  36.122  1.00  0.00     0.049 C 
HETATM   31  C21 UNK     1      21.995  -7.751  39.076  1.00  0.00     0.288 A 
HETATM   32  O3  UNK     1      22.398  -7.807  40.232  1.00  0.00    -0.260 OA
HETATM   33  C13 UNK     1      20.168  -6.278  34.583  1.00  0.00     0.030 A 
ENDBRANCH  20  22
ENDBRANCH   3  18
TORSDOF 2
ENDMDL
MODEL 3
REMARK VINA RESULT:      -9.6      6.581     12.619
REMARK  2 active torsions:
REMARK  status: ('A' for Active; 'I' for Inactive)
REMARK    1  A    between atoms: C5_11  and  N1_5 
REMARK       I    between atoms: C9_15  and  N1_5 
REMARK    2  A    between atoms: C1_7  and  C9_15 
ROOT
HETATM    1 Cl1  UNK     1      15.520   0.287  34.698  1.00  0.00    -0.083 Cl
HETATM    2  N2  UNK     1      18.432   0.893  32.669  1.00  0.00    -0.247 NA
HETATM    3  C1  UNK     1      18.361   3.579  33.275  1.00  0.00     0.047 A 
HETATM    4  C2  UNK     1      18.475   3.192  31.948  1.00  0.00     0.008 A 
HETATM    5  C4  UNK     1      18.507   1.807  31.684  1.00  0.00     0.068 A 
HETATM    6  C6  UNK     1      18.322   1.334  33.943  1.00  0.00     0.070 A 
HETATM    7  C7  UNK     1      18.282   2.666  34.300  1.00  0.00     0.050 A 
HETATM    8  C14 UNK     1      18.246   0.294  34.941  1.00  0.00     0.014 A 
HETATM    9  C15 UNK     1      18.556   4.118  30.895  1.00  0.00     0.015 A 
HETATM   10  C16 UNK     1      18.622   1.397  30.358  1.00  0.00     0.032 A 
HETATM   11  C18 UNK     1      18.669   3.680  29.578  1.00  0.00     0.001 A 
HETATM   12  C19 UNK     1      18.702   2.317  29.311  1.00  0.00     0.002 A 
HETATM   13  C22 UNK     1      17.026  -0.251  35.355  1.00  0.00     0.046 A 
HETATM   14  C23 UNK     1      19.437  -0.177  35.504  1.00  0.00     0.015 A 
HETATM   15  C24 UNK     1      16.997  -1.257  36.321  1.00  0.00     0.025 A 
HETATM   16  C25 UNK     1      19.407  -1.183  36.470  1.00  0.00     0.001 A 
HETATM   17  C26 UNK     1      18.188  -1.723  36.878  1.00  0.00     0.002 A 
ENDROOT
BRANCH   3  18
HETATM   18  C9  UNK     1      18.317   5.012  33.668  1.00  0.00     0.257 C 
HETATM   19  O2  UNK     1      19.314   5.490  34.198  1.00  0.00    -0.267 OA
HETATM   20  N1  UNK     1      17.111   5.654  33.404  1.00  0.00    -0.323 N 
HETATM   21  H3  UNK     1      16.379   5.105  32.958  1.00  0.00     0.169 HD
BRANCH  20  22
HETATM   22  C5  UNK     1      16.783   6.980  33.688  1.00  0.00     0.037 A 
HETATM   23  C11 UNK     1      17.717   7.989  33.484  1.00  0.00     0.067 A 
HETATM   24  C8  UNK     1      17.367   9.310  33.774  1.00  0.00     0.092 A 
HETATM   25  C3  UNK     1      16.108   9.657  34.264  1.00  0.00     0.004 A 
HETATM   26  O1  UNK     1      18.355  10.289  33.546  1.00  0.00    -0.275 OA
HETATM   27  C10 UNK     1      15.825  11.071  34.542  1.00  0.00    -0.043 A 
HETATM   28  C12 UNK     1      15.180   8.625  34.464  1.00  0.00     0.017 A 
HETATM   29  C17 UNK     1      16.784  11.981  34.316  1.00  0.00     0.090 A 
HETATM   30  C20 UNK     1      14.481  11.477  35.070  1.00  0.00     0.049 C 
HETATM   31  C21 UNK     1      18.118  11.631  33.798  1.00  0.00     0.288 A 
HETATM   32  O3  UNK     1      18.970  12.490  33.603  1.00  0.00    -0.260 OA
HETATM   33  C13 UNK     1      15.517   7.297  34.177  1.00  0.00     0.030 A 
ENDBRANCH  20  22
ENDBRANCH   3  18
TORSDOF 2
ENDMDL
MODEL 4
REMARK VINA RESULT:      -9.5      6.040     11.590
REMARK  2 active torsions:
REMARK  status: ('A' for Active; 'I' for Inactive)
REMARK    1  A    between atoms: C5_11  and  N1_5 
REMARK       I    between atoms: C9_15  and  N1_5 
REMARK    2  A    between atoms: C1_7  and  C9_15 
ROOT
HETATM    1 Cl1  UNK     1      15.845  -1.254  34.504  1.00  0.00    -0.083 Cl
HETATM    2  N2  UNK     1      19.016  -0.685  32.898  1.00  0.00    -0.247 NA
HETATM    3  C1  UNK     1      18.420   1.982  32.548  1.00  0.00     0.047 A 
HETATM    4  C2  UNK     1      18.883   1.248  31.466  1.00  0.00     0.008 A 
HETATM    5  C4  UNK     1      19.176  -0.113  31.690  1.00  0.00     0.068 A 
HETATM    6  C6  UNK     1      18.561   0.083  33.914  1.00  0.00     0.070 A 
HETATM    7  C7  UNK     1      18.248   1.422  33.792  1.00  0.00     0.050 A 
HETATM    8  C14 UNK     1      18.416  -0.603  35.176  1.00  0.00     0.014 A 
HETATM    9  C15 UNK     1      19.062   1.813  30.191  1.00  0.00     0.015 A 
HETATM   10  C16 UNK     1      19.642  -0.867  30.616  1.00  0.00     0.032 A 
HETATM   11  C18 UNK     1      19.529   1.036  29.136  1.00  0.00     0.001 A 
HETATM   12  C19 UNK     1      19.820  -0.306  29.350  1.00  0.00     0.002 A 
HETATM   13  C22 UNK     1      17.228  -1.243  35.542  1.00  0.00     0.046 A 
HETATM   14  C23 UNK     1      19.507  -0.622  36.052  1.00  0.00     0.015 A 
HETATM   15  C24 UNK     1      17.130  -1.896  36.771  1.00  0.00     0.025 A 
HETATM   16  C25 UNK     1      19.409  -1.276  37.280  1.00  0.00     0.001 A 
HETATM   17  C26 UNK     1      18.222  -1.912  37.639  1.00  0.00     0.002 A 
ENDROOT
BRANCH   3  18
HETATM   18  C9  UNK     1      18.081   3.424  32.425  1.00  0.00     0.257 C 
HETATM   19  O2  UNK     1      17.492   3.787  31.412  1.00  0.00    -0.267 OA
HETATM   20  N1  UNK     1      18.501   4.216  33.489  1.00  0.00    -0.323 N 
HETATM   21  H3  UNK     1      18.982   3.750  34.256  1.00  0.00     0.169 HD
BRANCH  20  22
HETATM   22  C5  UNK     1      18.342   5.596  33.626  1.00  0.00     0.037 A 
HETATM   23  C11 UNK     1      17.076   6.137  33.819  1.00  0.00     0.067 A 
HETATM   24  C8  UNK     1      16.940   7.520  33.956  1.00  0.00     0.092 A 
HETATM   25  C3  UNK     1      18.033   8.385  33.904  1.00  0.00     0.004 A 
HETATM   26  O1  UNK     1      15.632   8.008  34.150  1.00  0.00    -0.275 OA
HETATM   27  C10 UNK     1      17.798   9.827  34.057  1.00  0.00    -0.043 A 
HETATM   28  C12 UNK     1      19.301   7.820  33.708  1.00  0.00     0.017 A 
HETATM   29  C17 UNK     1      16.544  10.264  34.241  1.00  0.00     0.090 A 
HETATM   30  C20 UNK     1      18.953  10.783  34.006  1.00  0.00     0.049 C 
HETATM   31  C21 UNK     1      15.380   9.364  34.298  1.00  0.00     0.288 A 
HETATM   32  O3  UNK     1      14.247   9.799  34.468  1.00  0.00    -0.260 OA
HETATM   33  C13 UNK     1      19.453   6.436  33.570  1.00  0.00     0.030 A 
ENDBRANCH  20  22
ENDBRANCH   3  18
TORSDOF 2
ENDMDL
MODEL 5
REMARK VINA RESULT:      -9.1     13.035     15.347
REMARK  2 active torsions:
REMARK  status: ('A' for Active; 'I' for Inactive)
REMARK    1  A    between atoms: C5_11  and  N1_5 
REMARK       I    between atoms: C9_15  and  N1_5 
REMARK    2  A    between atoms: C1_7  and  C9_15 
ROOT
HETATM    1 Cl1  UNK     1      32.032  -4.023  36.284  1.00  0.00    -0.083 Cl
HETATM    2  N2  UNK     1      29.787  -5.733  34.049  1.00  0.00    -0.247 NA
HETATM    3  C1  UNK     1      31.753  -7.540  33.373  1.00  0.00     0.047 A 
HETATM    4  C2  UNK     1      31.038  -6.914  32.363  1.00  0.00     0.008 A 
HETATM    5  C4  UNK     1      30.042  -5.996  32.754  1.00  0.00     0.068 A 
HETATM    6  C6  UNK     1      30.517  -6.377  34.988  1.00  0.00     0.070 A 
HETATM    7  C7  UNK     1      31.512  -7.290  34.703  1.00  0.00     0.050 A 
HETATM    8  C14 UNK     1      30.185  -6.041  36.352  1.00  0.00     0.014 A 
HETATM    9  C15 UNK     1      31.278  -7.164  31.000  1.00  0.00     0.015 A 
HETATM   10  C16 UNK     1      29.313  -5.356  31.755  1.00  0.00     0.032 A 
HETATM   11  C18 UNK     1      30.534  -6.509  30.022  1.00  0.00     0.001 A 
HETATM   12  C19 UNK     1      29.551  -5.604  30.402  1.00  0.00     0.002 A 
HETATM   13  C22 UNK     1      30.810  -4.992  37.033  1.00  0.00     0.046 A 
HETATM   14  C23 UNK     1      29.203  -6.795  37.003  1.00  0.00     0.015 A 
HETATM   15  C24 UNK     1      30.458  -4.699  38.350  1.00  0.00     0.025 A 
HETATM   16  C25 UNK     1      28.850  -6.502  38.320  1.00  0.00     0.001 A 
HETATM   17  C26 UNK     1      29.477  -5.454  38.994  1.00  0.00     0.002 A 
ENDROOT
BRANCH   3  18
HETATM   18  C9  UNK     1      32.826  -8.525  33.074  1.00  0.00     0.257 C 
HETATM   19  O2  UNK     1      32.528  -9.714  33.085  1.00  0.00    -0.267 OA
HETATM   20  N1  UNK     1      34.079  -7.970  32.834  1.00  0.00    -0.323 N 
HETATM   21  H3  UNK     1      34.152  -6.954  32.867  1.00  0.00     0.169 HD
BRANCH  20  22
HETATM   22  C5  UNK     1      35.263  -8.652  32.557  1.00  0.00     0.037 A 
HETATM   23  C11 UNK     1      35.562  -9.028  31.252  1.00  0.00     0.067 A 
HETATM   24  C8  UNK     1      36.754  -9.708  30.995  1.00  0.00     0.092 A 
HETATM   25  C3  UNK     1      37.662 -10.029  32.005  1.00  0.00     0.004 A 
HETATM   26  O1  UNK     1      37.002 -10.062  29.653  1.00  0.00    -0.275 OA
HETATM   27  C10 UNK     1      38.892 -10.747  31.645  1.00  0.00    -0.043 A 
HETATM   28  C12 UNK     1      37.342  -9.641  33.314  1.00  0.00     0.017 A 
HETATM   29  C17 UNK     1      39.102 -11.071  30.361  1.00  0.00     0.090 A 
HETATM   30  C20 UNK     1      39.888 -11.106  32.708  1.00  0.00     0.049 C 
HETATM   31  C21 UNK     1      38.154 -10.740  29.283  1.00  0.00     0.288 A 
HETATM   32  O3  UNK     1      38.380 -11.052  28.120  1.00  0.00    -0.260 OA
HETATM   33  C13 UNK     1      36.152  -8.958  33.586  1.00  0.00     0.030 A 
ENDBRANCH  20  22
ENDBRANCH   3  18
TORSDOF 2
ENDMDL
MODEL 6
REMARK VINA RESULT:      -9.1      5.553      8.137
REMARK  2 active torsions:
REMARK  status: ('A' for Active; 'I' for Inactive)
REMARK    1  A    between atoms: C5_11  and  N1_5 
REMARK       I    between atoms: C9_15  and  N1_5 
REMARK    2  A    between atoms: C1_7  and  C9_15 
ROOT
HETATM    1 Cl1  UNK     1      18.733   9.989  34.060  1.00  0.00    -0.083 Cl
HETATM    2  N2  UNK     1      17.196   7.620  31.827  1.00  0.00    -0.247 NA
HETATM    3  C1  UNK     1      18.149   5.512  33.323  1.00  0.00     0.047 A 
HETATM    4  C2  UNK     1      18.342   5.504  31.949  1.00  0.00     0.008 A 
HETATM    5  C4  UNK     1      17.838   6.603  31.224  1.00  0.00     0.068 A 
HETATM    6  C6  UNK     1      17.039   7.570  33.171  1.00  0.00     0.070 A 
HETATM    7  C7  UNK     1      17.498   6.538  33.965  1.00  0.00     0.050 A 
HETATM    8  C14 UNK     1      16.343   8.697  33.743  1.00  0.00     0.014 A 
HETATM    9  C15 UNK     1      19.006   4.459  31.286  1.00  0.00     0.015 A 
HETATM   10  C16 UNK     1      18.020   6.614  29.843  1.00  0.00     0.032 A 
HETATM   11  C18 UNK     1      19.176   4.496  29.904  1.00  0.00     0.001 A 
HETATM   12  C19 UNK     1      18.681   5.576  29.183  1.00  0.00     0.002 A 
HETATM   13  C22 UNK     1      17.015   9.843  34.178  1.00  0.00     0.046 A 
HETATM   14  C23 UNK     1      14.950   8.629  33.861  1.00  0.00     0.015 A 
HETATM   15  C24 UNK     1      16.303  10.911  34.724  1.00  0.00     0.025 A 
HETATM   16  C25 UNK     1      14.239   9.696  34.406  1.00  0.00     0.001 A 
HETATM   17  C26 UNK     1      14.914  10.837  34.838  1.00  0.00     0.002 A 
ENDROOT
BRANCH   3  18
HETATM   18  C9  UNK     1      18.640   4.405  34.186  1.00  0.00     0.257 C 
HETATM   19  O2  UNK     1      19.685   4.582  34.802  1.00  0.00    -0.267 OA
HETATM   20  N1  UNK     1      17.848   3.261  34.175  1.00  0.00    -0.323 N 
HETATM   21  H3  UNK     1      17.007   3.281  33.601  1.00  0.00     0.169 HD
BRANCH  20  22
HETATM   22  C5  UNK     1      18.080   2.070  34.864  1.00  0.00     0.037 A 
HETATM   23  C11 UNK     1      18.725   1.013  34.231  1.00  0.00     0.067 A 
HETATM   24  C8  UNK     1      18.949  -0.170  34.939  1.00  0.00     0.092 A 
HETATM   25  C3  UNK     1      18.546  -0.333  36.265  1.00  0.00     0.004 A 
HETATM   26  O1  UNK     1      19.607  -1.205  34.245  1.00  0.00    -0.275 OA
HETATM   27  C10 UNK     1      18.822  -1.611  36.933  1.00  0.00    -0.043 A 
HETATM   28  C12 UNK     1      17.897   0.745  36.884  1.00  0.00     0.017 A 
HETATM   29  C17 UNK     1      19.450  -2.579  36.249  1.00  0.00     0.090 A 
HETATM   30  C20 UNK     1      18.401  -1.818  38.359  1.00  0.00     0.049 C 
HETATM   31  C21 UNK     1      19.881  -2.423  34.850  1.00  0.00     0.288 A 
HETATM   32  O3  UNK     1      20.453  -3.329  34.256  1.00  0.00    -0.260 OA
HETATM   33  C13 UNK     1      17.667   1.936  36.188  1.00  0.00     0.030 A 
ENDBRANCH  20  22
ENDBRANCH   3  18
TORSDOF 2
ENDMDL
MODEL 7
REMARK VINA RESULT:      -9.1     27.574     29.809
REMARK  2 active torsions:
REMARK  status: ('A' for Active; 'I' for Inactive)
REMARK    1  A    between atoms: C5_11  and  N1_5 
REMARK       I    between atoms: C9_15  and  N1_5 
REMARK    2  A    between atoms: C1_7  and  C9_15 
ROOT
HETATM    1 Cl1  UNK     1      24.232  11.959  10.219  1.00  0.00    -0.083 Cl
HETATM    2  N2  UNK     1      21.467  14.258  10.394  1.00  0.00    -0.247 NA
HETATM    3  C1  UNK     1      19.725  12.311   9.521  1.00  0.00     0.047 A 
HETATM    4  C2  UNK     1      19.709  13.553   8.904  1.00  0.00     0.008 A 
HETATM    5  C4  UNK     1      20.618  14.519   9.383  1.00  0.00     0.068 A 
HETATM    6  C6  UNK     1      21.433  13.027  10.955  1.00  0.00     0.070 A 
HETATM    7  C7  UNK     1      20.582  12.017  10.555  1.00  0.00     0.050 A 
HETATM    8  C14 UNK     1      22.374  12.825  12.031  1.00  0.00     0.014 A 
HETATM    9  C15 UNK     1      18.837  13.861   7.847  1.00  0.00     0.015 A 
HETATM   10  C16 UNK     1      20.618  15.773   8.778  1.00  0.00     0.032 A 
HETATM   11  C18 UNK     1      18.859  15.123   7.259  1.00  0.00     0.001 A 
HETATM   12  C19 UNK     1      19.752  16.080   7.727  1.00  0.00     0.002 A 
HETATM   13  C22 UNK     1      23.668  12.345  11.807  1.00  0.00     0.046 A 
HETATM   14  C23 UNK     1      21.966  13.122  13.336  1.00  0.00     0.015 A 
HETATM   15  C24 UNK     1      24.547  12.165  12.876  1.00  0.00     0.025 A 
HETATM   16  C25 UNK     1      22.844  12.942  14.404  1.00  0.00     0.001 A 
HETATM   17  C26 UNK     1      24.134  12.464  14.175  1.00  0.00     0.002 A 
ENDROOT
BRANCH   3  18
HETATM   18  C9  UNK     1      18.810  11.218   9.096  1.00  0.00     0.257 C 
HETATM   19  O2  UNK     1      18.981  10.731   7.984  1.00  0.00    -0.267 OA
HETATM   20  N1  UNK     1      17.829  10.884  10.024  1.00  0.00    -0.323 N 
HETATM   21  H3  UNK     1      17.828  11.394  10.905  1.00  0.00     0.169 HD
BRANCH  20  22
HETATM   22  C5  UNK     1      16.828   9.922   9.882  1.00  0.00     0.037 A 
HETATM   23  C11 UNK     1      17.148   8.570   9.933  1.00  0.00     0.067 A 
HETATM   24  C8  UNK     1      16.132   7.623   9.791  1.00  0.00     0.092 A 
HETATM   25  C3  UNK     1      14.798   7.985   9.597  1.00  0.00     0.004 A 
HETATM   26  O1  UNK     1      16.517   6.269   9.851  1.00  0.00    -0.275 OA
HETATM   27  C10 UNK     1      13.793   6.923   9.456  1.00  0.00    -0.043 A 
HETATM   28  C12 UNK     1      14.496   9.354   9.548  1.00  0.00     0.017 A 
HETATM   29  C17 UNK     1      14.188   5.643   9.518  1.00  0.00     0.090 A 
HETATM   30  C20 UNK     1      12.351   7.280   9.247  1.00  0.00     0.049 C 
HETATM   31  C21 UNK     1      15.591   5.245   9.722  1.00  0.00     0.288 A 
HETATM   32  O3  UNK     1      15.916   4.065   9.774  1.00  0.00    -0.260 OA
HETATM   33  C13 UNK     1      15.505  10.313   9.690  1.00  0.00     0.030 A 
ENDBRANCH  20  22
ENDBRANCH   3  18
TORSDOF 2
ENDMDL
MODEL 8
REMARK VINA RESULT:      -9.1     28.248     31.615
REMARK  2 active torsions:
REMARK  status: ('A' for Active; 'I' for Inactive)
REMARK    1  A    between atoms: C5_11  and  N1_5 
REMARK       I    between atoms: C9_15  and  N1_5 
REMARK    2  A    between atoms: C1_7  and  C9_15 
ROOT
HETATM    1 Cl1  UNK     1      11.085   6.812   5.692  1.00  0.00    -0.083 Cl
HETATM    2  N2  UNK     1      12.403   6.093   8.964  1.00  0.00    -0.247 NA
HETATM    3  C1  UNK     1      13.649   8.548   9.059  1.00  0.00     0.047 A 
HETATM    4  C2  UNK     1      14.380   7.410   9.368  1.00  0.00     0.008 A 
HETATM    5  C4  UNK     1      13.702   6.175   9.306  1.00  0.00     0.068 A 
HETATM    6  C6  UNK     1      11.744   7.239   8.675  1.00  0.00     0.070 A 
HETATM    7  C7  UNK     1      12.322   8.492   8.707  1.00  0.00     0.050 A 
HETATM    8  C14 UNK     1      10.357   7.068   8.317  1.00  0.00     0.014 A 
HETATM    9  C15 UNK     1      15.737   7.458   9.729  1.00  0.00     0.015 A 
HETATM   10  C16 UNK     1      14.417   5.020   9.613  1.00  0.00     0.032 A 
HETATM   11  C18 UNK     1      16.428   6.287  10.030  1.00  0.00     0.001 A 
HETATM   12  C19 UNK     1      15.766   5.067   9.971  1.00  0.00     0.002 A 
HETATM   13  C22 UNK     1       9.949   6.868   6.994  1.00  0.00     0.046 A 
HETATM   14  C23 UNK     1       9.397   7.106   9.334  1.00  0.00     0.015 A 
HETATM   15  C24 UNK     1       8.597   6.705   6.692  1.00  0.00     0.025 A 
HETATM   16  C25 UNK     1       8.046   6.943   9.032  1.00  0.00     0.001 A 
HETATM   17  C26 UNK     1       7.646   6.743   7.711  1.00  0.00     0.002 A 
ENDROOT
BRANCH   3  18
HETATM   18  C9  UNK     1      14.264   9.901   9.091  1.00  0.00     0.257 C 
HETATM   19  O2  UNK     1      13.863  10.690   9.941  1.00  0.00    -0.267 OA
HETATM   20  N1  UNK     1      15.229  10.129   8.116  1.00  0.00    -0.323 N 
HETATM   21  H3  UNK     1      15.442   9.360   7.482  1.00  0.00     0.169 HD
BRANCH  20  22
HETATM   22  C5  UNK     1      15.944  11.306   7.897  1.00  0.00     0.037 A 
HETATM   23  C11 UNK     1      17.269  11.404   8.307  1.00  0.00     0.067 A 
HETATM   24  C8  UNK     1      17.968  12.591   8.077  1.00  0.00     0.092 A 
HETATM   25  C3  UNK     1      17.383  13.690   7.447  1.00  0.00     0.004 A 
HETATM   26  O1  UNK     1      19.307  12.630   8.515  1.00  0.00    -0.275 OA
HETATM   27  C10 UNK     1      18.192  14.899   7.245  1.00  0.00    -0.043 A 
HETATM   28  C12 UNK     1      16.046  13.571   7.041  1.00  0.00     0.017 A 
HETATM   29  C17 UNK     1      19.463  14.909   7.672  1.00  0.00     0.090 A 
HETATM   30  C20 UNK     1      17.592  16.098   6.571  1.00  0.00     0.049 C 
HETATM   31  C21 UNK     1      20.095  13.757   8.338  1.00  0.00     0.288 A 
HETATM   32  O3  UNK     1      21.260  13.801   8.715  1.00  0.00    -0.260 OA
HETATM   33  C13 UNK     1      15.334  12.388   7.264  1.00  0.00     0.030 A 
ENDBRANCH  20  22
ENDBRANCH   3  18
TORSDOF 2
ENDMDL
MODEL 9
REMARK VINA RESULT:      -9.0     28.259     32.119
REMARK  2 active torsions:
REMARK  status: ('A' for Active; 'I' for Inactive)
REMARK    1  A    between atoms: C5_11  and  N1_5 
REMARK       I    between atoms: C9_15  and  N1_5 
REMARK    2  A    between atoms: C1_7  and  C9_15 
ROOT
HETATM    1 Cl1  UNK     1      11.143   6.849   5.700  1.00  0.00    -0.083 Cl
HETATM    2  N2  UNK     1      12.483   6.133   8.963  1.00  0.00    -0.247 NA
HETATM    3  C1  UNK     1      13.673   8.615   9.077  1.00  0.00     0.047 A 
HETATM    4  C2  UNK     1      14.430   7.492   9.375  1.00  0.00     0.008 A 
HETATM    5  C4  UNK     1      13.781   6.242   9.304  1.00  0.00     0.068 A 
HETATM    6  C6  UNK     1      11.798   7.267   8.685  1.00  0.00     0.070 A 
HETATM    7  C7  UNK     1      12.347   8.532   8.727  1.00  0.00     0.050 A 
HETATM    8  C14 UNK     1      10.414   7.067   8.328  1.00  0.00     0.014 A 
HETATM    9  C15 UNK     1      15.787   7.568   9.734  1.00  0.00     0.015 A 
HETATM   10  C16 UNK     1      14.523   5.101   9.599  1.00  0.00     0.032 A 
HETATM   11  C18 UNK     1      16.505   6.411  10.024  1.00  0.00     0.001 A 
HETATM   12  C19 UNK     1      15.871   5.176   9.956  1.00  0.00     0.002 A 
HETATM   13  C22 UNK     1      10.009   6.868   7.005  1.00  0.00     0.046 A 
HETATM   14  C23 UNK     1       9.456   7.073   9.348  1.00  0.00     0.015 A 
HETATM   15  C24 UNK     1       8.660   6.677   6.703  1.00  0.00     0.025 A 
HETATM   16  C25 UNK     1       8.108   6.882   9.046  1.00  0.00     0.001 A 
HETATM   17  C26 UNK     1       7.710   6.684   7.724  1.00  0.00     0.002 A 
ENDROOT
BRANCH   3  18
HETATM   18  C9  UNK     1      14.256   9.982   9.120  1.00  0.00     0.257 C 
HETATM   19  O2  UNK     1      13.998  10.682  10.093  1.00  0.00    -0.267 OA
HETATM   20  N1  UNK     1      15.026  10.324   8.013  1.00  0.00    -0.323 N 
HETATM   21  H3  UNK     1      15.138   9.619   7.287  1.00  0.00     0.169 HD
BRANCH  20  22
HETATM   22  C5  UNK     1      15.667  11.541   7.777  1.00  0.00     0.037 A 
HETATM   23  C11 UNK     1      14.922  12.708   7.645  1.00  0.00     0.067 A 
HETATM   24  C8  UNK     1      15.583  13.915   7.410  1.00  0.00     0.092 A 
HETATM   25  C3  UNK     1      16.972  13.995   7.301  1.00  0.00     0.004 A 
HETATM   26  O1  UNK     1      14.775  15.063   7.286  1.00  0.00    -0.275 OA
HETATM   27  C10 UNK     1      17.584  15.307   7.053  1.00  0.00    -0.043 A 
HETATM   28  C12 UNK     1      17.705  12.808   7.436  1.00  0.00     0.017 A 
HETATM   29  C17 UNK     1      16.792  16.383   6.940  1.00  0.00     0.090 A 
HETATM   30  C20 UNK     1      19.075  15.427   6.931  1.00  0.00     0.049 C 
HETATM   31  C21 UNK     1      15.325  16.314   7.053  1.00  0.00     0.288 A 
HETATM   32  O3  UNK     1      14.632  17.319   6.944  1.00  0.00    -0.260 OA
HETATM   33  C13 UNK     1      17.056  11.591   7.673  1.00  0.00     0.030 A 
ENDBRANCH  20  22
ENDBRANCH   3  18
TORSDOF 2
ENDMDL
MODEL 10
REMARK VINA RESULT:      -8.9     14.335     16.890
REMARK  2 active torsions:
REMARK  status: ('A' for Active; 'I' for Inactive)
REMARK    1  A    between atoms: C5_11  and  N1_5 
REMARK       I    between atoms: C9_15  and  N1_5 
REMARK    2  A    between atoms: C1_7  and  C9_15 
ROOT
HETATM    1 Cl1  UNK     1      29.843  -9.459  33.148  1.00  0.00    -0.083 Cl
HETATM    2  N2  UNK     1      31.188  -6.148  33.585  1.00  0.00    -0.247 NA
HETATM    3  C1  UNK     1      33.636  -6.958  32.615  1.00  0.00     0.047 A 
HETATM    4  C2  UNK     1      33.585  -6.251  33.808  1.00  0.00     0.008 A 
HETATM    5  C4  UNK     1      32.311  -5.857  34.267  1.00  0.00     0.068 A 
HETATM    6  C6  UNK     1      31.304  -6.839  32.427  1.00  0.00     0.070 A 
HETATM    7  C7  UNK     1      32.505  -7.268  31.899  1.00  0.00     0.050 A 
HETATM    8  C14 UNK     1      30.056  -7.112  31.756  1.00  0.00     0.014 A 
HETATM    9  C15 UNK     1      34.736  -5.929  34.546  1.00  0.00     0.015 A 
HETATM   10  C16 UNK     1      32.237  -5.146  35.462  1.00  0.00     0.032 A 
HETATM   11  C18 UNK     1      34.633  -5.219  35.739  1.00  0.00     0.001 A 
HETATM   12  C19 UNK     1      33.381  -4.827  36.197  1.00  0.00     0.002 A 
HETATM   13  C22 UNK     1      29.313  -8.270  32.009  1.00  0.00     0.046 A 
HETATM   14  C23 UNK     1      29.583  -6.182  30.825  1.00  0.00     0.015 A 
HETATM   15  C24 UNK     1      28.110  -8.495  31.339  1.00  0.00     0.025 A 
HETATM   16  C25 UNK     1      28.380  -6.407  30.155  1.00  0.00     0.001 A 
HETATM   17  C26 UNK     1      27.644  -7.563  30.412  1.00  0.00     0.002 A 
ENDROOT
BRANCH   3  18
HETATM   18  C9  UNK     1      34.926  -7.422  32.040  1.00  0.00     0.257 C 
HETATM   19  O2  UNK     1      35.530  -6.653  31.300  1.00  0.00    -0.267 OA
HETATM   20  N1  UNK     1      35.293  -8.716  32.397  1.00  0.00    -0.323 N 
HETATM   21  H3  UNK     1      34.669  -9.221  33.023  1.00  0.00     0.169 HD
BRANCH  20  22
HETATM   22  C5  UNK     1      36.429  -9.413  31.986  1.00  0.00     0.037 A 
HETATM   23  C11 UNK     1      36.541  -9.851  30.671  1.00  0.00     0.067 A 
HETATM   24  C8  UNK     1      37.688 -10.545  30.280  1.00  0.00     0.092 A 
HETATM   25  C3  UNK     1      38.733 -10.818  31.164  1.00  0.00     0.004 A 
HETATM   26  O1  UNK     1      37.744 -10.963  28.935  1.00  0.00    -0.275 OA
HETATM   27  C10 UNK     1      39.902 -11.554  30.667  1.00  0.00    -0.043 A 
HETATM   28  C12 UNK     1      38.600 -10.367  32.485  1.00  0.00     0.017 A 
HETATM   29  C17 UNK     1      39.929 -11.940  29.383  1.00  0.00     0.090 A 
HETATM   30  C20 UNK     1      41.042 -11.863  31.593  1.00  0.00     0.049 C 
HETATM   31  C21 UNK     1      38.835 -11.660  28.437  1.00  0.00     0.288 A 
HETATM   32  O3  UNK     1      38.894 -12.027  27.270  1.00  0.00    -0.260 OA
HETATM   33  C13 UNK     1      37.457  -9.670  32.891  1.00  0.00     0.030 A 
ENDBRANCH  20  22
ENDBRANCH   3  18
TORSDOF 2
ENDMDL
