MODEL 1
REMARK VINA RESULT:      -8.5      0.000      0.000
REMARK  3 active torsions:
REMARK  status: ('A' for Active; 'I' for Inactive)
REMARK    1  A    between atoms: C1_6  and  C7_12 
REMARK    2  A    between atoms: C3_8  and  C9_14 
REMARK    3  A    between atoms: C15_20  and  C9_14 
ROOT
HETATM    1  N1  UNK     1      31.466  -6.015  35.713  1.00  0.00    -0.142 N 
HETATM    2  N2  UNK     1      32.767  -4.196  36.103  1.00  0.00    -0.187 N 
HETATM    3  N3  UNK     1      30.688  -4.332  37.274  1.00  0.00    -0.097 NA
HETATM    4  C1  UNK     1      30.321  -6.793  35.805  1.00  0.00     0.080 A 
HETATM    5  C2  UNK     1      29.486  -5.161  37.526  1.00  0.00     0.163 A 
HETATM    6  C3  UNK     1      29.341  -6.400  36.654  1.00  0.00     0.046 A 
HETATM    7  C4  UNK     1      31.559  -4.802  36.443  1.00  0.00     0.708 A 
HETATM    8  C5  UNK     1      32.656  -6.148  34.940  1.00  0.00     0.084 A 
HETATM    9  C6  UNK     1      33.450  -5.006  35.196  1.00  0.00     0.077 A 
HETATM   10  C8  UNK     1      29.512  -5.525  39.013  1.00  0.00     0.040 C 
HETATM   11  C10 UNK     1      33.114  -7.119  34.074  1.00  0.00     0.033 A 
HETATM   12  C11 UNK     1      34.680  -4.805  34.604  1.00  0.00     0.032 A 
HETATM   13  C14 UNK     1      34.362  -6.930  33.465  1.00  0.00     0.002 A 
HETATM   14  C16 UNK     1      35.136  -5.786  33.726  1.00  0.00     0.002 A 
HETATM   15  H2  UNK     1      33.121  -3.321  36.459  1.00  0.00     0.184 HD
ENDROOT
BRANCH   6  16
HETATM   16  C9  UNK     1      28.064  -7.129  36.751  1.00  0.00     0.192 C 
HETATM   17  O1  UNK     1      27.183  -6.945  35.918  1.00  0.00    -0.287 OA
BRANCH  16  18
HETATM   18  C15 UNK     1      27.876  -8.101  37.854  1.00  0.00     0.015 A 
HETATM   19  C19 UNK     1      26.659  -8.147  38.506  1.00  0.00     0.015 A 
HETATM   20  C22 UNK     1      26.482  -9.062  39.544  1.00  0.00     0.001 A 
HETATM   21  C24 UNK     1      27.524  -9.913  39.908  1.00  0.00     0.000 A 
HETATM   22  C23 UNK     1      28.744  -9.850  39.236  1.00  0.00     0.001 A 
HETATM   23  C20 UNK     1      28.922  -8.934  38.198  1.00  0.00     0.015 A 
ENDBRANCH  16  18
ENDBRANCH   6  16
BRANCH   4  24
HETATM   24  C7  UNK     1      30.180  -7.979  34.973  1.00  0.00    -0.005 A 
HETATM   25  C12 UNK     1      29.557  -7.886  33.729  1.00  0.00     0.056 A 
HETATM   26  C17 UNK     1      29.423  -9.023  32.930  1.00  0.00     0.117 A 
HETATM   27  F1  UNK     1      28.824  -8.935  31.736  1.00  0.00    -0.206 F 
HETATM   28  C21 UNK     1      29.911 -10.250  33.377  1.00  0.00     0.042 A 
HETATM   29  C18 UNK     1      30.534 -10.342  34.623  1.00  0.00     0.004 A 
HETATM   30  C13 UNK     1      30.668  -9.206  35.420  1.00  0.00     0.014 A 
ENDBRANCH   4  24
TORSDOF 3
ENDMDL
MODEL 2
REMARK VINA RESULT:      -8.4      2.684      6.831
REMARK  3 active torsions:
REMARK  status: ('A' for Active; 'I' for Inactive)
REMARK    1  A    between atoms: C1_6  and  C7_12 
REMARK    2  A    between atoms: C3_8  and  C9_14 
REMARK    3  A    between atoms: C15_20  and  C9_14 
ROOT
HETATM    1  N1  UNK     1      29.121  -8.342  35.982  1.00  0.00    -0.142 N 
HETATM    2  N2  UNK     1      27.493  -9.894  35.678  1.00  0.00    -0.187 N 
HETATM    3  N3  UNK     1      28.731  -9.209  33.752  1.00  0.00    -0.097 NA
HETATM    4  C1  UNK     1      30.100  -7.442  35.585  1.00  0.00     0.080 A 
HETATM    5  C2  UNK     1      29.848  -8.368  33.261  1.00  0.00     0.163 A 
HETATM    6  C3  UNK     1      30.459  -7.416  34.279  1.00  0.00     0.046 A 
HETATM    7  C4  UNK     1      28.473  -9.155  35.017  1.00  0.00     0.708 A 
HETATM    8  C5  UNK     1      28.533  -8.621  37.250  1.00  0.00     0.084 A 
HETATM    9  C6  UNK     1      27.523  -9.587  37.038  1.00  0.00     0.077 A 
HETATM   10  C8  UNK     1      30.898  -9.327  32.692  1.00  0.00     0.040 C 
HETATM   11  C10 UNK     1      28.774  -8.151  38.525  1.00  0.00     0.033 A 
HETATM   12  C11 UNK     1      26.742 -10.086  38.060  1.00  0.00     0.032 A 
HETATM   13  C14 UNK     1      27.990  -8.649  39.575  1.00  0.00     0.002 A 
HETATM   14  C16 UNK     1      26.985  -9.605  39.346  1.00  0.00     0.002 A 
HETATM   15  H2  UNK     1      26.865 -10.565  35.262  1.00  0.00     0.184 HD
ENDROOT
BRANCH   6  16
HETATM   16  C9  UNK     1      31.434  -6.437  33.764  1.00  0.00     0.192 C 
HETATM   17  O1  UNK     1      31.083  -5.580  32.961  1.00  0.00    -0.287 OA
BRANCH  16  18
HETATM   18  C15 UNK     1      32.832  -6.493  34.253  1.00  0.00     0.015 A 
HETATM   19  C19 UNK     1      33.446  -5.325  34.662  1.00  0.00     0.015 A 
HETATM   20  C22 UNK     1      34.761  -5.378  35.123  1.00  0.00     0.001 A 
HETATM   21  C24 UNK     1      35.436  -6.597  35.166  1.00  0.00     0.000 A 
HETATM   22  C23 UNK     1      34.797  -7.764  34.748  1.00  0.00     0.001 A 
HETATM   23  C20 UNK     1      33.481  -7.712  34.287  1.00  0.00     0.015 A 
ENDBRANCH  16  18
ENDBRANCH   6  16
BRANCH   4  24
HETATM   24  C7  UNK     1      30.688  -6.532  36.557  1.00  0.00    -0.005 A 
HETATM   25  C12 UNK     1      30.210  -5.226  36.664  1.00  0.00     0.056 A 
HETATM   26  C17 UNK     1      30.772  -4.353  37.597  1.00  0.00     0.117 A 
HETATM   27  F1  UNK     1      30.314  -3.099  37.700  1.00  0.00    -0.206 F 
HETATM   28  C21 UNK     1      31.810  -4.786  38.420  1.00  0.00     0.042 A 
HETATM   29  C18 UNK     1      32.288  -6.093  38.312  1.00  0.00     0.004 A 
HETATM   30  C13 UNK     1      31.726  -6.965  37.380  1.00  0.00     0.014 A 
ENDBRANCH   4  24
TORSDOF 3
ENDMDL
MODEL 3
REMARK VINA RESULT:      -8.4      2.947      5.289
REMARK  3 active torsions:
REMARK  status: ('A' for Active; 'I' for Inactive)
REMARK    1  A    between atoms: C1_6  and  C7_12 
REMARK    2  A    between atoms: C3_8  and  C9_14 
REMARK    3  A    between atoms: C15_20  and  C9_14 
ROOT
HETATM    1  N1  UNK     1      30.056  -8.293  33.191  1.00  0.00    -0.142 N 
HETATM    2  N2  UNK     1      28.782  -9.535  31.781  1.00  0.00    -0.187 N 
HETATM    3  N3  UNK     1      28.668 -10.054  34.111  1.00  0.00    -0.097 NA
HETATM    4  C1  UNK     1      30.624  -7.948  34.409  1.00  0.00     0.080 A 
HETATM    5  C2  UNK     1      29.130  -9.672  35.466  1.00  0.00     0.163 A 
HETATM    6  C3  UNK     1      30.215  -8.606  35.520  1.00  0.00     0.046 A 
HETATM    7  C4  UNK     1      29.124  -9.360  33.121  1.00  0.00     0.708 A 
HETATM    8  C5  UNK     1      30.255  -7.804  31.867  1.00  0.00     0.084 A 
HETATM    9  C6  UNK     1      29.455  -8.591  31.007  1.00  0.00     0.077 A 
HETATM   10  C8  UNK     1      27.885  -9.242  36.246  1.00  0.00     0.040 C 
HETATM   11  C10 UNK     1      31.022  -6.782  31.345  1.00  0.00     0.033 A 
HETATM   12  C11 UNK     1      29.410  -8.392  29.642  1.00  0.00     0.032 A 
HETATM   13  C14 UNK     1      30.986  -6.566  29.961  1.00  0.00     0.002 A 
HETATM   14  C16 UNK     1      30.189  -7.362  29.118  1.00  0.00     0.002 A 
HETATM   15  H2  UNK     1      28.138 -10.217  31.410  1.00  0.00     0.184 HD
ENDROOT
BRANCH   6  16
HETATM   16  C9  UNK     1      30.825  -8.353  36.838  1.00  0.00     0.192 C 
HETATM   17  O1  UNK     1      31.495  -9.221  37.385  1.00  0.00    -0.287 OA
BRANCH  16  18
HETATM   18  C15 UNK     1      30.635  -7.027  37.473  1.00  0.00     0.015 A 
HETATM   19  C19 UNK     1      31.729  -6.380  38.012  1.00  0.00     0.015 A 
HETATM   20  C22 UNK     1      31.550  -5.132  38.609  1.00  0.00     0.001 A 
HETATM   21  C24 UNK     1      30.281  -4.556  38.654  1.00  0.00     0.000 A 
HETATM   22  C23 UNK     1      29.190  -5.228  38.103  1.00  0.00     0.001 A 
HETATM   23  C20 UNK     1      29.368  -6.476  37.506  1.00  0.00     0.015 A 
ENDBRANCH  16  18
ENDBRANCH   6  16
BRANCH   4  24
HETATM   24  C7  UNK     1      31.661  -6.928  34.464  1.00  0.00    -0.005 A 
HETATM   25  C12 UNK     1      33.005  -7.299  34.432  1.00  0.00     0.056 A 
HETATM   26  C17 UNK     1      33.999  -6.320  34.483  1.00  0.00     0.117 A 
HETATM   27  F1  UNK     1      35.289  -6.676  34.453  1.00  0.00    -0.206 F 
HETATM   28  C21 UNK     1      33.648  -4.974  34.567  1.00  0.00     0.042 A 
HETATM   29  C18 UNK     1      32.303  -4.603  34.599  1.00  0.00     0.004 A 
HETATM   30  C13 UNK     1      31.310  -5.581  34.548  1.00  0.00     0.014 A 
ENDBRANCH   4  24
TORSDOF 3
ENDMDL
MODEL 4
REMARK VINA RESULT:      -8.4      2.380      5.757
REMARK  3 active torsions:
REMARK  status: ('A' for Active; 'I' for Inactive)
REMARK    1  A    between atoms: C1_6  and  C7_12 
REMARK    2  A    between atoms: C3_8  and  C9_14 
REMARK    3  A    between atoms: C15_20  and  C9_14 
ROOT
HETATM    1  N1  UNK     1      28.849  -7.113  37.452  1.00  0.00    -0.142 N 
HETATM    2  N2  UNK     1      27.618  -7.952  39.164  1.00  0.00    -0.187 N 
HETATM    3  N3  UNK     1      28.918  -5.995  39.602  1.00  0.00    -0.097 NA
HETATM    4  C1  UNK     1      29.780  -6.272  36.857  1.00  0.00     0.080 A 
HETATM    5  C2  UNK     1      29.823  -4.980  39.013  1.00  0.00     0.163 A 
HETATM    6  C3  UNK     1      30.282  -5.248  37.587  1.00  0.00     0.046 A 
HETATM    7  C4  UNK     1      28.500  -6.931  38.815  1.00  0.00     0.708 A 
HETATM    8  C5  UNK     1      28.140  -8.252  36.971  1.00  0.00     0.084 A 
HETATM    9  C6  UNK     1      27.382  -8.758  38.052  1.00  0.00     0.077 A 
HETATM   10  C8  UNK     1      29.099  -3.635  39.123  1.00  0.00     0.040 C 
HETATM   11  C10 UNK     1      28.076  -8.872  35.740  1.00  0.00     0.033 A 
HETATM   12  C11 UNK     1      26.573  -9.870  37.938  1.00  0.00     0.032 A 
HETATM   13  C14 UNK     1      27.258 -10.002  35.608  1.00  0.00     0.002 A 
HETATM   14  C16 UNK     1      26.515 -10.497  36.695  1.00  0.00     0.002 A 
HETATM   15  H2  UNK     1      27.190  -8.093  40.067  1.00  0.00     0.184 HD
ENDROOT
BRANCH   6  16
HETATM   16  C9  UNK     1      31.330  -4.359  37.054  1.00  0.00     0.192 C 
HETATM   17  O1  UNK     1      31.077  -3.185  36.808  1.00  0.00    -0.287 OA
BRANCH  16  18
HETATM   18  C15 UNK     1      32.693  -4.902  36.846  1.00  0.00     0.015 A 
HETATM   19  C19 UNK     1      33.393  -4.539  35.712  1.00  0.00     0.015 A 
HETATM   20  C22 UNK     1      34.676  -5.050  35.517  1.00  0.00     0.001 A 
HETATM   21  C24 UNK     1      35.234  -5.913  36.459  1.00  0.00     0.000 A 
HETATM   22  C23 UNK     1      34.509  -6.266  37.598  1.00  0.00     0.001 A 
HETATM   23  C20 UNK     1      33.226  -5.755  37.793  1.00  0.00     0.015 A 
ENDBRANCH  16  18
ENDBRANCH   6  16
BRANCH   4  24
HETATM   24  C7  UNK     1      30.219  -6.526  35.493  1.00  0.00    -0.005 A 
HETATM   25  C12 UNK     1      29.621  -5.846  34.432  1.00  0.00     0.056 A 
HETATM   26  C17 UNK     1      30.043  -6.088  33.124  1.00  0.00     0.117 A 
HETATM   27  F1  UNK     1      29.468  -5.437  32.104  1.00  0.00    -0.206 F 
HETATM   28  C21 UNK     1      31.061  -7.008  32.878  1.00  0.00     0.042 A 
HETATM   29  C18 UNK     1      31.659  -7.688  33.941  1.00  0.00     0.004 A 
HETATM   30  C13 UNK     1      31.237  -7.445  35.247  1.00  0.00     0.014 A 
ENDBRANCH   4  24
TORSDOF 3
ENDMDL
MODEL 5
REMARK VINA RESULT:      -8.3      3.181      6.019
REMARK  3 active torsions:
REMARK  status: ('A' for Active; 'I' for Inactive)
REMARK    1  A    between atoms: C1_6  and  C7_12 
REMARK    2  A    between atoms: C3_8  and  C9_14 
REMARK    3  A    between atoms: C15_20  and  C9_14 
ROOT
HETATM    1  N1  UNK     1      29.968 -10.070  33.410  1.00  0.00    -0.142 N 
HETATM    2  N2  UNK     1      29.560 -11.274  31.530  1.00  0.00    -0.187 N 
HETATM    3  N3  UNK     1      28.612  -9.083  31.660  1.00  0.00    -0.097 NA
HETATM    4  C1  UNK     1      29.829  -8.997  34.280  1.00  0.00     0.080 A 
HETATM    5  C2  UNK     1      28.512  -7.848  32.472  1.00  0.00     0.163 A 
HETATM    6  C3  UNK     1      29.118  -7.921  33.867  1.00  0.00     0.046 A 
HETATM    7  C4  UNK     1      29.314 -10.050  32.152  1.00  0.00     0.708 A 
HETATM    8  C5  UNK     1      30.640 -11.321  33.531  1.00  0.00     0.084 A 
HETATM    9  C6  UNK     1      30.372 -12.054  32.352  1.00  0.00     0.077 A 
HETATM   10  C8  UNK     1      29.150  -6.729  31.644  1.00  0.00     0.040 C 
HETATM   11  C10 UNK     1      31.437 -11.872  34.513  1.00  0.00     0.033 A 
HETATM   12  C11 UNK     1      30.868 -13.322  32.134  1.00  0.00     0.032 A 
HETATM   13  C14 UNK     1      31.949 -13.160  34.307  1.00  0.00     0.002 A 
HETATM   14  C16 UNK     1      31.668 -13.878  33.130  1.00  0.00     0.002 A 
HETATM   15  H2  UNK     1      29.230 -11.562  30.621  1.00  0.00     0.184 HD
ENDROOT
BRANCH   6  16
HETATM   16  C9  UNK     1      28.860  -6.775  34.758  1.00  0.00     0.192 C 
HETATM   17  O1  UNK     1      27.716  -6.520  35.119  1.00  0.00    -0.287 OA
BRANCH  16  18
HETATM   18  C15 UNK     1      30.005  -5.959  35.227  1.00  0.00     0.015 A 
HETATM   19  C19 UNK     1      30.990  -5.608  34.325  1.00  0.00     0.015 A 
HETATM   20  C22 UNK     1      32.067  -4.839  34.766  1.00  0.00     0.001 A 
HETATM   21  C24 UNK     1      32.137  -4.437  36.099  1.00  0.00     0.000 A 
HETATM   22  C23 UNK     1      31.131  -4.803  36.992  1.00  0.00     0.001 A 
HETATM   23  C20 UNK     1      30.053  -5.572  36.552  1.00  0.00     0.015 A 
ENDBRANCH  16  18
ENDBRANCH   6  16
BRANCH   4  24
HETATM   24  C7  UNK     1      30.409  -9.063  35.613  1.00  0.00    -0.005 A 
HETATM   25  C12 UNK     1      29.617  -9.440  36.698  1.00  0.00     0.056 A 
HETATM   26  C17 UNK     1      30.174  -9.505  37.977  1.00  0.00     0.117 A 
HETATM   27  F1  UNK     1      29.414  -9.866  39.019  1.00  0.00    -0.206 F 
HETATM   28  C21 UNK     1      31.518  -9.193  38.169  1.00  0.00     0.042 A 
HETATM   29  C18 UNK     1      32.310  -8.815  37.082  1.00  0.00     0.004 A 
HETATM   30  C13 UNK     1      31.754  -8.751  35.805  1.00  0.00     0.014 A 
ENDBRANCH   4  24
TORSDOF 3
ENDMDL
MODEL 6
REMARK VINA RESULT:      -8.3      3.490      5.388
REMARK  3 active torsions:
REMARK  status: ('A' for Active; 'I' for Inactive)
REMARK    1  A    between atoms: C1_6  and  C7_12 
REMARK    2  A    between atoms: C3_8  and  C9_14 
REMARK    3  A    between atoms: C15_20  and  C9_14 
ROOT
HETATM    1  N1  UNK     1      32.075  -7.893  34.769  1.00  0.00    -0.142 N 
HETATM    2  N2  UNK     1      33.559  -8.263  36.446  1.00  0.00    -0.187 N 
HETATM    3  N3  UNK     1      32.028 -10.023  35.923  1.00  0.00    -0.097 NA
HETATM    4  C1  UNK     1      30.984  -8.177  33.960  1.00  0.00     0.080 A 
HETATM    5  C2  UNK     1      30.937 -10.457  35.019  1.00  0.00     0.163 A 
HETATM    6  C3  UNK     1      30.401  -9.395  34.069  1.00  0.00     0.046 A 
HETATM    7  C4  UNK     1      32.510  -8.840  35.731  1.00  0.00     0.708 A 
HETATM    8  C5  UNK     1      32.900  -6.737  34.895  1.00  0.00     0.084 A 
HETATM    9  C6  UNK     1      33.813  -6.988  35.944  1.00  0.00     0.077 A 
HETATM   10  C8  UNK     1      31.464 -11.676  34.255  1.00  0.00     0.040 C 
HETATM   11  C10 UNK     1      32.947  -5.535  34.219  1.00  0.00     0.033 A 
HETATM   12  C11 UNK     1      34.763  -6.070  36.341  1.00  0.00     0.032 A 
HETATM   13  C14 UNK     1      33.907  -4.591  34.609  1.00  0.00     0.002 A 
HETATM   14  C16 UNK     1      34.805  -4.855  35.659  1.00  0.00     0.002 A 
HETATM   15  H2  UNK     1      34.079  -8.691  37.198  1.00  0.00     0.184 HD
ENDROOT
BRANCH   6  16
HETATM   16  C9  UNK     1      29.192  -9.747  33.303  1.00  0.00     0.192 C 
HETATM   17  O1  UNK     1      28.150 -10.024  33.886  1.00  0.00    -0.287 OA
BRANCH  16  18
HETATM   18  C15 UNK     1      29.254  -9.733  31.822  1.00  0.00     0.015 A 
HETATM   19  C19 UNK     1      28.300  -9.024  31.119  1.00  0.00     0.015 A 
HETATM   20  C22 UNK     1      28.358  -9.010  29.725  1.00  0.00     0.001 A 
HETATM   21  C24 UNK     1      29.369  -9.705  29.063  1.00  0.00     0.000 A 
HETATM   22  C23 UNK     1      30.322 -10.414  29.793  1.00  0.00     0.001 A 
HETATM   23  C20 UNK     1      30.264 -10.429  31.187  1.00  0.00     0.015 A 
ENDBRANCH  16  18
ENDBRANCH   6  16
BRANCH   4  24
HETATM   24  C7  UNK     1      30.470  -7.165  33.050  1.00  0.00    -0.005 A 
HETATM   25  C12 UNK     1      31.063  -6.988  31.799  1.00  0.00     0.056 A 
HETATM   26  C17 UNK     1      30.570  -6.018  30.926  1.00  0.00     0.117 A 
HETATM   27  F1  UNK     1      31.139  -5.847  29.726  1.00  0.00    -0.206 F 
HETATM   28  C21 UNK     1      29.487  -5.225  31.303  1.00  0.00     0.042 A 
HETATM   29  C18 UNK     1      28.895  -5.402  32.554  1.00  0.00     0.004 A 
HETATM   30  C13 UNK     1      29.387  -6.372  33.427  1.00  0.00     0.014 A 
ENDBRANCH   4  24
TORSDOF 3
ENDMDL
MODEL 7
REMARK VINA RESULT:      -8.3      2.506      3.999
REMARK  3 active torsions:
REMARK  status: ('A' for Active; 'I' for Inactive)
REMARK    1  A    between atoms: C1_6  and  C7_12 
REMARK    2  A    between atoms: C3_8  and  C9_14 
REMARK    3  A    between atoms: C15_20  and  C9_14 
ROOT
HETATM    1  N1  UNK     1      32.464  -7.630  33.319  1.00  0.00    -0.142 N 
HETATM    2  N2  UNK     1      34.711  -7.951  33.311  1.00  0.00    -0.187 N 
HETATM    3  N3  UNK     1      33.585  -8.107  35.414  1.00  0.00    -0.097 NA
HETATM    4  C1  UNK     1      31.212  -7.463  33.895  1.00  0.00     0.080 A 
HETATM    5  C2  UNK     1      32.269  -8.068  36.094  1.00  0.00     0.163 A 
HETATM    6  C3  UNK     1      31.088  -7.647  35.231  1.00  0.00     0.046 A 
HETATM    7  C4  UNK     1      33.587  -7.915  34.136  1.00  0.00     0.708 A 
HETATM    8  C5  UNK     1      32.923  -7.518  31.974  1.00  0.00     0.084 A 
HETATM    9  C6  UNK     1      34.322  -7.720  31.993  1.00  0.00     0.077 A 
HETATM   10  C8  UNK     1      32.051  -9.457  36.701  1.00  0.00     0.040 C 
HETATM   11  C10 UNK     1      32.282  -7.276  30.776  1.00  0.00     0.033 A 
HETATM   12  C11 UNK     1      35.096  -7.675  30.852  1.00  0.00     0.032 A 
HETATM   13  C14 UNK     1      33.054  -7.229  29.608  1.00  0.00     0.002 A 
HETATM   14  C16 UNK     1      34.446  -7.426  29.645  1.00  0.00     0.002 A 
HETATM   15  H2  UNK     1      35.661  -8.133  33.599  1.00  0.00     0.184 HD
ENDROOT
BRANCH   6  16
HETATM   16  C9  UNK     1      29.811  -7.414  35.929  1.00  0.00     0.192 C 
HETATM   17  O1  UNK     1      28.837  -8.116  35.685  1.00  0.00    -0.287 OA
BRANCH  16  18
HETATM   18  C15 UNK     1      29.737  -6.337  36.945  1.00  0.00     0.015 A 
HETATM   19  C19 UNK     1      29.082  -6.584  38.136  1.00  0.00     0.015 A 
HETATM   20  C22 UNK     1      29.012  -5.571  39.092  1.00  0.00     0.001 A 
HETATM   21  C24 UNK     1      29.599  -4.332  38.839  1.00  0.00     0.000 A 
HETATM   22  C23 UNK     1      30.255  -4.105  37.630  1.00  0.00     0.001 A 
HETATM   23  C20 UNK     1      30.325  -5.117  36.673  1.00  0.00     0.015 A 
ENDBRANCH  16  18
ENDBRANCH   6  16
BRANCH   4  24
HETATM   24  C7  UNK     1      30.081  -7.062  33.072  1.00  0.00    -0.005 A 
HETATM   25  C12 UNK     1      29.308  -8.032  32.432  1.00  0.00     0.056 A 
HETATM   26  C17 UNK     1      28.222  -7.648  31.643  1.00  0.00     0.117 A 
HETATM   27  F1  UNK     1      27.481  -8.578  31.029  1.00  0.00    -0.206 F 
HETATM   28  C21 UNK     1      27.911  -6.297  31.494  1.00  0.00     0.042 A 
HETATM   29  C18 UNK     1      28.686  -5.328  32.134  1.00  0.00     0.004 A 
HETATM   30  C13 UNK     1      29.770  -5.711  32.922  1.00  0.00     0.014 A 
ENDBRANCH   4  24
TORSDOF 3
ENDMDL
MODEL 8
REMARK VINA RESULT:      -8.3      3.042      6.786
REMARK  3 active torsions:
REMARK  status: ('A' for Active; 'I' for Inactive)
REMARK    1  A    between atoms: C1_6  and  C7_12 
REMARK    2  A    between atoms: C3_8  and  C9_14 
REMARK    3  A    between atoms: C15_20  and  C9_14 
ROOT
HETATM    1  N1  UNK     1      30.049  -6.835  35.941  1.00  0.00    -0.142 N 
HETATM    2  N2  UNK     1      27.957  -7.181  36.751  1.00  0.00    -0.187 N 
HETATM    3  N3  UNK     1      28.648  -8.510  34.888  1.00  0.00    -0.097 NA
HETATM    4  C1  UNK     1      31.102  -6.992  35.050  1.00  0.00     0.080 A 
HETATM    5  C2  UNK     1      29.767  -8.829  33.971  1.00  0.00     0.163 A 
HETATM    6  C3  UNK     1      30.990  -7.930  34.079  1.00  0.00     0.046 A 
HETATM    7  C4  UNK     1      28.863  -7.597  35.777  1.00  0.00     0.708 A 
HETATM    8  C5  UNK     1      29.856  -5.965  37.053  1.00  0.00     0.084 A 
HETATM    9  C6  UNK     1      28.548  -6.196  37.540  1.00  0.00     0.077 A 
HETATM   10  C8  UNK     1      30.129 -10.297  34.219  1.00  0.00     0.040 C 
HETATM   11  C10 UNK     1      30.662  -5.033  37.672  1.00  0.00     0.033 A 
HETATM   12  C11 UNK     1      28.025  -5.514  38.619  1.00  0.00     0.032 A 
HETATM   13  C14 UNK     1      30.145  -4.332  38.770  1.00  0.00     0.002 A 
HETATM   14  C16 UNK     1      28.841  -4.569  39.238  1.00  0.00     0.002 A 
HETATM   15  H2  UNK     1      27.024  -7.537  36.893  1.00  0.00     0.184 HD
ENDROOT
BRANCH   6  16
HETATM   16  C9  UNK     1      32.030  -8.105  33.049  1.00  0.00     0.192 C 
HETATM   17  O1  UNK     1      33.031  -8.771  33.290  1.00  0.00    -0.287 OA
BRANCH  16  18
HETATM   18  C15 UNK     1      31.831  -7.486  31.717  1.00  0.00     0.015 A 
HETATM   19  C19 UNK     1      30.771  -6.620  31.533  1.00  0.00     0.015 A 
HETATM   20  C22 UNK     1      30.584  -6.037  30.280  1.00  0.00     0.001 A 
HETATM   21  C24 UNK     1      31.461  -6.331  29.236  1.00  0.00     0.000 A 
HETATM   22  C23 UNK     1      32.525  -7.208  29.445  1.00  0.00     0.001 A 
HETATM   23  C20 UNK     1      32.712  -7.792  30.698  1.00  0.00     0.015 A 
ENDBRANCH  16  18
ENDBRANCH   6  16
BRANCH   4  24
HETATM   24  C7  UNK     1      32.274  -6.135  35.152  1.00  0.00    -0.005 A 
HETATM   25  C12 UNK     1      33.366  -6.538  35.920  1.00  0.00     0.056 A 
HETATM   26  C17 UNK     1      34.490  -5.717  36.017  1.00  0.00     0.117 A 
HETATM   27  F1  UNK     1      35.539  -6.103  36.755  1.00  0.00    -0.206 F 
HETATM   28  C21 UNK     1      34.521  -4.494  35.348  1.00  0.00     0.042 A 
HETATM   29  C18 UNK     1      33.427  -4.091  34.580  1.00  0.00     0.004 A 
HETATM   30  C13 UNK     1      32.304  -4.912  34.483  1.00  0.00     0.014 A 
ENDBRANCH   4  24
TORSDOF 3
ENDMDL
MODEL 9
REMARK VINA RESULT:      -8.2      2.870      4.385
REMARK  3 active torsions:
REMARK  status: ('A' for Active; 'I' for Inactive)
REMARK    1  A    between atoms: C1_6  and  C7_12 
REMARK    2  A    between atoms: C3_8  and  C9_14 
REMARK    3  A    between atoms: C15_20  and  C9_14 
ROOT
HETATM    1  N1  UNK     1      33.312  -7.473  34.218  1.00  0.00    -0.142 N 
HETATM    2  N2  UNK     1      35.300  -8.548  34.010  1.00  0.00    -0.187 N 
HETATM    3  N3  UNK     1      35.127  -6.879  35.711  1.00  0.00    -0.097 NA
HETATM    4  C1  UNK     1      32.438  -6.515  34.715  1.00  0.00     0.080 A 
HETATM    5  C2  UNK     1      34.222  -5.916  36.382  1.00  0.00     0.163 A 
HETATM    6  C3  UNK     1      32.852  -5.737  35.743  1.00  0.00     0.046 A 
HETATM    7  C4  UNK     1      34.628  -7.569  34.740  1.00  0.00     0.708 A 
HETATM    8  C5  UNK     1      33.188  -8.433  33.172  1.00  0.00     0.084 A 
HETATM    9  C6  UNK     1      34.435  -9.089  33.059  1.00  0.00     0.077 A 
HETATM   10  C8  UNK     1      34.103  -6.372  37.839  1.00  0.00     0.040 C 
HETATM   11  C10 UNK     1      32.147  -8.793  32.341  1.00  0.00     0.033 A 
HETATM   12  C11 UNK     1      34.672 -10.085  32.133  1.00  0.00     0.032 A 
HETATM   13  C14 UNK     1      32.371  -9.803  31.396  1.00  0.00     0.002 A 
HETATM   14  C16 UNK     1      33.620 -10.442  31.293  1.00  0.00     0.002 A 
HETATM   15  H2  UNK     1      36.253  -8.849  34.145  1.00  0.00     0.184 HD
ENDROOT
BRANCH   6  16
HETATM   16  C9  UNK     1      32.014  -4.647  36.275  1.00  0.00     0.192 C 
HETATM   17  O1  UNK     1      32.174  -3.497  35.882  1.00  0.00    -0.287 OA
BRANCH  16  18
HETATM   18  C15 UNK     1      30.963  -4.971  37.269  1.00  0.00     0.015 A 
HETATM   19  C19 UNK     1      30.800  -6.284  37.666  1.00  0.00     0.015 A 
HETATM   20  C22 UNK     1      29.812  -6.589  38.602  1.00  0.00     0.001 A 
HETATM   21  C24 UNK     1      29.007  -5.576  39.122  1.00  0.00     0.000 A 
HETATM   22  C23 UNK     1      29.190  -4.257  38.707  1.00  0.00     0.001 A 
HETATM   23  C20 UNK     1      30.178  -3.951  37.770  1.00  0.00     0.015 A 
ENDBRANCH  16  18
ENDBRANCH   6  16
BRANCH   4  24
HETATM   24  C7  UNK     1      31.127  -6.343  34.107  1.00  0.00    -0.005 A 
HETATM   25  C12 UNK     1      30.959  -5.437  33.060  1.00  0.00     0.056 A 
HETATM   26  C17 UNK     1      29.703  -5.272  32.476  1.00  0.00     0.117 A 
HETATM   27  F1  UNK     1      29.541  -4.401  31.471  1.00  0.00    -0.206 F 
HETATM   28  C21 UNK     1      28.616  -6.013  32.938  1.00  0.00     0.042 A 
HETATM   29  C18 UNK     1      28.785  -6.920  33.986  1.00  0.00     0.004 A 
HETATM   30  C13 UNK     1      30.041  -7.084  34.569  1.00  0.00     0.014 A 
ENDBRANCH   4  24
TORSDOF 3
ENDMDL
MODEL 10
REMARK VINA RESULT:      -8.1      3.347      6.209
REMARK  3 active torsions:
REMARK  status: ('A' for Active; 'I' for Inactive)
REMARK    1  A    between atoms: C1_6  and  C7_12 
REMARK    2  A    between atoms: C3_8  and  C9_14 
REMARK    3  A    between atoms: C15_20  and  C9_14 
ROOT
HETATM    1  N1  UNK     1      31.044  -7.801  34.067  1.00  0.00    -0.142 N 
HETATM    2  N2  UNK     1      31.109  -6.354  35.814  1.00  0.00    -0.187 N 
HETATM    3  N3  UNK     1      30.872  -5.424  33.625  1.00  0.00    -0.097 NA
HETATM    4  C1  UNK     1      31.026  -8.167  32.728  1.00  0.00     0.080 A 
HETATM    5  C2  UNK     1      30.722  -5.732  32.183  1.00  0.00     0.163 A 
HETATM    6  C3  UNK     1      30.892  -7.194  31.796  1.00  0.00     0.046 A 
HETATM    7  C4  UNK     1      30.995  -6.430  34.427  1.00  0.00     0.708 A 
HETATM    8  C5  UNK     1      31.163  -8.561  35.267  1.00  0.00     0.084 A 
HETATM    9  C6  UNK     1      31.203  -7.641  36.341  1.00  0.00     0.077 A 
HETATM   10  C8  UNK     1      29.349  -5.199  31.764  1.00  0.00     0.040 C 
HETATM   11  C10 UNK     1      31.231  -9.915  35.523  1.00  0.00     0.033 A 
HETATM   12  C11 UNK     1      31.319  -8.037  37.657  1.00  0.00     0.032 A 
HETATM   13  C14 UNK     1      31.349 -10.333  36.855  1.00  0.00     0.002 A 
HETATM   14  C16 UNK     1      31.393  -9.405  37.911  1.00  0.00     0.002 A 
HETATM   15  H2  UNK     1      31.105  -5.512  36.371  1.00  0.00     0.184 HD
ENDROOT
BRANCH   6  16
HETATM   16  C9  UNK     1      30.941  -7.492  30.353  1.00  0.00     0.192 C 
HETATM   17  O1  UNK     1      31.874  -7.085  29.670  1.00  0.00    -0.287 OA
BRANCH  16  18
HETATM   18  C15 UNK     1      29.861  -8.311  29.754  1.00  0.00     0.015 A 
HETATM   19  C19 UNK     1      30.188  -9.258  28.803  1.00  0.00     0.015 A 
HETATM   20  C22 UNK     1      29.172 -10.029  28.239  1.00  0.00     0.001 A 
HETATM   21  C24 UNK     1      27.849  -9.839  28.637  1.00  0.00     0.000 A 
HETATM   22  C23 UNK     1      27.542  -8.877  29.600  1.00  0.00     0.001 A 
HETATM   23  C20 UNK     1      28.558  -8.105  30.164  1.00  0.00     0.015 A 
ENDBRANCH  16  18
ENDBRANCH   6  16
BRANCH   4  24
HETATM   24  C7  UNK     1      31.186  -9.565  32.356  1.00  0.00    -0.005 A 
HETATM   25  C12 UNK     1      32.443 -10.049  31.993  1.00  0.00     0.056 A 
HETATM   26  C17 UNK     1      32.598 -11.389  31.637  1.00  0.00     0.117 A 
HETATM   27  F1  UNK     1      33.804 -11.854  31.287  1.00  0.00    -0.206 F 
HETATM   28  C21 UNK     1      31.496 -12.244  31.643  1.00  0.00     0.042 A 
HETATM   29  C18 UNK     1      30.238 -11.759  32.006  1.00  0.00     0.004 A 
HETATM   30  C13 UNK     1      30.085 -10.419  32.362  1.00  0.00     0.014 A 
ENDBRANCH   4  24
TORSDOF 3
ENDMDL
