MODEL 1
REMARK VINA RESULT:      -9.9      0.000      0.000
REMARK  4 active torsions:
REMARK  status: ('A' for Active; 'I' for Inactive)
REMARK    1  A    between atoms: C14_21  and  O3_4 
REMARK    2  A    between atoms: C12_19  and  N1_6 
REMARK       I    between atoms: C15_22  and  N1_6 
REMARK    3  A    between atoms: C10_17  and  C6_13 
REMARK    4  A    between atoms: C13_20  and  C15_22 
ROOT
HETATM    1  N2  UNK     1      20.250   5.815  30.142  1.00  0.00    -0.191 NA
HETATM    2  C10 UNK     1      17.922   3.802  31.787  1.00  0.00     0.045 C 
HETATM    3  C13 UNK     1      18.352   5.078  31.741  1.00  0.00     0.113 C 
HETATM    4  C20 UNK     1      19.400   5.480  30.857  1.00  0.00     0.105 C 
ENDROOT
BRANCH   3   5
HETATM    5  C15 UNK     1      17.681   6.062  32.675  1.00  0.00     0.266 C 
HETATM    6  O4  UNK     1      17.261   5.693  33.770  1.00  0.00    -0.267 OA
HETATM    7  N1  UNK     1      17.605   7.353  32.163  1.00  0.00    -0.320 N 
HETATM    8  H9  UNK     1      17.991   7.537  31.241  1.00  0.00     0.169 HD
BRANCH   7   9
HETATM    9  C12 UNK     1      17.039   8.496  32.785  1.00  0.00     0.070 A 
HETATM   10  C14 UNK     1      17.824   9.299  33.595  1.00  0.00     0.095 A 
HETATM   11  C17 UNK     1      17.254  10.420  34.199  1.00  0.00     0.041 A 
HETATM   12  C19 UNK     1      15.909  10.721  33.982  1.00  0.00     0.026 A 
HETATM   13  C18 UNK     1      15.134   9.901  33.162  1.00  0.00     0.036 A 
HETATM   14  C16 UNK     1      15.704   8.780  32.558  1.00  0.00     0.056 A 
HETATM   15 Cl1  UNK     1      13.475  10.273  32.896  1.00  0.00    -0.084 Cl
BRANCH  10  16
HETATM   16  O3  UNK     1      19.139   9.023  33.819  1.00  0.00    -0.354 OA
HETATM   17  C21 UNK     1      19.451   8.244  34.972  1.00  0.00     0.210 C 
ENDBRANCH  10  16
ENDBRANCH   7   9
ENDBRANCH   3   5
BRANCH   2  18
HETATM   18  C6  UNK     1      18.410   2.701  31.001  1.00  0.00     0.039 A 
HETATM   19  C5  UNK     1      18.914   1.466  31.661  1.00  0.00     0.197 A 
HETATM   20  C1  UNK     1      19.394   0.395  30.769  1.00  0.00     0.049 A 
HETATM   21  O2  UNK     1      18.932   1.333  32.879  1.00  0.00    -0.286 OA
HETATM   22  C2  UNK     1      19.354   0.592  29.388  1.00  0.00     0.089 A 
HETATM   23  C3  UNK     1      19.883  -0.804  31.293  1.00  0.00     0.025 A 
HETATM   24  O1  UNK     1      18.883   1.747  28.819  1.00  0.00    -0.321 OA
HETATM   25  C7  UNK     1      19.802  -0.409  28.525  1.00  0.00     0.039 A 
HETATM   26  C9  UNK     1      18.437   2.737  29.661  1.00  0.00     0.158 A 
HETATM   27  C8  UNK     1      20.292  -1.606  29.047  1.00  0.00     0.009 A 
HETATM   28  C4  UNK     1      20.332  -1.803  30.427  1.00  0.00    -0.061 A 
HETATM   29  C11 UNK     1      20.855  -3.087  30.980  1.00  0.00     0.048 C 
ENDBRANCH   2  18
TORSDOF 4
ENDMDL
MODEL 2
REMARK VINA RESULT:      -9.8      3.067      9.477
REMARK  4 active torsions:
REMARK  status: ('A' for Active; 'I' for Inactive)
REMARK    1  A    between atoms: C14_21  and  O3_4 
REMARK    2  A    between atoms: C12_19  and  N1_6 
REMARK       I    between atoms: C15_22  and  N1_6 
REMARK    3  A    between atoms: C10_17  and  C6_13 
REMARK    4  A    between atoms: C13_20  and  C15_22 
ROOT
HETATM    1  N2  UNK     1      19.237   5.637  29.849  1.00  0.00    -0.191 NA
HETATM    2  C10 UNK     1      17.948   4.652  32.939  1.00  0.00     0.045 C 
HETATM    3  C13 UNK     1      18.443   4.131  31.799  1.00  0.00     0.113 C 
HETATM    4  C20 UNK     1      18.880   4.965  30.725  1.00  0.00     0.105 C 
ENDROOT
BRANCH   3   5
HETATM    5  C15 UNK     1      18.504   2.620  31.706  1.00  0.00     0.266 C 
HETATM    6  O4  UNK     1      17.810   1.923  32.441  1.00  0.00    -0.267 OA
HETATM    7  N1  UNK     1      19.395   2.158  30.743  1.00  0.00    -0.320 N 
HETATM    8  H9  UNK     1      19.916   2.835  30.192  1.00  0.00     0.169 HD
BRANCH   7   9
HETATM    9  C12 UNK     1      19.683   0.810  30.411  1.00  0.00     0.070 A 
HETATM   10  C14 UNK     1      19.464   0.355  29.122  1.00  0.00     0.095 A 
HETATM   11  C17 UNK     1      19.752  -0.974  28.810  1.00  0.00     0.041 A 
HETATM   12  C19 UNK     1      20.256  -1.827  29.791  1.00  0.00     0.026 A 
HETATM   13  C18 UNK     1      20.472  -1.352  31.085  1.00  0.00     0.036 A 
HETATM   14  C16 UNK     1      20.183  -0.023  31.397  1.00  0.00     0.056 A 
HETATM   15 Cl1  UNK     1      21.093  -2.405  32.295  1.00  0.00    -0.084 Cl
BRANCH  10  16
HETATM   16  O3  UNK     1      18.973   1.172  28.148  1.00  0.00    -0.354 OA
HETATM   17  C21 UNK     1      17.611   1.579  28.269  1.00  0.00     0.210 C 
ENDBRANCH  10  16
ENDBRANCH   7   9
ENDBRANCH   3   5
BRANCH   2  18
HETATM   18  C6  UNK     1      17.792   6.048  33.249  1.00  0.00     0.039 A 
HETATM   19  C5  UNK     1      16.540   6.766  32.886  1.00  0.00     0.197 A 
HETATM   20  C1  UNK     1      16.477   8.195  33.245  1.00  0.00     0.049 A 
HETATM   21  O2  UNK     1      15.605   6.213  32.320  1.00  0.00    -0.286 OA
HETATM   22  C2  UNK     1      17.567   8.783  33.888  1.00  0.00     0.089 A 
HETATM   23  C3  UNK     1      15.343   8.956  32.948  1.00  0.00     0.025 A 
HETATM   24  O1  UNK     1      18.704   8.085  34.204  1.00  0.00    -0.321 OA
HETATM   25  C7  UNK     1      17.528  10.133  34.238  1.00  0.00     0.039 A 
HETATM   26  C9  UNK     1      18.749   6.754  33.866  1.00  0.00     0.158 A 
HETATM   27  C8  UNK     1      16.397  10.893  33.942  1.00  0.00     0.009 A 
HETATM   28  C4  UNK     1      15.307  10.306  33.299  1.00  0.00    -0.061 A 
HETATM   29  C11 UNK     1      14.099  11.124  32.986  1.00  0.00     0.048 C 
ENDBRANCH   2  18
TORSDOF 4
ENDMDL
MODEL 3
REMARK VINA RESULT:      -9.8      1.367      2.038
REMARK  4 active torsions:
REMARK  status: ('A' for Active; 'I' for Inactive)
REMARK    1  A    between atoms: C14_21  and  O3_4 
REMARK    2  A    between atoms: C12_19  and  N1_6 
REMARK       I    between atoms: C15_22  and  N1_6 
REMARK    3  A    between atoms: C10_17  and  C6_13 
REMARK    4  A    between atoms: C13_20  and  C15_22 
ROOT
HETATM    1  N2  UNK     1      20.683   5.804  31.038  1.00  0.00    -0.191 NA
HETATM    2  C10 UNK     1      17.910   3.967  32.095  1.00  0.00     0.045 C 
HETATM    3  C13 UNK     1      18.497   5.167  32.270  1.00  0.00     0.113 C 
HETATM    4  C20 UNK     1      19.703   5.515  31.588  1.00  0.00     0.105 C 
ENDROOT
BRANCH   3   5
HETATM    5  C15 UNK     1      17.823   6.126  33.229  1.00  0.00     0.266 C 
HETATM    6  O4  UNK     1      17.689   5.829  34.414  1.00  0.00    -0.267 OA
HETATM    7  N1  UNK     1      17.402   7.308  32.630  1.00  0.00    -0.320 N 
HETATM    8  H9  UNK     1      17.571   7.441  31.636  1.00  0.00     0.169 HD
BRANCH   7   9
HETATM    9  C12 UNK     1      16.743   8.402  33.248  1.00  0.00     0.070 A 
HETATM   10  C14 UNK     1      15.396   8.312  33.555  1.00  0.00     0.095 A 
HETATM   11  C17 UNK     1      14.762   9.395  34.163  1.00  0.00     0.041 A 
HETATM   12  C19 UNK     1      15.484  10.551  34.456  1.00  0.00     0.026 A 
HETATM   13  C18 UNK     1      16.842  10.625  34.140  1.00  0.00     0.036 A 
HETATM   14  C16 UNK     1      17.476   9.542  33.532  1.00  0.00     0.056 A 
HETATM   15 Cl1  UNK     1      17.732  12.052  34.502  1.00  0.00    -0.084 Cl
BRANCH  10  16
HETATM   16  O3  UNK     1      14.672   7.191  33.277  1.00  0.00    -0.354 OA
HETATM   17  C21 UNK     1      13.848   7.223  32.114  1.00  0.00     0.210 C 
ENDBRANCH  10  16
ENDBRANCH   7   9
ENDBRANCH   3   5
BRANCH   2  18
HETATM   18  C6  UNK     1      18.368   2.902  31.243  1.00  0.00     0.039 A 
HETATM   19  C5  UNK     1      18.865   1.627  31.828  1.00  0.00     0.197 A 
HETATM   20  C1  UNK     1      19.313   0.599  30.872  1.00  0.00     0.049 A 
HETATM   21  O2  UNK     1      18.904   1.430  33.036  1.00  0.00    -0.286 OA
HETATM   22  C2  UNK     1      19.251   0.868  29.505  1.00  0.00     0.089 A 
HETATM   23  C3  UNK     1      19.794  -0.633  31.323  1.00  0.00     0.025 A 
HETATM   24  O1  UNK     1      18.787   2.058  29.006  1.00  0.00    -0.321 OA
HETATM   25  C7  UNK     1      19.668  -0.091  28.582  1.00  0.00     0.039 A 
HETATM   26  C9  UNK     1      18.370   3.008  29.907  1.00  0.00     0.158 A 
HETATM   27  C8  UNK     1      20.150  -1.321  29.031  1.00  0.00     0.009 A 
HETATM   28  C4  UNK     1      20.212  -1.591  30.398  1.00  0.00    -0.061 A 
HETATM   29  C11 UNK     1      20.727  -2.910  30.873  1.00  0.00     0.048 C 
ENDBRANCH   2  18
TORSDOF 4
ENDMDL
MODEL 4
REMARK VINA RESULT:      -9.6      7.029     11.634
REMARK  4 active torsions:
REMARK  status: ('A' for Active; 'I' for Inactive)
REMARK    1  A    between atoms: C14_21  and  O3_4 
REMARK    2  A    between atoms: C12_19  and  N1_6 
REMARK       I    between atoms: C15_22  and  N1_6 
REMARK    3  A    between atoms: C10_17  and  C6_13 
REMARK    4  A    between atoms: C13_20  and  C15_22 
ROOT
HETATM    1  N2  UNK     1      21.264  -2.457  33.604  1.00  0.00    -0.191 NA
HETATM    2  C10 UNK     1      18.888  -1.131  35.789  1.00  0.00     0.045 C 
HETATM    3  C13 UNK     1      19.743  -2.167  35.678  1.00  0.00     0.113 C 
HETATM    4  C20 UNK     1      20.581  -2.323  34.532  1.00  0.00     0.105 C 
ENDROOT
BRANCH   3   5
HETATM    5  C15 UNK     1      19.766  -3.161  36.820  1.00  0.00     0.266 C 
HETATM    6  O4  UNK     1      19.745  -2.771  37.985  1.00  0.00    -0.267 OA
HETATM    7  N1  UNK     1      19.814  -4.487  36.403  1.00  0.00    -0.320 N 
HETATM    8  H9  UNK     1      19.826  -4.686  35.406  1.00  0.00     0.169 HD
BRANCH   7   9
HETATM    9  C12 UNK     1      19.846  -5.647  37.218  1.00  0.00     0.070 A 
HETATM   10  C14 UNK     1      18.796  -6.548  37.176  1.00  0.00     0.095 A 
HETATM   11  C17 UNK     1      18.842  -7.685  37.983  1.00  0.00     0.041 A 
HETATM   12  C19 UNK     1      19.938  -7.904  38.818  1.00  0.00     0.026 A 
HETATM   13  C18 UNK     1      20.988  -6.986  38.847  1.00  0.00     0.036 A 
HETATM   14  C16 UNK     1      20.942  -5.849  38.040  1.00  0.00     0.056 A 
HETATM   15 Cl1  UNK     1      22.339  -7.257  39.877  1.00  0.00    -0.084 Cl
BRANCH  10  16
HETATM   16  O3  UNK     1      17.717  -6.354  36.368  1.00  0.00    -0.354 OA
HETATM   17  C21 UNK     1      17.448  -7.359  35.393  1.00  0.00     0.210 C 
ENDBRANCH  10  16
ENDBRANCH   7   9
ENDBRANCH   3   5
BRANCH   2  18
HETATM   18  C6  UNK     1      18.691  -0.072  34.835  1.00  0.00     0.039 A 
HETATM   19  C5  UNK     1      18.698   1.350  35.273  1.00  0.00     0.197 A 
HETATM   20  C1  UNK     1      18.487   2.360  34.220  1.00  0.00     0.049 A 
HETATM   21  O2  UNK     1      18.870   1.677  36.441  1.00  0.00    -0.286 OA
HETATM   22  C2  UNK     1      18.294   1.941  32.904  1.00  0.00     0.089 A 
HETATM   23  C3  UNK     1      18.478   3.723  34.531  1.00  0.00     0.025 A 
HETATM   24  O1  UNK     1      18.294   0.618  32.542  1.00  0.00    -0.321 OA
HETATM   25  C7  UNK     1      18.094   2.880  31.892  1.00  0.00     0.039 A 
HETATM   26  C9  UNK     1      18.494  -0.314  33.532  1.00  0.00     0.158 A 
HETATM   27  C8  UNK     1      18.085   4.240  32.201  1.00  0.00     0.009 A 
HETATM   28  C4  UNK     1      18.277   4.660  33.517  1.00  0.00    -0.061 A 
HETATM   29  C11 UNK     1      18.268   6.117  33.841  1.00  0.00     0.048 C 
ENDBRANCH   2  18
TORSDOF 4
ENDMDL
MODEL 5
REMARK VINA RESULT:      -9.4      3.185      9.367
REMARK  4 active torsions:
REMARK  status: ('A' for Active; 'I' for Inactive)
REMARK    1  A    between atoms: C14_21  and  O3_4 
REMARK    2  A    between atoms: C12_19  and  N1_6 
REMARK       I    between atoms: C15_22  and  N1_6 
REMARK    3  A    between atoms: C10_17  and  C6_13 
REMARK    4  A    between atoms: C13_20  and  C15_22 
ROOT
HETATM    1  N2  UNK     1      19.580   6.008  29.622  1.00  0.00    -0.191 NA
HETATM    2  C10 UNK     1      17.813   5.044  32.473  1.00  0.00     0.045 C 
HETATM    3  C13 UNK     1      18.335   4.528  31.343  1.00  0.00     0.113 C 
HETATM    4  C20 UNK     1      19.021   5.348  30.396  1.00  0.00     0.105 C 
ENDROOT
BRANCH   3   5
HETATM    5  C15 UNK     1      18.153   3.041  31.121  1.00  0.00     0.266 C 
HETATM    6  O4  UNK     1      17.213   2.624  30.449  1.00  0.00    -0.267 OA
HETATM    7  N1  UNK     1      19.125   2.263  31.739  1.00  0.00    -0.320 N 
HETATM    8  H9  UNK     1      19.859   2.726  32.270  1.00  0.00     0.169 HD
BRANCH   7   9
HETATM    9  C12 UNK     1      19.237   0.849  31.724  1.00  0.00     0.070 A 
HETATM   10  C14 UNK     1      18.641   0.099  32.724  1.00  0.00     0.095 A 
HETATM   11  C17 UNK     1      18.760  -1.290  32.695  1.00  0.00     0.041 A 
HETATM   12  C19 UNK     1      19.470  -1.909  31.667  1.00  0.00     0.026 A 
HETATM   13  C18 UNK     1      20.064  -1.138  30.667  1.00  0.00     0.036 A 
HETATM   14  C16 UNK     1      19.945   0.252  30.695  1.00  0.00     0.056 A 
HETATM   15 Cl1  UNK     1      20.940  -1.901  29.398  1.00  0.00    -0.084 Cl
BRANCH  10  16
HETATM   16  O3  UNK     1      17.942   0.683  33.737  1.00  0.00    -0.354 OA
HETATM   17  C21 UNK     1      17.336  -0.185  34.691  1.00  0.00     0.210 C 
ENDBRANCH  10  16
ENDBRANCH   7   9
ENDBRANCH   3   5
BRANCH   2  18
HETATM   18  C6  UNK     1      17.859   6.420  32.891  1.00  0.00     0.039 A 
HETATM   19  C5  UNK     1      16.631   7.260  32.861  1.00  0.00     0.197 A 
HETATM   20  C1  UNK     1      16.782   8.657  33.308  1.00  0.00     0.049 A 
HETATM   21  O2  UNK     1      15.547   6.827  32.489  1.00  0.00    -0.286 OA
HETATM   22  C2  UNK     1      18.036   9.106  33.722  1.00  0.00     0.089 A 
HETATM   23  C3  UNK     1      15.687   9.525  33.319  1.00  0.00     0.025 A 
HETATM   24  O1  UNK     1      19.144   8.299  33.733  1.00  0.00    -0.321 OA
HETATM   25  C7  UNK     1      18.201  10.424  34.150  1.00  0.00     0.039 A 
HETATM   26  C9  UNK     1      18.990   6.999  33.316  1.00  0.00     0.158 A 
HETATM   27  C8  UNK     1      17.109  11.291  34.161  1.00  0.00     0.009 A 
HETATM   28  C4  UNK     1      15.855  10.843  33.747  1.00  0.00    -0.061 A 
HETATM   29  C11 UNK     1      14.689  11.775  33.763  1.00  0.00     0.048 C 
ENDBRANCH   2  18
TORSDOF 4
ENDMDL
MODEL 6
REMARK VINA RESULT:      -9.2     22.815     24.298
REMARK  4 active torsions:
REMARK  status: ('A' for Active; 'I' for Inactive)
REMARK    1  A    between atoms: C14_21  and  O3_4 
REMARK    2  A    between atoms: C12_19  and  N1_6 
REMARK       I    between atoms: C15_22  and  N1_6 
REMARK    3  A    between atoms: C10_17  and  C6_13 
REMARK    4  A    between atoms: C13_20  and  C15_22 
ROOT
HETATM    1  N2  UNK     1      11.813   6.485   5.975  1.00  0.00    -0.191 NA
HETATM    2  C10 UNK     1      11.514   5.860   9.396  1.00  0.00     0.045 C 
HETATM    3  C13 UNK     1      10.776   5.880   8.268  1.00  0.00     0.113 C 
HETATM    4  C20 UNK     1      11.352   6.214   7.005  1.00  0.00     0.105 C 
ENDROOT
BRANCH   3   5
HETATM    5  C15 UNK     1       9.307   5.539   8.405  1.00  0.00     0.266 C 
HETATM    6  O4  UNK     1       8.582   5.502   7.414  1.00  0.00    -0.267 OA
HETATM    7  N1  UNK     1       8.912   5.294   9.716  1.00  0.00    -0.320 N 
HETATM    8  H9  UNK     1       9.607   5.353  10.456  1.00  0.00     0.169 HD
BRANCH   7   9
HETATM    9  C12 UNK     1       7.615   4.952  10.177  1.00  0.00     0.070 A 
HETATM   10  C14 UNK     1       6.835   5.904  10.811  1.00  0.00     0.095 A 
HETATM   11  C17 UNK     1       5.561   5.553  11.258  1.00  0.00     0.041 A 
HETATM   12  C19 UNK     1       5.086   4.257  11.063  1.00  0.00     0.026 A 
HETATM   13  C18 UNK     1       5.885   3.310  10.421  1.00  0.00     0.036 A 
HETATM   14  C16 UNK     1       7.159   3.661   9.974  1.00  0.00     0.056 A 
HETATM   15 Cl1  UNK     1       5.298   1.710  10.182  1.00  0.00    -0.084 Cl
BRANCH  10  16
HETATM   16  O3  UNK     1       7.280   7.176  11.011  1.00  0.00    -0.354 OA
HETATM   17  C21 UNK     1       6.296   8.207  11.062  1.00  0.00     0.210 C 
ENDBRANCH  10  16
ENDBRANCH   7   9
ENDBRANCH   3   5
BRANCH   2  18
HETATM   18  C6  UNK     1      12.919   6.150   9.509  1.00  0.00     0.039 A 
HETATM   19  C5  UNK     1      13.394   7.557   9.606  1.00  0.00     0.197 A 
HETATM   20  C1  UNK     1      14.851   7.749   9.717  1.00  0.00     0.049 A 
HETATM   21  O2  UNK     1      12.627   8.512   9.597  1.00  0.00    -0.286 OA
HETATM   22  C2  UNK     1      15.686   6.632   9.722  1.00  0.00     0.089 A 
HETATM   23  C3  UNK     1      15.396   9.033   9.816  1.00  0.00     0.025 A 
HETATM   24  O1  UNK     1      15.208   5.351   9.629  1.00  0.00    -0.321 OA
HETATM   25  C7  UNK     1      17.068   6.791   9.828  1.00  0.00     0.039 A 
HETATM   26  C9  UNK     1      13.848   5.184   9.528  1.00  0.00     0.158 A 
HETATM   27  C8  UNK     1      17.613   8.071   9.926  1.00  0.00     0.009 A 
HETATM   28  C4  UNK     1      16.779   9.189   9.921  1.00  0.00    -0.061 A 
HETATM   29  C11 UNK     1      17.367  10.557  10.028  1.00  0.00     0.048 C 
ENDBRANCH   2  18
TORSDOF 4
ENDMDL
MODEL 7
REMARK VINA RESULT:      -9.0     15.440     20.312
REMARK  4 active torsions:
REMARK  status: ('A' for Active; 'I' for Inactive)
REMARK    1  A    between atoms: C14_21  and  O3_4 
REMARK    2  A    between atoms: C12_19  and  N1_6 
REMARK       I    between atoms: C15_22  and  N1_6 
REMARK    3  A    between atoms: C10_17  and  C6_13 
REMARK    4  A    between atoms: C13_20  and  C15_22 
ROOT
HETATM    1  N2  UNK     1      22.375  -3.068  15.443  1.00  0.00    -0.191 NA
HETATM    2  C10 UNK     1      19.031  -2.633  14.543  1.00  0.00     0.045 C 
HETATM    3  C13 UNK     1      20.028  -3.536  14.456  1.00  0.00     0.113 C 
HETATM    4  C20 UNK     1      21.322  -3.274  15.002  1.00  0.00     0.105 C 
ENDROOT
BRANCH   3   5
HETATM    5  C15 UNK     1      19.714  -4.836  13.745  1.00  0.00     0.266 C 
HETATM    6  O4  UNK     1      20.570  -5.392  13.062  1.00  0.00    -0.267 OA
HETATM    7  N1  UNK     1      18.415  -5.285  13.954  1.00  0.00    -0.320 N 
HETATM    8  H9  UNK     1      17.796  -4.736  14.545  1.00  0.00     0.169 HD
BRANCH   7   9
HETATM    9  C12 UNK     1      17.814  -6.460  13.433  1.00  0.00     0.070 A 
HETATM   10  C14 UNK     1      17.244  -7.383  14.293  1.00  0.00     0.095 A 
HETATM   11  C17 UNK     1      16.657  -8.533  13.766  1.00  0.00     0.041 A 
HETATM   12  C19 UNK     1      16.647  -8.742  12.388  1.00  0.00     0.026 A 
HETATM   13  C18 UNK     1      17.225  -7.801  11.535  1.00  0.00     0.036 A 
HETATM   14  C16 UNK     1      17.812  -6.651  12.062  1.00  0.00     0.056 A 
HETATM   15 Cl1  UNK     1      17.212  -8.060   9.834  1.00  0.00    -0.084 Cl
BRANCH  10  16
HETATM   16  O3  UNK     1      17.243  -7.197  15.643  1.00  0.00    -0.354 OA
HETATM   17  C21 UNK     1      16.037  -6.714  16.230  1.00  0.00     0.210 C 
ENDBRANCH  10  16
ENDBRANCH   7   9
ENDBRANCH   3   5
BRANCH   2  18
HETATM   18  C6  UNK     1      19.097  -1.337  15.165  1.00  0.00     0.039 A 
HETATM   19  C5  UNK     1      18.840  -1.186  16.623  1.00  0.00     0.197 A 
HETATM   20  C1  UNK     1      18.930   0.182  17.165  1.00  0.00     0.049 A 
HETATM   21  O2  UNK     1      18.570  -2.138  17.345  1.00  0.00    -0.286 OA
HETATM   22  C2  UNK     1      19.240   1.235  16.304  1.00  0.00     0.089 A 
HETATM   23  C3  UNK     1      18.709   0.428  18.523  1.00  0.00     0.025 A 
HETATM   24  O1  UNK     1      19.468   1.053  14.964  1.00  0.00    -0.321 OA
HETATM   25  C7  UNK     1      19.332   2.538  16.796  1.00  0.00     0.039 A 
HETATM   26  C9  UNK     1      19.383  -0.227  14.472  1.00  0.00     0.158 A 
HETATM   27  C8  UNK     1      19.110   2.784  18.151  1.00  0.00     0.009 A 
HETATM   28  C4  UNK     1      18.800   1.732  19.012  1.00  0.00    -0.061 A 
HETATM   29  C11 UNK     1      18.566   2.000  20.462  1.00  0.00     0.048 C 
ENDBRANCH   2  18
TORSDOF 4
ENDMDL
MODEL 8
REMARK VINA RESULT:      -8.9      3.158      9.935
REMARK  4 active torsions:
REMARK  status: ('A' for Active; 'I' for Inactive)
REMARK    1  A    between atoms: C14_21  and  O3_4 
REMARK    2  A    between atoms: C12_19  and  N1_6 
REMARK       I    between atoms: C15_22  and  N1_6 
REMARK    3  A    between atoms: C10_17  and  C6_13 
REMARK    4  A    between atoms: C13_20  and  C15_22 
ROOT
HETATM    1  N2  UNK     1      16.372   8.070  30.769  1.00  0.00    -0.191 NA
HETATM    2  C10 UNK     1      17.732   7.677  33.959  1.00  0.00     0.045 C 
HETATM    3  C13 UNK     1      17.704   7.076  32.754  1.00  0.00     0.113 C 
HETATM    4  C20 UNK     1      16.968   7.628  31.661  1.00  0.00     0.105 C 
ENDROOT
BRANCH   3   5
HETATM    5  C15 UNK     1      18.483   5.784  32.614  1.00  0.00     0.266 C 
HETATM    6  O4  UNK     1      19.692   5.761  32.829  1.00  0.00    -0.267 OA
HETATM    7  N1  UNK     1      17.699   4.701  32.232  1.00  0.00    -0.320 N 
HETATM    8  H9  UNK     1      16.703   4.845  32.084  1.00  0.00     0.169 HD
BRANCH   7   9
HETATM    9  C12 UNK     1      18.121   3.364  32.016  1.00  0.00     0.070 A 
HETATM   10  C14 UNK     1      18.272   2.506  33.093  1.00  0.00     0.095 A 
HETATM   11  C17 UNK     1      18.687   1.194  32.865  1.00  0.00     0.041 A 
HETATM   12  C19 UNK     1      18.944   0.760  31.565  1.00  0.00     0.026 A 
HETATM   13  C18 UNK     1      18.786   1.637  30.492  1.00  0.00     0.036 A 
HETATM   14  C16 UNK     1      18.371   2.949  30.720  1.00  0.00     0.056 A 
HETATM   15 Cl1  UNK     1      19.104   1.100  28.888  1.00  0.00    -0.084 Cl
BRANCH  10  16
HETATM   16  O3  UNK     1      18.025   2.911  34.370  1.00  0.00    -0.354 OA
HETATM   17  C21 UNK     1      18.597   2.132  35.418  1.00  0.00     0.210 C 
ENDBRANCH  10  16
ENDBRANCH   7   9
ENDBRANCH   3   5
BRANCH   2  18
HETATM   18  C6  UNK     1      17.070   8.901  34.325  1.00  0.00     0.039 A 
HETATM   19  C5  UNK     1      17.702  10.217  34.035  1.00  0.00     0.197 A 
HETATM   20  C1  UNK     1      16.946  11.412  34.449  1.00  0.00     0.049 A 
HETATM   21  O2  UNK     1      18.790  10.315  33.480  1.00  0.00    -0.286 OA
HETATM   22  C2  UNK     1      15.711  11.251  35.078  1.00  0.00     0.089 A 
HETATM   23  C3  UNK     1      17.454  12.694  34.218  1.00  0.00     0.025 A 
HETATM   24  O1  UNK     1      15.164  10.019  35.329  1.00  0.00    -0.321 OA
HETATM   25  C7  UNK     1      14.978  12.369  35.477  1.00  0.00     0.039 A 
HETATM   26  C9  UNK     1      15.878   8.913  34.936  1.00  0.00     0.158 A 
HETATM   27  C8  UNK     1      15.484  13.648  35.248  1.00  0.00     0.009 A 
HETATM   28  C4  UNK     1      16.719  13.810  34.620  1.00  0.00    -0.061 A 
HETATM   29  C11 UNK     1      17.255  15.181  34.375  1.00  0.00     0.048 C 
ENDBRANCH   2  18
TORSDOF 4
ENDMDL
MODEL 9
REMARK VINA RESULT:      -8.9      7.156     10.306
REMARK  4 active torsions:
REMARK  status: ('A' for Active; 'I' for Inactive)
REMARK    1  A    between atoms: C14_21  and  O3_4 
REMARK    2  A    between atoms: C12_19  and  N1_6 
REMARK       I    between atoms: C15_22  and  N1_6 
REMARK    3  A    between atoms: C10_17  and  C6_13 
REMARK    4  A    between atoms: C13_20  and  C15_22 
ROOT
HETATM    1  N2  UNK     1      18.623  -1.982  38.466  1.00  0.00    -0.191 NA
HETATM    2  C10 UNK     1      19.806  -3.701  35.668  1.00  0.00     0.045 C 
HETATM    3  C13 UNK     1      19.497  -2.454  36.075  1.00  0.00     0.113 C 
HETATM    4  C20 UNK     1      19.015  -2.198  37.395  1.00  0.00     0.105 C 
ENDROOT
BRANCH   3   5
HETATM    5  C15 UNK     1      19.678  -1.339  35.066  1.00  0.00     0.266 C 
HETATM    6  O4  UNK     1      20.141  -0.256  35.413  1.00  0.00    -0.267 OA
HETATM    7  N1  UNK     1      19.274  -1.682  33.780  1.00  0.00    -0.320 N 
HETATM    8  H9  UNK     1      18.906  -2.615  33.615  1.00  0.00     0.169 HD
BRANCH   7   9
HETATM    9  C12 UNK     1      19.313  -0.869  32.619  1.00  0.00     0.070 A 
HETATM   10  C14 UNK     1      18.611   0.324  32.588  1.00  0.00     0.095 A 
HETATM   11  C17 UNK     1      18.659   1.113  31.438  1.00  0.00     0.041 A 
HETATM   12  C19 UNK     1      19.408   0.698  30.338  1.00  0.00     0.026 A 
HETATM   13  C18 UNK     1      20.110  -0.507  30.387  1.00  0.00     0.036 A 
HETATM   14  C16 UNK     1      20.062  -1.296  31.536  1.00  0.00     0.056 A 
HETATM   15 Cl1  UNK     1      21.035  -1.019  29.029  1.00  0.00    -0.084 Cl
BRANCH  10  16
HETATM   16  O3  UNK     1      17.873   0.748  33.652  1.00  0.00    -0.354 OA
HETATM   17  C21 UNK     1      18.053   2.100  34.068  1.00  0.00     0.210 C 
ENDBRANCH  10  16
ENDBRANCH   7   9
ENDBRANCH   3   5
BRANCH   2  18
HETATM   18  C6  UNK     1      19.711  -4.907  36.446  1.00  0.00     0.039 A 
HETATM   19  C5  UNK     1      20.845  -5.341  37.307  1.00  0.00     0.197 A 
HETATM   20  C1  UNK     1      20.651  -6.591  38.064  1.00  0.00     0.049 A 
HETATM   21  O2  UNK     1      21.887  -4.703  37.393  1.00  0.00    -0.286 OA
HETATM   22  C2  UNK     1      19.448  -7.285  37.935  1.00  0.00     0.089 A 
HETATM   23  C3  UNK     1      21.656  -7.080  38.903  1.00  0.00     0.025 A 
HETATM   24  O1  UNK     1      18.427  -6.851  37.128  1.00  0.00    -0.321 OA
HETATM   25  C7  UNK     1      19.243  -8.469  38.643  1.00  0.00     0.039 A 
HETATM   26  C9  UNK     1      18.619  -5.684  36.429  1.00  0.00     0.158 A 
HETATM   27  C8  UNK     1      20.245  -8.959  39.479  1.00  0.00     0.009 A 
HETATM   28  C4  UNK     1      21.449  -8.266  39.609  1.00  0.00    -0.061 A 
HETATM   29  C11 UNK     1      22.518  -8.794  40.508  1.00  0.00     0.048 C 
ENDBRANCH   2  18
TORSDOF 4
ENDMDL
MODEL 10
REMARK VINA RESULT:      -8.9      1.924      3.009
REMARK  4 active torsions:
REMARK  status: ('A' for Active; 'I' for Inactive)
REMARK    1  A    between atoms: C14_21  and  O3_4 
REMARK    2  A    between atoms: C12_19  and  N1_6 
REMARK       I    between atoms: C15_22  and  N1_6 
REMARK    3  A    between atoms: C10_17  and  C6_13 
REMARK    4  A    between atoms: C13_20  and  C15_22 
ROOT
HETATM    1  N2  UNK     1      20.155   5.458  34.257  1.00  0.00    -0.191 NA
HETATM    2  C10 UNK     1      17.556   4.744  32.040  1.00  0.00     0.045 C 
HETATM    3  C13 UNK     1      18.080   5.769  32.741  1.00  0.00     0.113 C 
HETATM    4  C20 UNK     1      19.225   5.593  33.576  1.00  0.00     0.105 C 
ENDROOT
BRANCH   3   5
HETATM    5  C15 UNK     1      17.394   7.112  32.608  1.00  0.00     0.266 C 
HETATM    6  O4  UNK     1      17.268   7.640  31.505  1.00  0.00    -0.267 OA
HETATM    7  N1  UNK     1      16.956   7.636  33.819  1.00  0.00    -0.320 N 
HETATM    8  H9  UNK     1      17.117   7.102  34.670  1.00  0.00     0.169 HD
BRANCH   7   9
HETATM    9  C12 UNK     1      16.282   8.865  34.035  1.00  0.00     0.070 A 
HETATM   10  C14 UNK     1      14.899   8.891  34.104  1.00  0.00     0.095 A 
HETATM   11  C17 UNK     1      14.251  10.107  34.317  1.00  0.00     0.041 A 
HETATM   12  C19 UNK     1      14.994  11.279  34.459  1.00  0.00     0.026 A 
HETATM   13  C18 UNK     1      16.387  11.234  34.387  1.00  0.00     0.036 A 
HETATM   14  C16 UNK     1      17.035  10.018  34.174  1.00  0.00     0.056 A 
HETATM   15 Cl1  UNK     1      17.303  12.680  34.561  1.00  0.00    -0.084 Cl
BRANCH  10  16
HETATM   16  O3  UNK     1      14.154   7.758  33.969  1.00  0.00    -0.354 OA
HETATM   17  C21 UNK     1      13.697   7.435  32.658  1.00  0.00     0.210 C 
ENDBRANCH  10  16
ENDBRANCH   7   9
ENDBRANCH   3   5
BRANCH   2  18
HETATM   18  C6  UNK     1      18.034   3.387  32.013  1.00  0.00     0.039 A 
HETATM   19  C5  UNK     1      18.684   2.840  30.791  1.00  0.00     0.197 A 
HETATM   20  C1  UNK     1      19.138   1.439  30.864  1.00  0.00     0.049 A 
HETATM   21  O2  UNK     1      18.840   3.506  29.775  1.00  0.00    -0.286 OA
HETATM   22  C2  UNK     1      18.939   0.719  32.041  1.00  0.00     0.089 A 
HETATM   23  C3  UNK     1      19.762   0.834  29.769  1.00  0.00     0.025 A 
HETATM   24  O1  UNK     1      18.333   1.261  33.146  1.00  0.00    -0.321 OA
HETATM   25  C7  UNK     1      19.362  -0.607  32.132  1.00  0.00     0.039 A 
HETATM   26  C9  UNK     1      17.916   2.568  33.067  1.00  0.00     0.158 A 
HETATM   27  C8  UNK     1      19.984  -1.212  31.040  1.00  0.00     0.009 A 
HETATM   28  C4  UNK     1      20.184  -0.493  29.862  1.00  0.00    -0.061 A 
HETATM   29  C11 UNK     1      20.852  -1.144  28.697  1.00  0.00     0.048 C 
ENDBRANCH   2  18
TORSDOF 4
ENDMDL
