MODEL 1
REMARK VINA RESULT:      -9.1      0.000      0.000
REMARK  5 active torsions:
REMARK  status: ('A' for Active; 'I' for Inactive)
REMARK    1  A    between atoms: C18_24  and  O4_4 
REMARK    2  A    between atoms: C3_9  and  N1_6 
REMARK       I    between atoms: C7_13  and  N1_6 
REMARK    3  A    between atoms: C2_8  and  C7_13 
REMARK    4  A    between atoms: C12_18  and  C4_10 
REMARK    5  A    between atoms: C12_18  and  C18_24 
ROOT
HETATM    1  O2  UNK     1      17.587   3.204  32.844  1.00  0.00    -0.267 OA
HETATM    2  N1  UNK     1      18.765   4.696  31.453  1.00  0.00    -0.323 N 
HETATM    3  C7  UNK     1      18.292   3.459  31.868  1.00  0.00     0.262 C 
HETATM    4  H2  UNK     1      19.324   4.741  30.604  1.00  0.00     0.169 HD
ENDROOT
BRANCH   2   5
HETATM    5  C3  UNK     1      18.544   5.955  32.064  1.00  0.00     0.035 A 
HETATM    6  C8  UNK     1      19.435   6.408  33.022  1.00  0.00     0.030 A 
HETATM    7  C10 UNK     1      19.218   7.647  33.624  1.00  0.00     0.010 A 
HETATM    8  C4  UNK     1      18.111   8.414  33.259  1.00  0.00    -0.048 A 
HETATM    9  C11 UNK     1      17.222   7.942  32.294  1.00  0.00     0.010 A 
HETATM   10  C9  UNK     1      17.440   6.703  31.691  1.00  0.00     0.030 A 
BRANCH   8  11
HETATM   11  C12 UNK     1      17.878   9.740  33.903  1.00  0.00     0.148 C 
BRANCH  11  12
HETATM   12  C18 UNK     1      16.438   9.963  34.322  1.00  0.00     0.143 C 
HETATM   13  O5  UNK     1      15.676  10.776  33.818  1.00  0.00    -0.650 OA
BRANCH  12  14
HETATM   14  O4  UNK     1      16.076   9.143  35.343  1.00  0.00    -0.776 OA
HETATM   15  H13 UNK     1      16.182   9.578  36.216  1.00  0.00     0.167 HD
ENDBRANCH  12  14
ENDBRANCH  11  12
ENDBRANCH   8  11
ENDBRANCH   2   5
BRANCH   3  16
HETATM   16  C2  UNK     1      18.726   2.374  30.980  1.00  0.00     0.108 A 
HETATM   17  C14 UNK     1      18.695   2.505  29.506  1.00  0.00     0.304 A 
HETATM   18  O1  UNK     1      19.132   1.407  28.771  1.00  0.00    -0.274 OA
HETATM   19  O3  UNK     1      18.305   3.529  28.954  1.00  0.00    -0.259 OA
HETATM   20  C5  UNK     1      19.584   0.228  29.395  1.00  0.00     0.089 A 
HETATM   21  C1  UNK     1      19.605   0.124  30.782  1.00  0.00    -0.001 A 
HETATM   22  C15 UNK     1      20.003  -0.819  28.575  1.00  0.00     0.038 A 
HETATM   23  C13 UNK     1      20.057  -1.062  31.363  1.00  0.00     0.014 A 
HETATM   24  C6  UNK     1      19.153   1.255  31.578  1.00  0.00     0.037 A 
HETATM   25  C16 UNK     1      20.481  -2.121  30.554  1.00  0.00     0.001 A 
HETATM   26  C17 UNK     1      20.454  -1.999  29.163  1.00  0.00     0.003 A 
ENDBRANCH   3  16
TORSDOF 5
ENDMDL
MODEL 2
REMARK VINA RESULT:      -8.8      7.989     10.107
REMARK  5 active torsions:
REMARK  status: ('A' for Active; 'I' for Inactive)
REMARK    1  A    between atoms: C18_24  and  O4_4 
REMARK    2  A    between atoms: C3_9  and  N1_6 
REMARK       I    between atoms: C7_13  and  N1_6 
REMARK    3  A    between atoms: C2_8  and  C7_13 
REMARK    4  A    between atoms: C12_18  and  C4_10 
REMARK    5  A    between atoms: C12_18  and  C18_24 
ROOT
HETATM    1  O2  UNK     1      21.268  -3.832  37.162  1.00  0.00    -0.267 OA
HETATM    2  N1  UNK     1      18.969  -3.773  36.654  1.00  0.00    -0.323 N 
HETATM    3  C7  UNK     1      20.193  -4.376  36.913  1.00  0.00     0.262 C 
HETATM    4  H2  UNK     1      18.163  -4.371  36.487  1.00  0.00     0.169 HD
ENDROOT
BRANCH   2   5
HETATM    5  C3  UNK     1      18.679  -2.387  36.616  1.00  0.00     0.035 A 
HETATM    6  C8  UNK     1      18.135  -1.780  37.735  1.00  0.00     0.030 A 
HETATM    7  C10 UNK     1      17.849  -0.415  37.699  1.00  0.00     0.010 A 
HETATM    8  C4  UNK     1      18.111   0.321  36.544  1.00  0.00    -0.048 A 
HETATM    9  C11 UNK     1      18.657  -0.307  35.424  1.00  0.00     0.010 A 
HETATM   10  C9  UNK     1      18.944  -1.673  35.461  1.00  0.00     0.030 A 
BRANCH   8  11
HETATM   11  C12 UNK     1      17.805   1.780  36.504  1.00  0.00     0.148 C 
BRANCH  11  12
HETATM   12  C18 UNK     1      18.800   2.585  35.690  1.00  0.00     0.143 C 
HETATM   13  O5  UNK     1      18.589   3.050  34.579  1.00  0.00    -0.650 OA
BRANCH  12  14
HETATM   14  O4  UNK     1      19.981   2.736  36.344  1.00  0.00    -0.776 OA
HETATM   15  H13 UNK     1      20.427   1.875  36.496  1.00  0.00     0.167 HD
ENDBRANCH  12  14
ENDBRANCH  11  12
ENDBRANCH   8  11
ENDBRANCH   2   5
BRANCH   3  16
HETATM   16  C2  UNK     1      20.111  -5.840  36.870  1.00  0.00     0.108 A 
HETATM   17  C14 UNK     1      20.158  -6.592  35.595  1.00  0.00     0.304 A 
HETATM   18  O1  UNK     1      20.071  -7.978  35.682  1.00  0.00    -0.274 OA
HETATM   19  O3  UNK     1      20.270  -6.026  34.512  1.00  0.00    -0.259 OA
HETATM   20  C5  UNK     1      19.944  -8.638  36.920  1.00  0.00     0.089 A 
HETATM   21  C1  UNK     1      19.901  -7.913  38.107  1.00  0.00    -0.001 A 
HETATM   22  C15 UNK     1      19.865 -10.029  36.907  1.00  0.00     0.038 A 
HETATM   23  C13 UNK     1      19.773  -8.602  39.314  1.00  0.00     0.014 A 
HETATM   24  C6  UNK     1      19.990  -6.462  38.048  1.00  0.00     0.037 A 
HETATM   25  C16 UNK     1      19.692  -9.999  39.317  1.00  0.00     0.001 A 
HETATM   26  C17 UNK     1      19.738 -10.710  38.116  1.00  0.00     0.003 A 
ENDBRANCH   3  16
TORSDOF 5
ENDMDL
MODEL 3
REMARK VINA RESULT:      -8.8      8.386     13.189
REMARK  5 active torsions:
REMARK  status: ('A' for Active; 'I' for Inactive)
REMARK    1  A    between atoms: C18_24  and  O4_4 
REMARK    2  A    between atoms: C3_9  and  N1_6 
REMARK       I    between atoms: C7_13  and  N1_6 
REMARK    3  A    between atoms: C2_8  and  C7_13 
REMARK    4  A    between atoms: C12_18  and  C4_10 
REMARK    5  A    between atoms: C12_18  and  C18_24 
ROOT
HETATM    1  O2  UNK     1      20.617  -4.085  37.761  1.00  0.00    -0.267 OA
HETATM    2  N1  UNK     1      19.298  -4.973  36.023  1.00  0.00    -0.323 N 
HETATM    3  C7  UNK     1      19.871  -3.967  36.790  1.00  0.00     0.262 C 
HETATM    4  H2  UNK     1      18.717  -4.706  35.232  1.00  0.00     0.169 HD
ENDROOT
BRANCH   2   5
HETATM    5  C3  UNK     1      19.444  -6.373  36.186  1.00  0.00     0.035 A 
HETATM    6  C8  UNK     1      18.495  -7.070  36.914  1.00  0.00     0.030 A 
HETATM    7  C10 UNK     1      18.638  -8.449  37.075  1.00  0.00     0.010 A 
HETATM    8  C4  UNK     1      19.727  -9.108  36.505  1.00  0.00    -0.048 A 
HETATM    9  C11 UNK     1      20.673  -8.389  35.775  1.00  0.00     0.010 A 
HETATM   10  C9  UNK     1      20.531  -7.010  35.613  1.00  0.00     0.030 A 
BRANCH   8  11
HETATM   11  C12 UNK     1      19.880 -10.582  36.676  1.00  0.00     0.148 C 
BRANCH  11  12
HETATM   12  C18 UNK     1      19.960 -11.017  38.127  1.00  0.00     0.143 C 
HETATM   13  O5  UNK     1      19.276 -11.892  38.639  1.00  0.00    -0.650 OA
BRANCH  12  14
HETATM   14  O4  UNK     1      20.897 -10.312  38.814  1.00  0.00    -0.776 OA
HETATM   15  H13 UNK     1      20.494  -9.590  39.344  1.00  0.00     0.167 HD
ENDBRANCH  12  14
ENDBRANCH  11  12
ENDBRANCH   8  11
ENDBRANCH   2   5
BRANCH   3  16
HETATM   16  C2  UNK     1      19.494  -2.629  36.320  1.00  0.00     0.108 A 
HETATM   17  C14 UNK     1      19.905  -2.118  34.992  1.00  0.00     0.304 A 
HETATM   18  O1  UNK     1      19.486  -0.834  34.659  1.00  0.00    -0.274 OA
HETATM   19  O3  UNK     1      20.580  -2.790  34.219  1.00  0.00    -0.259 OA
HETATM   20  C5  UNK     1      18.708  -0.055  35.538  1.00  0.00     0.089 A 
HETATM   21  C1  UNK     1      18.333  -0.553  36.782  1.00  0.00    -0.001 A 
HETATM   22  C15 UNK     1      18.336   1.220  35.116  1.00  0.00     0.038 A 
HETATM   23  C13 UNK     1      17.564   0.250  37.626  1.00  0.00     0.014 A 
HETATM   24  C6  UNK     1      18.756  -1.893  37.159  1.00  0.00     0.037 A 
HETATM   25  C16 UNK     1      17.182   1.532  37.217  1.00  0.00     0.001 A 
HETATM   26  C17 UNK     1      17.567   2.015  35.965  1.00  0.00     0.003 A 
ENDBRANCH   3  16
TORSDOF 5
ENDMDL
MODEL 4
REMARK VINA RESULT:      -8.7      1.398      2.386
REMARK  5 active torsions:
REMARK  status: ('A' for Active; 'I' for Inactive)
REMARK    1  A    between atoms: C18_24  and  O4_4 
REMARK    2  A    between atoms: C3_9  and  N1_6 
REMARK       I    between atoms: C7_13  and  N1_6 
REMARK    3  A    between atoms: C2_8  and  C7_13 
REMARK    4  A    between atoms: C12_18  and  C4_10 
REMARK    5  A    between atoms: C12_18  and  C18_24 
ROOT
HETATM    1  O2  UNK     1      18.484   4.623  30.381  1.00  0.00    -0.267 OA
HETATM    2  N1  UNK     1      17.823   4.528  32.640  1.00  0.00    -0.323 N 
HETATM    3  C7  UNK     1      18.306   4.023  31.440  1.00  0.00     0.262 C 
HETATM    4  H2  UNK     1      17.756   3.899  33.437  1.00  0.00     0.169 HD
ENDROOT
BRANCH   2   5
HETATM    5  C3  UNK     1      17.422   5.857  32.919  1.00  0.00     0.035 A 
HETATM    6  C8  UNK     1      16.256   6.344  32.354  1.00  0.00     0.030 A 
HETATM    7  C10 UNK     1      15.861   7.653  32.629  1.00  0.00     0.010 A 
HETATM    8  C4  UNK     1      16.638   8.455  33.463  1.00  0.00    -0.048 A 
HETATM    9  C11 UNK     1      17.811   7.950  34.024  1.00  0.00     0.010 A 
HETATM   10  C9  UNK     1      18.207   6.639  33.749  1.00  0.00     0.030 A 
BRANCH   8  11
HETATM   11  C12 UNK     1      16.216   9.856  33.757  1.00  0.00     0.148 C 
BRANCH  11  12
HETATM   12  C18 UNK     1      14.918   9.945  34.536  1.00  0.00     0.143 C 
HETATM   13  O5  UNK     1      13.826  10.217  34.056  1.00  0.00    -0.650 OA
BRANCH  12  14
HETATM   14  O4  UNK     1      15.103   9.685  35.857  1.00  0.00    -0.776 OA
HETATM   15  H13 UNK     1      14.698   8.830  36.120  1.00  0.00     0.167 HD
ENDBRANCH  12  14
ENDBRANCH  11  12
ENDBRANCH   8  11
ENDBRANCH   2   5
BRANCH   3  16
HETATM   16  C2  UNK     1      18.622   2.593  31.528  1.00  0.00     0.108 A 
HETATM   17  C14 UNK     1      18.353   1.802  32.750  1.00  0.00     0.304 A 
HETATM   18  O1  UNK     1      18.696   0.454  32.712  1.00  0.00    -0.274 OA
HETATM   19  O3  UNK     1      17.851   2.305  33.750  1.00  0.00    -0.259 OA
HETATM   20  C5  UNK     1      19.272  -0.134  31.568  1.00  0.00     0.089 A 
HETATM   21  C1  UNK     1      19.518   0.627  30.430  1.00  0.00    -0.001 A 
HETATM   22  C15 UNK     1      19.582  -1.491  31.625  1.00  0.00     0.038 A 
HETATM   23  C13 UNK     1      20.091   0.009  29.317  1.00  0.00     0.014 A 
HETATM   24  C6  UNK     1      19.170   2.040  30.439  1.00  0.00     0.037 A 
HETATM   25  C16 UNK     1      20.408  -1.353  29.358  1.00  0.00     0.001 A 
HETATM   26  C17 UNK     1      20.153  -2.101  30.509  1.00  0.00     0.003 A 
ENDBRANCH   3  16
TORSDOF 5
ENDMDL
MODEL 5
REMARK VINA RESULT:      -8.6      2.352      9.770
REMARK  5 active torsions:
REMARK  status: ('A' for Active; 'I' for Inactive)
REMARK    1  A    between atoms: C18_24  and  O4_4 
REMARK    2  A    between atoms: C3_9  and  N1_6 
REMARK       I    between atoms: C7_13  and  N1_6 
REMARK    3  A    between atoms: C2_8  and  C7_13 
REMARK    4  A    between atoms: C12_18  and  C4_10 
REMARK    5  A    between atoms: C12_18  and  C18_24 
ROOT
HETATM    1  O2  UNK     1      19.675   7.912  33.845  1.00  0.00    -0.267 OA
HETATM    2  N1  UNK     1      17.754   7.346  32.606  1.00  0.00    -0.323 N 
HETATM    3  C7  UNK     1      18.522   8.115  33.470  1.00  0.00     0.262 C 
HETATM    4  H2  UNK     1      16.816   7.666  32.377  1.00  0.00     0.169 HD
ENDROOT
BRANCH   2   5
HETATM    5  C3  UNK     1      18.128   6.144  31.955  1.00  0.00     0.035 A 
HETATM    6  C8  UNK     1      17.753   4.932  32.508  1.00  0.00     0.030 A 
HETATM    7  C10 UNK     1      18.120   3.748  31.867  1.00  0.00     0.010 A 
HETATM    8  C4  UNK     1      18.857   3.796  30.685  1.00  0.00    -0.048 A 
HETATM    9  C11 UNK     1      19.228   5.026  30.142  1.00  0.00     0.010 A 
HETATM   10  C9  UNK     1      18.860   6.210  30.782  1.00  0.00     0.030 A 
BRANCH   8  11
HETATM   11  C12 UNK     1      19.251   2.530  29.999  1.00  0.00     0.148 C 
BRANCH  11  12
HETATM   12  C18 UNK     1      18.191   2.000  29.054  1.00  0.00     0.143 C 
HETATM   13  O5  UNK     1      17.809   2.562  28.037  1.00  0.00    -0.650 OA
BRANCH  12  14
HETATM   14  O4  UNK     1      17.698   0.803  29.468  1.00  0.00    -0.776 OA
HETATM   15  H13 UNK     1      17.960   0.073  28.865  1.00  0.00     0.167 HD
ENDBRANCH  12  14
ENDBRANCH  11  12
ENDBRANCH   8  11
ENDBRANCH   2   5
BRANCH   3  16
HETATM   16  C2  UNK     1      17.798   9.298  33.950  1.00  0.00     0.108 A 
HETATM   17  C14 UNK     1      16.476   9.197  34.608  1.00  0.00     0.304 A 
HETATM   18  O1  UNK     1      15.889  10.389  35.020  1.00  0.00    -0.274 OA
HETATM   19  O3  UNK     1      15.921   8.117  34.786  1.00  0.00    -0.259 OA
HETATM   20  C5  UNK     1      16.519  11.634  34.823  1.00  0.00     0.089 A 
HETATM   21  C1  UNK     1      17.761  11.708  34.202  1.00  0.00    -0.001 A 
HETATM   22  C15 UNK     1      15.853  12.774  35.270  1.00  0.00     0.038 A 
HETATM   23  C13 UNK     1      18.353  12.960  34.023  1.00  0.00     0.014 A 
HETATM   24  C6  UNK     1      18.400  10.478  33.760  1.00  0.00     0.037 A 
HETATM   25  C16 UNK     1      17.697  14.113  34.466  1.00  0.00     0.001 A 
HETATM   26  C17 UNK     1      16.451  14.020  35.089  1.00  0.00     0.003 A 
ENDBRANCH   3  16
TORSDOF 5
ENDMDL
MODEL 6
REMARK VINA RESULT:      -8.6      2.457      9.785
REMARK  5 active torsions:
REMARK  status: ('A' for Active; 'I' for Inactive)
REMARK    1  A    between atoms: C18_24  and  O4_4 
REMARK    2  A    between atoms: C3_9  and  N1_6 
REMARK       I    between atoms: C7_13  and  N1_6 
REMARK    3  A    between atoms: C2_8  and  C7_13 
REMARK    4  A    between atoms: C12_18  and  C4_10 
REMARK    5  A    between atoms: C12_18  and  C18_24 
ROOT
HETATM    1  O2  UNK     1      16.131   8.323  30.919  1.00  0.00    -0.267 OA
HETATM    2  N1  UNK     1      17.400   7.253  32.590  1.00  0.00    -0.323 N 
HETATM    3  C7  UNK     1      16.598   8.252  32.055  1.00  0.00     0.262 C 
HETATM    4  H2  UNK     1      17.688   7.333  33.562  1.00  0.00     0.169 HD
ENDROOT
BRANCH   2   5
HETATM    5  C3  UNK     1      17.865   6.080  31.945  1.00  0.00     0.035 A 
HETATM    6  C8  UNK     1      18.563   6.195  30.755  1.00  0.00     0.030 A 
HETATM    7  C10 UNK     1      19.021   5.040  30.120  1.00  0.00     0.010 A 
HETATM    8  C4  UNK     1      18.773   3.789  30.684  1.00  0.00    -0.048 A 
HETATM    9  C11 UNK     1      18.067   3.692  31.883  1.00  0.00     0.010 A 
HETATM   10  C9  UNK     1      17.609   4.847  32.519  1.00  0.00     0.030 A 
BRANCH   8  11
HETATM   11  C12 UNK     1      19.262   2.554  30.005  1.00  0.00     0.148 C 
BRANCH  11  12
HETATM   12  C18 UNK     1      18.270   1.975  29.015  1.00  0.00     0.143 C 
HETATM   13  O5  UNK     1      17.824   2.562  28.039  1.00  0.00    -0.650 OA
BRANCH  12  14
HETATM   14  O4  UNK     1      17.920   0.702  29.337  1.00  0.00    -0.776 OA
HETATM   15  H13 UNK     1      18.521   0.318  30.012  1.00  0.00     0.167 HD
ENDBRANCH  12  14
ENDBRANCH  11  12
ENDBRANCH   8  11
ENDBRANCH   2   5
BRANCH   3  16
HETATM   16  C2  UNK     1      16.318   9.317  33.025  1.00  0.00     0.108 A 
HETATM   17  C14 UNK     1      17.371   9.877  33.903  1.00  0.00     0.304 A 
HETATM   18  O1  UNK     1      16.982  10.883  34.782  1.00  0.00    -0.274 OA
HETATM   19  O3  UNK     1      18.530   9.478  33.860  1.00  0.00    -0.259 OA
HETATM   20  C5  UNK     1      15.654  11.349  34.837  1.00  0.00     0.089 A 
HETATM   21  C1  UNK     1      14.679  10.809  34.005  1.00  0.00    -0.001 A 
HETATM   22  C15 UNK     1      15.361  12.360  35.751  1.00  0.00     0.038 A 
HETATM   23  C13 UNK     1      13.373  11.295  34.091  1.00  0.00     0.014 A 
HETATM   24  C6  UNK     1      15.054   9.755  33.074  1.00  0.00     0.037 A 
HETATM   25  C16 UNK     1      13.063  12.310  35.002  1.00  0.00     0.001 A 
HETATM   26  C17 UNK     1      14.055  12.841  35.829  1.00  0.00     0.003 A 
ENDBRANCH   3  16
TORSDOF 5
ENDMDL
MODEL 7
REMARK VINA RESULT:      -8.5     14.892     16.749
REMARK  5 active torsions:
REMARK  status: ('A' for Active; 'I' for Inactive)
REMARK    1  A    between atoms: C18_24  and  O4_4 
REMARK    2  A    between atoms: C3_9  and  N1_6 
REMARK       I    between atoms: C7_13  and  N1_6 
REMARK    3  A    between atoms: C2_8  and  C7_13 
REMARK    4  A    between atoms: C12_18  and  C4_10 
REMARK    5  A    between atoms: C12_18  and  C18_24 
ROOT
HETATM    1  O2  UNK     1      26.124  -9.184  38.946  1.00  0.00    -0.267 OA
HETATM    2  N1  UNK     1      24.705  -7.328  38.642  1.00  0.00    -0.323 N 
HETATM    3  C7  UNK     1      25.922  -7.981  38.783  1.00  0.00     0.262 C 
HETATM    4  H2  UNK     1      24.711  -6.322  38.492  1.00  0.00     0.169 HD
ENDROOT
BRANCH   2   5
HETATM    5  C3  UNK     1      23.410  -7.902  38.653  1.00  0.00     0.035 A 
HETATM    6  C8  UNK     1      22.688  -7.918  39.834  1.00  0.00     0.030 A 
HETATM    7  C10 UNK     1      21.413  -8.483  39.846  1.00  0.00     0.010 A 
HETATM    8  C4  UNK     1      20.880  -9.024  38.676  1.00  0.00    -0.048 A 
HETATM    9  C11 UNK     1      21.622  -9.001  37.495  1.00  0.00     0.010 A 
HETATM   10  C9  UNK     1      22.897  -8.435  37.483  1.00  0.00     0.030 A 
BRANCH   8  11
HETATM   11  C12 UNK     1      19.516  -9.629  38.688  1.00  0.00     0.148 C 
BRANCH  11  12
HETATM   12  C18 UNK     1      19.470 -11.027  38.102  1.00  0.00     0.143 C 
HETATM   13  O5  UNK     1      19.452 -11.290  36.908  1.00  0.00    -0.650 OA
BRANCH  12  14
HETATM   14  O4  UNK     1      19.450 -11.980  39.071  1.00  0.00    -0.776 OA
HETATM   15  H13 UNK     1      19.922 -11.687  39.880  1.00  0.00     0.167 HD
ENDBRANCH  12  14
ENDBRANCH  11  12
ENDBRANCH   8  11
ENDBRANCH   2   5
BRANCH   3  16
HETATM   16  C2  UNK     1      27.059  -7.055  38.718  1.00  0.00     0.108 A 
HETATM   17  C14 UNK     1      26.881  -5.587  38.780  1.00  0.00     0.304 A 
HETATM   18  O1  UNK     1      28.035  -4.813  38.708  1.00  0.00    -0.274 OA
HETATM   19  O3  UNK     1      25.772  -5.072  38.890  1.00  0.00    -0.259 OA
HETATM   20  C5  UNK     1      29.312  -5.394  38.584  1.00  0.00     0.089 A 
HETATM   21  C1  UNK     1      29.458  -6.776  38.527  1.00  0.00    -0.001 A 
HETATM   22  C15 UNK     1      30.409  -4.536  38.520  1.00  0.00     0.038 A 
HETATM   23  C13 UNK     1      30.740  -7.314  38.401  1.00  0.00     0.014 A 
HETATM   24  C6  UNK     1      28.270  -7.612  38.599  1.00  0.00     0.037 A 
HETATM   25  C16 UNK     1      31.851  -6.467  38.336  1.00  0.00     0.001 A 
HETATM   26  C17 UNK     1      31.686  -5.082  38.396  1.00  0.00     0.003 A 
ENDBRANCH   3  16
TORSDOF 5
ENDMDL
MODEL 8
REMARK VINA RESULT:      -8.4      7.184     11.432
REMARK  5 active torsions:
REMARK  status: ('A' for Active; 'I' for Inactive)
REMARK    1  A    between atoms: C18_24  and  O4_4 
REMARK    2  A    between atoms: C3_9  and  N1_6 
REMARK       I    between atoms: C7_13  and  N1_6 
REMARK    3  A    between atoms: C2_8  and  C7_13 
REMARK    4  A    between atoms: C12_18  and  C4_10 
REMARK    5  A    between atoms: C12_18  and  C18_24 
ROOT
HETATM    1  O2  UNK     1      19.248  -1.855  36.766  1.00  0.00    -0.267 OA
HETATM    2  N1  UNK     1      19.657  -3.809  35.516  1.00  0.00    -0.323 N 
HETATM    3  C7  UNK     1      19.412  -2.456  35.705  1.00  0.00     0.262 C 
HETATM    4  H2  UNK     1      19.793  -4.148  34.567  1.00  0.00     0.169 HD
ENDROOT
BRANCH   2   5
HETATM    5  C3  UNK     1      19.774  -4.813  36.509  1.00  0.00     0.035 A 
HETATM    6  C8  UNK     1      20.833  -4.761  37.400  1.00  0.00     0.030 A 
HETATM    7  C10 UNK     1      20.948  -5.749  38.379  1.00  0.00     0.010 A 
HETATM    8  C4  UNK     1      20.005  -6.773  38.450  1.00  0.00    -0.048 A 
HETATM    9  C11 UNK     1      18.945  -6.811  37.543  1.00  0.00     0.010 A 
HETATM   10  C9  UNK     1      18.829  -5.822  36.565  1.00  0.00     0.030 A 
BRANCH   8  11
HETATM   11  C12 UNK     1      20.128  -7.830  39.496  1.00  0.00     0.148 C 
BRANCH  11  12
HETATM   12  C18 UNK     1      21.128  -8.915  39.144  1.00  0.00     0.143 C 
HETATM   13  O5  UNK     1      20.952  -9.790  38.308  1.00  0.00    -0.650 OA
BRANCH  12  14
HETATM   14  O4  UNK     1      22.268  -8.807  39.875  1.00  0.00    -0.776 OA
HETATM   15  H13 UNK     1      22.196  -9.276  40.734  1.00  0.00     0.167 HD
ENDBRANCH  12  14
ENDBRANCH  11  12
ENDBRANCH   8  11
ENDBRANCH   2   5
BRANCH   3  16
HETATM   16  C2  UNK     1      19.359  -1.720  34.436  1.00  0.00     0.108 A 
HETATM   17  C14 UNK     1      18.660  -0.421  34.310  1.00  0.00     0.304 A 
HETATM   18  O1  UNK     1      18.679   0.180  33.055  1.00  0.00    -0.274 OA
HETATM   19  O3  UNK     1      18.091   0.104  35.261  1.00  0.00    -0.259 OA
HETATM   20  C5  UNK     1      19.331  -0.414  31.957  1.00  0.00     0.089 A 
HETATM   21  C1  UNK     1      19.982  -1.635  32.096  1.00  0.00    -0.001 A 
HETATM   22  C15 UNK     1      19.297   0.265  30.740  1.00  0.00     0.038 A 
HETATM   23  C13 UNK     1      20.616  -2.193  30.984  1.00  0.00     0.014 A 
HETATM   24  C6  UNK     1      19.980  -2.289  33.396  1.00  0.00     0.037 A 
HETATM   25  C16 UNK     1      20.590  -1.524  29.756  1.00  0.00     0.001 A 
HETATM   26  C17 UNK     1      19.932  -0.298  29.634  1.00  0.00     0.003 A 
ENDBRANCH   3  16
TORSDOF 5
ENDMDL
MODEL 9
REMARK VINA RESULT:      -8.3      7.716      9.971
REMARK  5 active torsions:
REMARK  status: ('A' for Active; 'I' for Inactive)
REMARK    1  A    between atoms: C18_24  and  O4_4 
REMARK    2  A    between atoms: C3_9  and  N1_6 
REMARK       I    between atoms: C7_13  and  N1_6 
REMARK    3  A    between atoms: C2_8  and  C7_13 
REMARK    4  A    between atoms: C12_18  and  C4_10 
REMARK    5  A    between atoms: C12_18  and  C18_24 
ROOT
HETATM    1  O2  UNK     1      20.360  -4.149  35.072  1.00  0.00    -0.267 OA
HETATM    2  N1  UNK     1      18.741  -3.814  36.749  1.00  0.00    -0.323 N 
HETATM    3  C7  UNK     1      19.607  -4.554  35.955  1.00  0.00     0.262 C 
HETATM    4  H2  UNK     1      18.197  -4.302  37.457  1.00  0.00     0.169 HD
ENDROOT
BRANCH   2   5
HETATM    5  C3  UNK     1      18.527  -2.414  36.721  1.00  0.00     0.035 A 
HETATM    6  C8  UNK     1      18.150  -1.765  37.884  1.00  0.00     0.030 A 
HETATM    7  C10 UNK     1      17.940  -0.386  37.857  1.00  0.00     0.010 A 
HETATM    8  C4  UNK     1      18.108   0.322  36.668  1.00  0.00    -0.048 A 
HETATM    9  C11 UNK     1      18.487  -0.348  35.504  1.00  0.00     0.010 A 
HETATM   10  C9  UNK     1      18.699  -1.728  35.531  1.00  0.00     0.030 A 
BRANCH   8  11
HETATM   11  C12 UNK     1      17.883   1.796  36.638  1.00  0.00     0.148 C 
BRANCH  11  12
HETATM   12  C18 UNK     1      18.855   2.539  35.742  1.00  0.00     0.143 C 
HETATM   13  O5  UNK     1      18.616   2.917  34.604  1.00  0.00    -0.650 OA
BRANCH  12  14
HETATM   14  O4  UNK     1      20.051   2.743  36.355  1.00  0.00    -0.776 OA
HETATM   15  H13 UNK     1      20.803   2.612  35.738  1.00  0.00     0.167 HD
ENDBRANCH  12  14
ENDBRANCH  11  12
ENDBRANCH   8  11
ENDBRANCH   2   5
BRANCH   3  16
HETATM   16  C2  UNK     1      19.561  -5.987  36.272  1.00  0.00     0.108 A 
HETATM   17  C14 UNK     1      18.305  -6.664  36.666  1.00  0.00     0.304 A 
HETATM   18  O1  UNK     1      18.388  -8.026  36.942  1.00  0.00    -0.274 OA
HETATM   19  O3  UNK     1      17.240  -6.061  36.746  1.00  0.00    -0.259 OA
HETATM   20  C5  UNK     1      19.606  -8.729  36.851  1.00  0.00     0.089 A 
HETATM   21  C1  UNK     1      20.775  -8.073  36.480  1.00  0.00    -0.001 A 
HETATM   22  C15 UNK     1      19.590 -10.091  37.146  1.00  0.00     0.038 A 
HETATM   23  C13 UNK     1      21.962  -8.804  36.403  1.00  0.00     0.014 A 
HETATM   24  C6  UNK     1      20.720  -6.649  36.185  1.00  0.00     0.037 A 
HETATM   25  C16 UNK     1      21.963 -10.171  36.696  1.00  0.00     0.001 A 
HETATM   26  C17 UNK     1      20.779 -10.813  37.066  1.00  0.00     0.003 A 
ENDBRANCH   3  16
TORSDOF 5
ENDMDL
MODEL 10
REMARK VINA RESULT:      -8.2     14.537     19.858
REMARK  5 active torsions:
REMARK  status: ('A' for Active; 'I' for Inactive)
REMARK    1  A    between atoms: C18_24  and  O4_4 
REMARK    2  A    between atoms: C3_9  and  N1_6 
REMARK       I    between atoms: C7_13  and  N1_6 
REMARK    3  A    between atoms: C2_8  and  C7_13 
REMARK    4  A    between atoms: C12_18  and  C4_10 
REMARK    5  A    between atoms: C12_18  and  C18_24 
ROOT
HETATM    1  O2  UNK     1      17.775  -3.221  15.810  1.00  0.00    -0.267 OA
HETATM    2  N1  UNK     1      19.967  -3.063  14.965  1.00  0.00    -0.323 N 
HETATM    3  C7  UNK     1      18.818  -2.605  15.594  1.00  0.00     0.262 C 
HETATM    4  H2  UNK     1      20.759  -2.429  14.884  1.00  0.00     0.169 HD
ENDROOT
BRANCH   2   5
HETATM    5  C3  UNK     1      20.202  -4.351  14.425  1.00  0.00     0.035 A 
HETATM    6  C8  UNK     1      20.730  -5.339  15.239  1.00  0.00     0.030 A 
HETATM    7  C10 UNK     1      20.961  -6.608  14.708  1.00  0.00     0.010 A 
HETATM    8  C4  UNK     1      20.662  -6.869  13.371  1.00  0.00    -0.048 A 
HETATM    9  C11 UNK     1      20.133  -5.862  12.564  1.00  0.00     0.010 A 
HETATM   10  C9  UNK     1      19.900  -4.592  13.095  1.00  0.00     0.030 A 
BRANCH   8  11
HETATM   11  C12 UNK     1      20.910  -8.226  12.802  1.00  0.00     0.148 C 
BRANCH  11  12
HETATM   12  C18 UNK     1      22.377  -8.609  12.769  1.00  0.00     0.143 C 
HETATM   13  O5  UNK     1      22.925  -9.365  13.559  1.00  0.00    -0.650 OA
BRANCH  12  14
HETATM   14  O4  UNK     1      23.033  -8.008  11.742  1.00  0.00    -0.776 OA
HETATM   15  H13 UNK     1      23.709  -7.373  12.062  1.00  0.00     0.167 HD
ENDBRANCH  12  14
ENDBRANCH  11  12
ENDBRANCH   8  11
ENDBRANCH   2   5
BRANCH   3  16
HETATM   16  C2  UNK     1      18.941  -1.208  16.027  1.00  0.00     0.108 A 
HETATM   17  C14 UNK     1      19.249  -0.116  15.076  1.00  0.00     0.304 A 
HETATM   18  O1  UNK     1      19.341   1.168  15.606  1.00  0.00    -0.274 OA
HETATM   19  O3  UNK     1      19.415  -0.326  13.879  1.00  0.00    -0.259 OA
HETATM   20  C5  UNK     1      19.150   1.419  16.979  1.00  0.00     0.089 A 
HETATM   21  C1  UNK     1      18.863   0.379  17.856  1.00  0.00    -0.001 A 
HETATM   22  C15 UNK     1      19.262   2.738  17.417  1.00  0.00     0.038 A 
HETATM   23  C13 UNK     1      18.682   0.668  19.210  1.00  0.00     0.014 A 
HETATM   24  C6  UNK     1      18.760  -0.975  17.332  1.00  0.00     0.037 A 
HETATM   25  C16 UNK     1      18.791   1.986  19.665  1.00  0.00     0.001 A 
HETATM   26  C17 UNK     1      19.080   3.018  18.770  1.00  0.00     0.003 A 
ENDBRANCH   3  16
TORSDOF 5
ENDMDL
