MODEL 1
REMARK VINA RESULT:      -8.8      0.000      0.000
REMARK  5 active torsions:
REMARK  status: ('A' for Active; 'I' for Inactive)
REMARK    1  A    between atoms: C6_13  and  O1_2 
REMARK    2  A    between atoms: C8_15  and  O1_2 
REMARK       I    between atoms: C11_18  and  N1_7 
REMARK    3  A    between atoms: C4_11  and  N1_7 
REMARK    4  A    between atoms: C2_9  and  C6_13 
REMARK    5  A    between atoms: C11_18  and  C12_19 
ROOT
HETATM    1  S1  UNK     1      20.270  -1.663  12.208  1.00  0.00    -0.075 SA
HETATM    2  C1  UNK     1      19.861  -4.196  12.328  1.00  0.00     0.006 A 
HETATM    3  C2  UNK     1      19.677  -3.703  13.651  1.00  0.00     0.085 A 
HETATM    4  C3  UNK     1      20.188  -3.193  11.442  1.00  0.00    -0.007 A 
HETATM    5  C4  UNK     1      19.871  -2.360  13.705  1.00  0.00     0.094 A 
HETATM    6  C5  UNK     1      19.740  -5.564  11.885  1.00  0.00    -0.024 A 
HETATM    7  C7  UNK     1      20.462  -3.273   9.988  1.00  0.00     0.057 C 
HETATM    8  C9  UNK     1      18.510  -6.041  11.444  1.00  0.00     0.012 A 
HETATM    9  C10 UNK     1      20.855  -6.398  11.904  1.00  0.00     0.012 A 
HETATM   10  C16 UNK     1      18.392  -7.365  11.017  1.00  0.00     0.001 A 
HETATM   11  C17 UNK     1      20.737  -7.720  11.477  1.00  0.00     0.001 A 
HETATM   12  C20 UNK     1      19.507  -8.204  11.033  1.00  0.00     0.000 A 
ENDROOT
BRANCH   5  13
HETATM   13  N1  UNK     1      19.793  -1.474  14.784  1.00  0.00    -0.316 N 
HETATM   14  C11 UNK     1      18.722  -1.339  15.656  1.00  0.00     0.262 C 
HETATM   15  O4  UNK     1      17.655  -1.950  15.662  1.00  0.00    -0.267 OA
HETATM   16  H1  UNK     1      20.609  -0.878  14.895  1.00  0.00     0.169 HD
BRANCH  14  17
HETATM   17  C12 UNK     1      18.973  -0.312  16.676  1.00  0.00     0.108 A 
HETATM   18  C14 UNK     1      18.941  -0.724  17.948  1.00  0.00     0.037 A 
HETATM   19  C13 UNK     1      19.178   0.220  19.030  1.00  0.00    -0.001 A 
HETATM   20  C15 UNK     1      19.435   1.551  18.717  1.00  0.00     0.089 A 
HETATM   21  C22 UNK     1      19.154  -0.165  20.372  1.00  0.00     0.014 A 
HETATM   22  O2  UNK     1      19.467   1.978  17.375  1.00  0.00    -0.274 OA
HETATM   23  C23 UNK     1      19.670   2.505  19.705  1.00  0.00     0.038 A 
HETATM   24  C21 UNK     1      19.246   1.099  16.319  1.00  0.00     0.304 A 
HETATM   25  O5  UNK     1      19.275   1.480  15.153  1.00  0.00    -0.259 OA
HETATM   26  C25 UNK     1      19.644   2.114  21.043  1.00  0.00     0.003 A 
HETATM   27  C24 UNK     1      19.388   0.782  21.375  1.00  0.00     0.001 A 
ENDBRANCH  14  17
ENDBRANCH   5  13
BRANCH   3  28
HETATM   28  C6  UNK     1      19.330  -4.498  14.805  1.00  0.00     0.297 C 
HETATM   29  O3  UNK     1      20.091  -4.697  15.762  1.00  0.00    -0.259 OA
BRANCH  28  30
HETATM   30  O1  UNK     1      18.059  -5.030  14.754  1.00  0.00    -0.313 OA
BRANCH  30  31
HETATM   31  C8  UNK     1      17.828  -6.223  15.509  1.00  0.00     0.124 C 
HETATM   32  C18 UNK     1      16.855  -5.922  16.639  1.00  0.00     0.040 C 
HETATM   33  C19 UNK     1      17.298  -7.308  14.582  1.00  0.00     0.040 C 
ENDBRANCH  30  31
ENDBRANCH  28  30
ENDBRANCH   3  28
TORSDOF 5
ENDMDL
MODEL 2
REMARK VINA RESULT:      -8.7     24.260     25.291
REMARK  5 active torsions:
REMARK  status: ('A' for Active; 'I' for Inactive)
REMARK    1  A    between atoms: C6_13  and  O1_2 
REMARK    2  A    between atoms: C8_15  and  O1_2 
REMARK       I    between atoms: C11_18  and  N1_7 
REMARK    3  A    between atoms: C4_11  and  N1_7 
REMARK    4  A    between atoms: C2_9  and  C6_13 
REMARK    5  A    between atoms: C11_18  and  C12_19 
ROOT
HETATM    1  S1  UNK     1      28.145  -9.469  36.090  1.00  0.00    -0.075 SA
HETATM    2  C1  UNK     1      30.252  -8.055  36.490  1.00  0.00     0.006 A 
HETATM    3  C2  UNK     1      29.181  -7.353  37.113  1.00  0.00     0.085 A 
HETATM    4  C3  UNK     1      29.828  -9.222  35.894  1.00  0.00    -0.007 A 
HETATM    5  C4  UNK     1      28.006  -8.018  36.962  1.00  0.00     0.094 A 
HETATM    6  C5  UNK     1      31.638  -7.659  36.440  1.00  0.00    -0.024 A 
HETATM    7  C7  UNK     1      30.610 -10.236  35.146  1.00  0.00     0.057 C 
HETATM    8  C9  UNK     1      32.509  -8.068  37.445  1.00  0.00     0.012 A 
HETATM    9  C10 UNK     1      32.095  -6.869  35.388  1.00  0.00     0.012 A 
HETATM   10  C16 UNK     1      33.850  -7.684  37.398  1.00  0.00     0.001 A 
HETATM   11  C17 UNK     1      33.435  -6.486  35.342  1.00  0.00     0.001 A 
HETATM   12  C20 UNK     1      34.313  -6.894  36.345  1.00  0.00     0.000 A 
ENDROOT
BRANCH   5  13
HETATM   13  N1  UNK     1      26.719  -7.700  37.408  1.00  0.00    -0.316 N 
HETATM   14  C11 UNK     1      26.164  -8.059  38.628  1.00  0.00     0.262 C 
HETATM   15  O4  UNK     1      26.671  -8.708  39.541  1.00  0.00    -0.267 OA
HETATM   16  H1  UNK     1      26.164  -7.172  36.739  1.00  0.00     0.169 HD
BRANCH  14  17
HETATM   17  C12 UNK     1      24.790  -7.560  38.771  1.00  0.00     0.108 A 
HETATM   18  C14 UNK     1      23.833  -8.489  38.882  1.00  0.00     0.037 A 
HETATM   19  C13 UNK     1      22.441  -8.093  39.028  1.00  0.00    -0.001 A 
HETATM   20  C15 UNK     1      22.125  -6.738  39.050  1.00  0.00     0.089 A 
HETATM   21  C22 UNK     1      21.410  -9.028  39.147  1.00  0.00     0.014 A 
HETATM   22  O2  UNK     1      23.137  -5.766  38.932  1.00  0.00    -0.274 OA
HETATM   23  C23 UNK     1      20.812  -6.293  39.186  1.00  0.00     0.038 A 
HETATM   24  C21 UNK     1      24.478  -6.113  38.792  1.00  0.00     0.304 A 
HETATM   25  O5  UNK     1      25.352  -5.259  38.690  1.00  0.00    -0.259 OA
HETATM   26  C25 UNK     1      19.789  -7.231  39.304  1.00  0.00     0.003 A 
HETATM   27  C24 UNK     1      20.087  -8.596  39.285  1.00  0.00     0.001 A 
ENDBRANCH  14  17
ENDBRANCH   5  13
BRANCH   3  28
HETATM   28  C6  UNK     1      29.295  -6.100  37.820  1.00  0.00     0.297 C 
HETATM   29  O3  UNK     1      28.930  -5.933  38.993  1.00  0.00    -0.259 OA
BRANCH  28  30
HETATM   30  O1  UNK     1      29.851  -5.086  37.072  1.00  0.00    -0.313 OA
BRANCH  30  31
HETATM   31  C8  UNK     1      30.640  -4.121  37.777  1.00  0.00     0.124 C 
HETATM   32  C18 UNK     1      31.764  -4.835  38.513  1.00  0.00     0.040 C 
HETATM   33  C19 UNK     1      31.173  -3.093  36.791  1.00  0.00     0.040 C 
ENDBRANCH  30  31
ENDBRANCH  28  30
ENDBRANCH   3  28
TORSDOF 5
ENDMDL
MODEL 3
REMARK VINA RESULT:      -8.5     21.336     24.728
REMARK  5 active torsions:
REMARK  status: ('A' for Active; 'I' for Inactive)
REMARK    1  A    between atoms: C6_13  and  O1_2 
REMARK    2  A    between atoms: C8_15  and  O1_2 
REMARK       I    between atoms: C11_18  and  N1_7 
REMARK    3  A    between atoms: C4_11  and  N1_7 
REMARK    4  A    between atoms: C2_9  and  C6_13 
REMARK    5  A    between atoms: C11_18  and  C12_19 
ROOT
HETATM    1  S1  UNK     1      30.109  -6.169  38.330  1.00  0.00    -0.075 SA
HETATM    2  C1  UNK     1      31.899  -6.474  36.513  1.00  0.00     0.006 A 
HETATM    3  C2  UNK     1      30.754  -7.193  36.065  1.00  0.00     0.085 A 
HETATM    4  C3  UNK     1      31.686  -5.870  37.733  1.00  0.00    -0.007 A 
HETATM    5  C4  UNK     1      29.735  -7.099  36.958  1.00  0.00     0.094 A 
HETATM    6  C5  UNK     1      33.165  -6.347  35.835  1.00  0.00    -0.024 A 
HETATM    7  C7  UNK     1      32.605  -5.038  38.545  1.00  0.00     0.057 C 
HETATM    8  C9  UNK     1      33.372  -5.295  34.948  1.00  0.00     0.012 A 
HETATM    9  C10 UNK     1      34.173  -7.278  36.072  1.00  0.00     0.012 A 
HETATM   10  C16 UNK     1      34.597  -5.172  34.291  1.00  0.00     0.001 A 
HETATM   11  C17 UNK     1      35.398  -7.155  35.415  1.00  0.00     0.001 A 
HETATM   12  C20 UNK     1      35.610  -6.102  34.526  1.00  0.00     0.000 A 
ENDROOT
BRANCH   5  13
HETATM   13  N1  UNK     1      28.446  -7.638  36.924  1.00  0.00    -0.316 N 
HETATM   14  C11 UNK     1      28.016  -8.775  37.594  1.00  0.00     0.262 C 
HETATM   15  O4  UNK     1      28.659  -9.520  38.332  1.00  0.00    -0.267 OA
HETATM   16  H1  UNK     1      27.797  -7.132  36.328  1.00  0.00     0.169 HD
BRANCH  14  17
HETATM   17  C12 UNK     1      26.599  -9.059  37.336  1.00  0.00     0.108 A 
HETATM   18  C14 UNK     1      26.331 -10.220  36.726  1.00  0.00     0.037 A 
HETATM   19  C13 UNK     1      24.956 -10.590  36.427  1.00  0.00    -0.001 A 
HETATM   20  C15 UNK     1      23.931  -9.719  36.786  1.00  0.00     0.089 A 
HETATM   21  C22 UNK     1      24.629 -11.790  35.792  1.00  0.00     0.014 A 
HETATM   22  O2  UNK     1      24.220  -8.500  37.428  1.00  0.00    -0.274 OA
HETATM   23  C23 UNK     1      22.594 -10.014  36.528  1.00  0.00     0.038 A 
HETATM   24  C21 UNK     1      25.525  -8.118  37.727  1.00  0.00     0.304 A 
HETATM   25  O5  UNK     1      25.768  -7.053  38.286  1.00  0.00    -0.259 OA
HETATM   26  C25 UNK     1      22.276 -11.213  35.894  1.00  0.00     0.003 A 
HETATM   27  C24 UNK     1      23.291 -12.100  35.527  1.00  0.00     0.001 A 
ENDBRANCH  14  17
ENDBRANCH   5  13
BRANCH   3  28
HETATM   28  C6  UNK     1      30.656  -7.932  34.829  1.00  0.00     0.297 C 
HETATM   29  O3  UNK     1      31.322  -8.946  34.576  1.00  0.00    -0.259 OA
BRANCH  28  30
HETATM   30  O1  UNK     1      29.744  -7.410  33.937  1.00  0.00    -0.313 OA
BRANCH  30  31
HETATM   31  C8  UNK     1      30.133  -6.223  33.238  1.00  0.00     0.124 C 
HETATM   32  C18 UNK     1      31.208  -6.570  32.219  1.00  0.00     0.040 C 
HETATM   33  C19 UNK     1      28.908  -5.605  32.580  1.00  0.00     0.040 C 
ENDBRANCH  30  31
ENDBRANCH  28  30
ENDBRANCH   3  28
TORSDOF 5
ENDMDL
MODEL 4
REMARK VINA RESULT:      -8.5     17.619     22.363
REMARK  5 active torsions:
REMARK  status: ('A' for Active; 'I' for Inactive)
REMARK    1  A    between atoms: C6_13  and  O1_2 
REMARK    2  A    between atoms: C8_15  and  O1_2 
REMARK       I    between atoms: C11_18  and  N1_7 
REMARK    3  A    between atoms: C4_11  and  N1_7 
REMARK    4  A    between atoms: C2_9  and  C6_13 
REMARK    5  A    between atoms: C11_18  and  C12_19 
ROOT
HETATM    1  S1  UNK     1      19.902   8.514  34.192  1.00  0.00    -0.075 SA
HETATM    2  C1  UNK     1      18.919   6.883  32.469  1.00  0.00     0.006 A 
HETATM    3  C2  UNK     1      17.916   7.867  32.698  1.00  0.00     0.085 A 
HETATM    4  C3  UNK     1      20.052   7.114  33.218  1.00  0.00    -0.007 A 
HETATM    5  C4  UNK     1      18.333   8.790  33.602  1.00  0.00     0.094 A 
HETATM    6  C5  UNK     1      18.838   5.750  31.579  1.00  0.00    -0.024 A 
HETATM    7  C7  UNK     1      21.315   6.340  33.280  1.00  0.00     0.057 C 
HETATM    8  C9  UNK     1      19.254   5.878  30.257  1.00  0.00     0.012 A 
HETATM    9  C10 UNK     1      18.344   4.535  32.049  1.00  0.00     0.012 A 
HETATM   10  C16 UNK     1      19.175   4.783  29.396  1.00  0.00     0.001 A 
HETATM   11  C17 UNK     1      18.266   3.441  31.188  1.00  0.00     0.001 A 
HETATM   12  C20 UNK     1      18.682   3.564  29.863  1.00  0.00     0.000 A 
ENDROOT
BRANCH   5  13
HETATM   13  N1  UNK     1      17.682   9.916  34.115  1.00  0.00    -0.316 N 
HETATM   14  C11 UNK     1      18.046  11.239  33.903  1.00  0.00     0.262 C 
HETATM   15  O4  UNK     1      18.984  11.680  33.242  1.00  0.00    -0.267 OA
HETATM   16  H1  UNK     1      16.885   9.704  34.709  1.00  0.00     0.169 HD
BRANCH  14  17
HETATM   17  C12 UNK     1      17.144  12.172  34.592  1.00  0.00     0.108 A 
HETATM   18  C14 UNK     1      15.997  11.656  35.047  1.00  0.00     0.037 A 
HETATM   19  C13 UNK     1      15.038  12.501  35.742  1.00  0.00    -0.001 A 
HETATM   20  C15 UNK     1      15.336  13.848  35.923  1.00  0.00     0.089 A 
HETATM   21  C22 UNK     1      13.828  12.006  36.233  1.00  0.00     0.014 A 
HETATM   22  O2  UNK     1      16.546  14.385  35.441  1.00  0.00    -0.274 OA
HETATM   23  C23 UNK     1      14.461  14.712  36.579  1.00  0.00     0.038 A 
HETATM   24  C21 UNK     1      17.483  13.601  34.773  1.00  0.00     0.304 A 
HETATM   25  O5  UNK     1      18.534  14.077  34.357  1.00  0.00    -0.259 OA
HETATM   26  C25 UNK     1      13.256  14.210  37.067  1.00  0.00     0.003 A 
HETATM   27  C24 UNK     1      12.940  12.861  36.895  1.00  0.00     0.001 A 
ENDBRANCH  14  17
ENDBRANCH   5  13
BRANCH   3  28
HETATM   28  C6  UNK     1      16.618   7.907  32.069  1.00  0.00     0.297 C 
HETATM   29  O3  UNK     1      16.419   8.329  30.921  1.00  0.00    -0.259 OA
BRANCH  28  30
HETATM   30  O1  UNK     1      15.597   7.429  32.863  1.00  0.00    -0.313 OA
BRANCH  30  31
HETATM   31  C8  UNK     1      14.395   8.205  32.905  1.00  0.00     0.124 C 
HETATM   32  C18 UNK     1      13.209   7.309  32.579  1.00  0.00     0.040 C 
HETATM   33  C19 UNK     1      14.259   8.845  34.278  1.00  0.00     0.040 C 
ENDBRANCH  30  31
ENDBRANCH  28  30
ENDBRANCH   3  28
TORSDOF 5
ENDMDL
MODEL 5
REMARK VINA RESULT:      -8.4     22.930     25.043
REMARK  5 active torsions:
REMARK  status: ('A' for Active; 'I' for Inactive)
REMARK    1  A    between atoms: C6_13  and  O1_2 
REMARK    2  A    between atoms: C8_15  and  O1_2 
REMARK       I    between atoms: C11_18  and  N1_7 
REMARK    3  A    between atoms: C4_11  and  N1_7 
REMARK    4  A    between atoms: C2_9  and  C6_13 
REMARK    5  A    between atoms: C11_18  and  C12_19 
ROOT
HETATM    1  S1  UNK     1      29.561  -9.409  34.719  1.00  0.00    -0.075 SA
HETATM    2  C1  UNK     1      31.167  -7.820  35.940  1.00  0.00     0.006 A 
HETATM    3  C2  UNK     1      29.886  -7.611  36.525  1.00  0.00     0.085 A 
HETATM    4  C3  UNK     1      31.134  -8.771  34.945  1.00  0.00    -0.007 A 
HETATM    5  C4  UNK     1      28.949  -8.408  35.949  1.00  0.00     0.094 A 
HETATM    6  C5  UNK     1      32.400  -7.156  36.289  1.00  0.00    -0.024 A 
HETATM    7  C7  UNK     1      32.234  -9.281  34.092  1.00  0.00     0.057 C 
HETATM    8  C9  UNK     1      33.223  -7.699  37.272  1.00  0.00     0.012 A 
HETATM    9  C10 UNK     1      32.758  -5.977  35.641  1.00  0.00     0.012 A 
HETATM   10  C16 UNK     1      34.415  -7.057  37.610  1.00  0.00     0.001 A 
HETATM   11  C17 UNK     1      33.949  -5.335  35.980  1.00  0.00     0.001 A 
HETATM   12  C20 UNK     1      34.778  -5.875  36.963  1.00  0.00     0.000 A 
ENDROOT
BRANCH   5  13
HETATM   13  N1  UNK     1      27.581  -8.534  36.208  1.00  0.00    -0.316 N 
HETATM   14  C11 UNK     1      27.005  -9.296  37.214  1.00  0.00     0.262 C 
HETATM   15  O4  UNK     1      27.559  -9.994  38.061  1.00  0.00    -0.267 OA
HETATM   16  H1  UNK     1      26.985  -8.020  35.564  1.00  0.00     0.169 HD
BRANCH  14  17
HETATM   17  C12 UNK     1      25.539  -9.203  37.201  1.00  0.00     0.108 A 
HETATM   18  C14 UNK     1      24.895 -10.134  36.488  1.00  0.00     0.037 A 
HETATM   19  C13 UNK     1      23.442 -10.125  36.414  1.00  0.00    -0.001 A 
HETATM   20  C15 UNK     1      22.740  -9.134  37.093  1.00  0.00     0.089 A 
HETATM   21  C22 UNK     1      22.728 -11.077  35.683  1.00  0.00     0.014 A 
HETATM   22  O2  UNK     1      23.424  -8.157  37.841  1.00  0.00    -0.274 OA
HETATM   23  C23 UNK     1      21.348  -9.069  37.062  1.00  0.00     0.038 A 
HETATM   24  C21 UNK     1      24.813  -8.140  37.932  1.00  0.00     0.304 A 
HETATM   25  O5  UNK     1      25.401  -7.284  38.585  1.00  0.00    -0.259 OA
HETATM   26  C25 UNK     1      20.643 -10.022  36.330  1.00  0.00     0.003 A 
HETATM   27  C24 UNK     1      21.331 -11.024  35.642  1.00  0.00     0.001 A 
ENDBRANCH  14  17
ENDBRANCH   5  13
BRANCH   3  28
HETATM   28  C6  UNK     1      29.587  -6.684  37.589  1.00  0.00     0.297 C 
HETATM   29  O3  UNK     1      29.310  -7.027  38.747  1.00  0.00    -0.259 OA
BRANCH  28  30
HETATM   30  O1  UNK     1      29.636  -5.360  37.207  1.00  0.00    -0.313 OA
BRANCH  30  31
HETATM   31  C8  UNK     1      30.414  -4.480  38.024  1.00  0.00     0.124 C 
HETATM   32  C18 UNK     1      30.951  -3.343  37.167  1.00  0.00     0.040 C 
HETATM   33  C19 UNK     1      29.554  -3.967  39.169  1.00  0.00     0.040 C 
ENDBRANCH  30  31
ENDBRANCH  28  30
ENDBRANCH   3  28
TORSDOF 5
ENDMDL
MODEL 6
REMARK VINA RESULT:      -8.4     17.622     22.170
REMARK  5 active torsions:
REMARK  status: ('A' for Active; 'I' for Inactive)
REMARK    1  A    between atoms: C6_13  and  O1_2 
REMARK    2  A    between atoms: C8_15  and  O1_2 
REMARK       I    between atoms: C11_18  and  N1_7 
REMARK    3  A    between atoms: C4_11  and  N1_7 
REMARK    4  A    between atoms: C2_9  and  C6_13 
REMARK    5  A    between atoms: C11_18  and  C12_19 
ROOT
HETATM    1  S1  UNK     1      17.268  -1.953  37.573  1.00  0.00    -0.075 SA
HETATM    2  C1  UNK     1      18.237  -0.210  35.954  1.00  0.00     0.006 A 
HETATM    3  C2  UNK     1      18.882  -1.441  35.642  1.00  0.00     0.085 A 
HETATM    4  C3  UNK     1      17.334  -0.346  36.986  1.00  0.00    -0.007 A 
HETATM    5  C4  UNK     1      18.441  -2.442  36.446  1.00  0.00     0.094 A 
HETATM    6  C5  UNK     1      18.446   1.067  35.317  1.00  0.00    -0.024 A 
HETATM    7  C7  UNK     1      16.462   0.675  37.615  1.00  0.00     0.057 C 
HETATM    8  C9  UNK     1      17.675   1.424  34.215  1.00  0.00     0.012 A 
HETATM    9  C10 UNK     1      19.419   1.934  35.808  1.00  0.00     0.012 A 
HETATM   10  C16 UNK     1      17.878   2.659  33.598  1.00  0.00     0.001 A 
HETATM   11  C17 UNK     1      19.622   3.168  35.191  1.00  0.00     0.001 A 
HETATM   12  C20 UNK     1      18.852   3.531  34.087  1.00  0.00     0.000 A 
ENDROOT
BRANCH   5  13
HETATM   13  N1  UNK     1      18.796  -3.794  36.489  1.00  0.00    -0.316 N 
HETATM   14  C11 UNK     1      19.950  -4.321  37.052  1.00  0.00     0.262 C 
HETATM   15  O4  UNK     1      20.869  -3.728  37.613  1.00  0.00    -0.267 OA
HETATM   16  H1  UNK     1      18.129  -4.415  36.038  1.00  0.00     0.169 HD
BRANCH  14  17
HETATM   17  C12 UNK     1      20.005  -5.782  36.921  1.00  0.00     0.108 A 
HETATM   18  C14 UNK     1      19.848  -6.483  38.049  1.00  0.00     0.037 A 
HETATM   19  C13 UNK     1      19.888  -7.937  38.021  1.00  0.00    -0.001 A 
HETATM   20  C15 UNK     1      20.092  -8.581  36.804  1.00  0.00     0.089 A 
HETATM   21  C22 UNK     1      19.728  -8.709  39.174  1.00  0.00     0.014 A 
HETATM   22  O2  UNK     1      20.257  -7.837  35.620  1.00  0.00    -0.274 OA
HETATM   23  C23 UNK     1      20.141  -9.970  36.708  1.00  0.00     0.038 A 
HETATM   24  C21 UNK     1      20.224  -6.445  35.615  1.00  0.00     0.304 A 
HETATM   25  O5  UNK     1      20.369  -5.806  34.579  1.00  0.00    -0.259 OA
HETATM   26  C25 UNK     1      19.981 -10.734  37.863  1.00  0.00     0.003 A 
HETATM   27  C24 UNK     1      19.775 -10.105  39.093  1.00  0.00     0.001 A 
ENDBRANCH  14  17
ENDBRANCH   5  13
BRANCH   3  28
HETATM   28  C6  UNK     1      19.877  -1.632  34.614  1.00  0.00     0.297 C 
HETATM   29  O3  UNK     1      21.092  -1.731  34.838  1.00  0.00    -0.259 OA
BRANCH  28  30
HETATM   30  O1  UNK     1      19.357  -1.696  33.340  1.00  0.00    -0.313 OA
BRANCH  30  31
HETATM   31  C8  UNK     1      20.189  -1.218  32.278  1.00  0.00     0.124 C 
HETATM   32  C18 UNK     1      20.640  -2.396  31.425  1.00  0.00     0.040 C 
HETATM   33  C19 UNK     1      19.420  -0.191  31.462  1.00  0.00     0.040 C 
ENDBRANCH  30  31
ENDBRANCH  28  30
ENDBRANCH   3  28
TORSDOF 5
ENDMDL
MODEL 7
REMARK VINA RESULT:      -8.3     13.666     17.318
REMARK  5 active torsions:
REMARK  status: ('A' for Active; 'I' for Inactive)
REMARK    1  A    between atoms: C6_13  and  O1_2 
REMARK    2  A    between atoms: C8_15  and  O1_2 
REMARK       I    between atoms: C11_18  and  N1_7 
REMARK    3  A    between atoms: C4_11  and  N1_7 
REMARK    4  A    between atoms: C2_9  and  C6_13 
REMARK    5  A    between atoms: C11_18  and  C12_19 
ROOT
HETATM    1  S1  UNK     1      19.876  11.730  10.249  1.00  0.00    -0.075 SA
HETATM    2  C1  UNK     1      20.001  13.324   8.239  1.00  0.00     0.006 A 
HETATM    3  C2  UNK     1      19.034  12.335   7.899  1.00  0.00     0.085 A 
HETATM    4  C3  UNK     1      20.539  13.114   9.490  1.00  0.00    -0.007 A 
HETATM    5  C4  UNK     1      18.886  11.430   8.901  1.00  0.00     0.094 A 
HETATM    6  C5  UNK     1      20.425  14.440   7.429  1.00  0.00    -0.024 A 
HETATM    7  C7  UNK     1      21.564  13.898  10.218  1.00  0.00     0.057 C 
HETATM    8  C9  UNK     1      19.759  15.658   7.528  1.00  0.00     0.012 A 
HETATM    9  C10 UNK     1      21.497  14.291   6.553  1.00  0.00     0.012 A 
HETATM   10  C16 UNK     1      20.168  16.737   6.743  1.00  0.00     0.001 A 
HETATM   11  C17 UNK     1      21.905  15.370   5.769  1.00  0.00     0.001 A 
HETATM   12  C20 UNK     1      21.242  16.593   5.865  1.00  0.00     0.000 A 
ENDROOT
BRANCH   5  13
HETATM   13  N1  UNK     1      18.056  10.309   8.996  1.00  0.00    -0.316 N 
HETATM   14  C11 UNK     1      16.893  10.213   9.747  1.00  0.00     0.262 C 
HETATM   15  O4  UNK     1      16.367  11.065  10.460  1.00  0.00    -0.267 OA
HETATM   16  H1  UNK     1      18.379   9.504   8.466  1.00  0.00     0.169 HD
BRANCH  14  17
HETATM   17  C12 UNK     1      16.268   8.890   9.620  1.00  0.00     0.108 A 
HETATM   18  C14 UNK     1      15.028   8.868   9.118  1.00  0.00     0.037 A 
HETATM   19  C13 UNK     1      14.325   7.605   8.954  1.00  0.00    -0.001 A 
HETATM   20  C15 UNK     1      14.963   6.427   9.328  1.00  0.00     0.089 A 
HETATM   21  C22 UNK     1      13.031   7.535   8.434  1.00  0.00     0.014 A 
HETATM   22  O2  UNK     1      16.268   6.456   9.856  1.00  0.00    -0.274 OA
HETATM   23  C23 UNK     1      14.346   5.184   9.197  1.00  0.00     0.038 A 
HETATM   24  C21 UNK     1      16.967   7.649  10.025  1.00  0.00     0.304 A 
HETATM   25  O5  UNK     1      18.103   7.665  10.486  1.00  0.00    -0.259 OA
HETATM   26  C25 UNK     1      13.054   5.123   8.678  1.00  0.00     0.003 A 
HETATM   27  C24 UNK     1      12.399   6.295   8.296  1.00  0.00     0.001 A 
ENDBRANCH  14  17
ENDBRANCH   5  13
BRANCH   3  28
HETATM   28  C6  UNK     1      18.293  12.274   6.663  1.00  0.00     0.297 C 
HETATM   29  O3  UNK     1      18.817  12.137   5.548  1.00  0.00    -0.259 OA
BRANCH  28  30
HETATM   30  O1  UNK     1      16.928  12.383   6.824  1.00  0.00    -0.313 OA
BRANCH  30  31
HETATM   31  C8  UNK     1      16.435  13.632   7.319  1.00  0.00     0.124 C 
HETATM   32  C18 UNK     1      16.393  14.641   6.180  1.00  0.00     0.040 C 
HETATM   33  C19 UNK     1      15.061  13.420   7.936  1.00  0.00     0.040 C 
ENDBRANCH  30  31
ENDBRANCH  28  30
ENDBRANCH   3  28
TORSDOF 5
ENDMDL
MODEL 8
REMARK VINA RESULT:      -8.2     22.882     25.071
REMARK  5 active torsions:
REMARK  status: ('A' for Active; 'I' for Inactive)
REMARK    1  A    between atoms: C6_13  and  O1_2 
REMARK    2  A    between atoms: C8_15  and  O1_2 
REMARK       I    between atoms: C11_18  and  N1_7 
REMARK    3  A    between atoms: C4_11  and  N1_7 
REMARK    4  A    between atoms: C2_9  and  C6_13 
REMARK    5  A    between atoms: C11_18  and  C12_19 
ROOT
HETATM    1  S1  UNK     1      27.913  -5.530  38.531  1.00  0.00    -0.075 SA
HETATM    2  C1  UNK     1      30.185  -5.872  37.383  1.00  0.00     0.006 A 
HETATM    3  C2  UNK     1      29.312  -6.851  36.829  1.00  0.00     0.085 A 
HETATM    4  C3  UNK     1      29.554  -5.086  38.322  1.00  0.00    -0.007 A 
HETATM    5  C4  UNK     1      28.069  -6.761  37.370  1.00  0.00     0.094 A 
HETATM    6  C5  UNK     1      31.575  -5.663  37.057  1.00  0.00    -0.024 A 
HETATM    7  C7  UNK     1      30.093  -3.965  39.129  1.00  0.00     0.057 C 
HETATM    8  C9  UNK     1      31.920  -4.786  36.034  1.00  0.00     0.012 A 
HETATM    9  C10 UNK     1      32.562  -6.342  37.768  1.00  0.00     0.012 A 
HETATM   10  C16 UNK     1      33.264  -4.585  35.717  1.00  0.00     0.001 A 
HETATM   11  C17 UNK     1      33.905  -6.140  37.451  1.00  0.00     0.001 A 
HETATM   12  C20 UNK     1      34.257  -5.262  36.427  1.00  0.00     0.000 A 
ENDROOT
BRANCH   5  13
HETATM   13  N1  UNK     1      26.915  -7.510  37.123  1.00  0.00    -0.316 N 
HETATM   14  C11 UNK     1      26.568  -8.705  37.738  1.00  0.00     0.262 C 
HETATM   15  O4  UNK     1      27.181  -9.331  38.601  1.00  0.00    -0.267 OA
HETATM   16  H1  UNK     1      26.310  -7.121  36.406  1.00  0.00     0.169 HD
BRANCH  14  17
HETATM   17  C12 UNK     1      25.287  -9.225  37.240  1.00  0.00     0.108 A 
HETATM   18  C14 UNK     1      24.201  -8.505  37.542  1.00  0.00     0.037 A 
HETATM   19  C13 UNK     1      22.887  -8.939  37.093  1.00  0.00    -0.001 A 
HETATM   20  C15 UNK     1      22.783 -10.110  36.349  1.00  0.00     0.089 A 
HETATM   21  C22 UNK     1      21.725  -8.220  37.384  1.00  0.00     0.014 A 
HETATM   22  O2  UNK     1      23.931 -10.863  36.035  1.00  0.00    -0.274 OA
HETATM   23  C23 UNK     1      21.554 -10.582  35.889  1.00  0.00     0.038 A 
HETATM   24  C21 UNK     1      25.201 -10.474  36.450  1.00  0.00     0.304 A 
HETATM   25  O5  UNK     1      26.196 -11.136  36.172  1.00  0.00    -0.259 OA
HETATM   26  C25 UNK     1      20.400  -9.858  36.184  1.00  0.00     0.003 A 
HETATM   27  C24 UNK     1      20.485  -8.680  36.929  1.00  0.00     0.001 A 
ENDBRANCH  14  17
ENDBRANCH   5  13
BRANCH   3  28
HETATM   28  C6  UNK     1      29.667  -7.824  35.825  1.00  0.00     0.297 C 
HETATM   29  O3  UNK     1      29.860  -7.547  34.632  1.00  0.00    -0.259 OA
BRANCH  28  30
HETATM   30  O1  UNK     1      29.777  -9.110  36.308  1.00  0.00    -0.313 OA
BRANCH  30  31
HETATM   31  C8  UNK     1      31.075  -9.529  36.741  1.00  0.00     0.124 C 
HETATM   32  C18 UNK     1      31.005  -9.951  38.201  1.00  0.00     0.040 C 
HETATM   33  C19 UNK     1      31.560 -10.661  35.848  1.00  0.00     0.040 C 
ENDBRANCH  30  31
ENDBRANCH  28  30
ENDBRANCH   3  28
TORSDOF 5
ENDMDL
MODEL 9
REMARK VINA RESULT:      -8.2     22.991     24.830
REMARK  5 active torsions:
REMARK  status: ('A' for Active; 'I' for Inactive)
REMARK    1  A    between atoms: C6_13  and  O1_2 
REMARK    2  A    between atoms: C8_15  and  O1_2 
REMARK       I    between atoms: C11_18  and  N1_7 
REMARK    3  A    between atoms: C4_11  and  N1_7 
REMARK    4  A    between atoms: C2_9  and  C6_13 
REMARK    5  A    between atoms: C11_18  and  C12_19 
ROOT
HETATM    1  S1  UNK     1      29.982  -6.124  38.546  1.00  0.00    -0.075 SA
HETATM    2  C1  UNK     1      31.647  -6.252  36.594  1.00  0.00     0.006 A 
HETATM    3  C2  UNK     1      30.454  -6.882  36.137  1.00  0.00     0.085 A 
HETATM    4  C3  UNK     1      31.529  -5.795  37.888  1.00  0.00    -0.007 A 
HETATM    5  C4  UNK     1      29.496  -6.871  37.099  1.00  0.00     0.094 A 
HETATM    6  C5  UNK     1      32.874  -6.075  35.856  1.00  0.00    -0.024 A 
HETATM    7  C7  UNK     1      32.523  -5.091  38.734  1.00  0.00     0.057 C 
HETATM    8  C9  UNK     1      33.060  -4.929  35.090  1.00  0.00     0.012 A 
HETATM    9  C10 UNK     1      33.863  -7.053  35.915  1.00  0.00     0.012 A 
HETATM   10  C16 UNK     1      34.247  -4.758  34.375  1.00  0.00     0.001 A 
HETATM   11  C17 UNK     1      35.049  -6.883  35.200  1.00  0.00     0.001 A 
HETATM   12  C20 UNK     1      35.241  -5.735  34.431  1.00  0.00     0.000 A 
ENDROOT
BRANCH   5  13
HETATM   13  N1  UNK     1      28.189  -7.369  37.084  1.00  0.00    -0.316 N 
HETATM   14  C11 UNK     1      27.763  -8.564  37.646  1.00  0.00     0.262 C 
HETATM   15  O4  UNK     1      28.422  -9.405  38.255  1.00  0.00    -0.267 OA
HETATM   16  H1  UNK     1      27.524  -6.782  36.589  1.00  0.00     0.169 HD
BRANCH  14  17
HETATM   17  C12 UNK     1      26.324  -8.781  37.446  1.00  0.00     0.108 A 
HETATM   18  C14 UNK     1      25.981  -9.881  36.766  1.00  0.00     0.037 A 
HETATM   19  C13 UNK     1      24.580 -10.181  36.517  1.00  0.00    -0.001 A 
HETATM   20  C15 UNK     1      23.609  -9.307  36.994  1.00  0.00     0.089 A 
HETATM   21  C22 UNK     1      24.177 -11.318  35.812  1.00  0.00     0.014 A 
HETATM   22  O2  UNK     1      23.976  -8.150  37.708  1.00  0.00    -0.274 OA
HETATM   23  C23 UNK     1      22.250  -9.536  36.789  1.00  0.00     0.038 A 
HETATM   24  C21 UNK     1      25.308  -7.836  37.964  1.00  0.00     0.304 A 
HETATM   25  O5  UNK     1      25.619  -6.826  38.586  1.00  0.00    -0.259 OA
HETATM   26  C25 UNK     1      21.855 -10.673  36.085  1.00  0.00     0.003 A 
HETATM   27  C24 UNK     1      22.816 -11.562  35.598  1.00  0.00     0.001 A 
ENDBRANCH  14  17
ENDBRANCH   5  13
BRANCH   3  28
HETATM   28  C6  UNK     1      30.257  -7.463  34.831  1.00  0.00     0.297 C 
HETATM   29  O3  UNK     1      29.520  -6.976  33.963  1.00  0.00    -0.259 OA
BRANCH  28  30
HETATM   30  O1  UNK     1      30.967  -8.626  34.625  1.00  0.00    -0.313 OA
BRANCH  30  31
HETATM   31  C8  UNK     1      30.458  -9.812  35.244  1.00  0.00     0.124 C 
HETATM   32  C18 UNK     1      29.117 -10.168  34.619  1.00  0.00     0.040 C 
HETATM   33  C19 UNK     1      31.472 -10.935  35.086  1.00  0.00     0.040 C 
ENDBRANCH  30  31
ENDBRANCH  28  30
ENDBRANCH   3  28
TORSDOF 5
ENDMDL
MODEL 10
REMARK VINA RESULT:      -8.2     21.082     24.567
REMARK  5 active torsions:
REMARK  status: ('A' for Active; 'I' for Inactive)
REMARK    1  A    between atoms: C6_13  and  O1_2 
REMARK    2  A    between atoms: C8_15  and  O1_2 
REMARK       I    between atoms: C11_18  and  N1_7 
REMARK    3  A    between atoms: C4_11  and  N1_7 
REMARK    4  A    between atoms: C2_9  and  C6_13 
REMARK    5  A    between atoms: C11_18  and  C12_19 
ROOT
HETATM    1  S1  UNK     1      31.733  -6.250  38.245  1.00  0.00    -0.075 SA
HETATM    2  C1  UNK     1      32.494  -6.954  35.895  1.00  0.00     0.006 A 
HETATM    3  C2  UNK     1      31.071  -6.948  35.864  1.00  0.00     0.085 A 
HETATM    4  C3  UNK     1      32.987  -6.594  37.130  1.00  0.00    -0.007 A 
HETATM    5  C4  UNK     1      30.556  -6.586  37.067  1.00  0.00     0.094 A 
HETATM    6  C5  UNK     1      33.386  -7.285  34.811  1.00  0.00    -0.024 A 
HETATM    7  C7  UNK     1      34.392  -6.476  37.587  1.00  0.00     0.057 C 
HETATM    8  C9  UNK     1      33.827  -6.286  33.948  1.00  0.00     0.012 A 
HETATM    9  C10 UNK     1      33.800  -8.603  34.634  1.00  0.00     0.012 A 
HETATM   10  C16 UNK     1      34.689  -6.607  32.898  1.00  0.00     0.001 A 
HETATM   11  C17 UNK     1      34.661  -8.923  33.585  1.00  0.00     0.001 A 
HETATM   12  C20 UNK     1      35.106  -7.926  32.718  1.00  0.00     0.000 A 
ENDROOT
BRANCH   5  13
HETATM   13  N1  UNK     1      29.228  -6.447  37.481  1.00  0.00    -0.316 N 
HETATM   14  C11 UNK     1      28.535  -7.314  38.315  1.00  0.00     0.262 C 
HETATM   15  O4  UNK     1      28.933  -8.349  38.847  1.00  0.00    -0.267 OA
HETATM   16  H1  UNK     1      28.753  -5.633  37.098  1.00  0.00     0.169 HD
BRANCH  14  17
HETATM   17  C12 UNK     1      27.155  -6.867  38.545  1.00  0.00     0.108 A 
HETATM   18  C14 UNK     1      26.216  -7.819  38.531  1.00  0.00     0.037 A 
HETATM   19  C13 UNK     1      24.819  -7.475  38.748  1.00  0.00    -0.001 A 
HETATM   20  C15 UNK     1      24.481  -6.144  38.968  1.00  0.00     0.089 A 
HETATM   21  C22 UNK     1      23.806  -8.436  38.742  1.00  0.00     0.014 A 
HETATM   22  O2  UNK     1      25.475  -5.145  38.982  1.00  0.00    -0.274 OA
HETATM   23  C23 UNK     1      23.163  -5.747  39.183  1.00  0.00     0.038 A 
HETATM   24  C21 UNK     1      26.819  -5.444  38.778  1.00  0.00     0.304 A 
HETATM   25  O5  UNK     1      27.678  -4.568  38.790  1.00  0.00    -0.259 OA
HETATM   26  C25 UNK     1      22.157  -6.712  39.175  1.00  0.00     0.003 A 
HETATM   27  C24 UNK     1      22.478  -8.053  38.956  1.00  0.00     0.001 A 
ENDBRANCH  14  17
ENDBRANCH   5  13
BRANCH   3  28
HETATM   28  C6  UNK     1      30.253  -7.276  34.721  1.00  0.00     0.297 C 
HETATM   29  O3  UNK     1      30.174  -8.412  34.232  1.00  0.00    -0.259 OA
BRANCH  28  30
HETATM   30  O1  UNK     1      29.555  -6.204  34.207  1.00  0.00    -0.313 OA
BRANCH  30  31
HETATM   31  C8  UNK     1      29.252  -6.242  32.809  1.00  0.00     0.124 C 
HETATM   32  C18 UNK     1      27.750  -6.095  32.617  1.00  0.00     0.040 C 
HETATM   33  C19 UNK     1      30.023  -5.139  32.100  1.00  0.00     0.040 C 
ENDBRANCH  30  31
ENDBRANCH  28  30
ENDBRANCH   3  28
TORSDOF 5
ENDMDL
