MODEL 1
REMARK VINA RESULT:      -7.7      0.000      0.000
REMARK  1 active torsions:
REMARK  status: ('A' for Active; 'I' for Inactive)
REMARK    1  A    between atoms: C9_12  and  O2_2 
ROOT
HETATM    1  O1  UNK     1      19.149   0.802  17.218  1.00  0.00    -0.275 OA
HETATM    2  O3  UNK     1      19.120   1.572  15.065  1.00  0.00    -0.260 OA
HETATM    3  C1  UNK     1      19.752   2.331  19.025  1.00  0.00     0.004 A 
HETATM    4  C2  UNK     1      19.929   3.397  18.030  1.00  0.00    -0.043 A 
HETATM    5  C3  UNK     1      19.367   1.063  18.585  1.00  0.00     0.092 A 
HETATM    6  C4  UNK     1      19.949   2.509  20.401  1.00  0.00     0.017 A 
HETATM    7  C5  UNK     1      19.178  -0.005  19.464  1.00  0.00     0.074 A 
HETATM    8  C6  UNK     1      19.715   3.119  16.736  1.00  0.00     0.090 A 
HETATM    9  C7  UNK     1      20.343   4.771  18.471  1.00  0.00     0.049 C 
HETATM   10  C8  UNK     1      19.763   1.448  21.293  1.00  0.00     0.037 A 
HETATM   11  C9  UNK     1      19.378   0.193  20.825  1.00  0.00     0.068 A 
HETATM   12  C10 UNK     1      19.307   1.788  16.257  1.00  0.00     0.288 A 
ENDROOT
BRANCH  11  13
HETATM   13  O2  UNK     1      19.199  -0.835  21.699  1.00  0.00    -0.361 OA
HETATM   14  H8  UNK     1      19.787  -0.706  22.463  1.00  0.00     0.217 HD
ENDBRANCH  11  13
TORSDOF 1
ENDMDL
MODEL 2
REMARK VINA RESULT:      -7.0     11.147     12.854
REMARK  1 active torsions:
REMARK  status: ('A' for Active; 'I' for Inactive)
REMARK    1  A    between atoms: C9_12  and  O2_2 
ROOT
HETATM    1  O1  UNK     1      18.877   0.413  32.721  1.00  0.00    -0.275 OA
HETATM    2  O3  UNK     1      17.937   2.051  34.009  1.00  0.00    -0.260 OA
HETATM    3  C1  UNK     1      19.281   0.841  30.350  1.00  0.00     0.004 A 
HETATM    4  C2  UNK     1      18.720   2.188  30.524  1.00  0.00    -0.043 A 
HETATM    5  C3  UNK     1      19.341  -0.006  31.458  1.00  0.00     0.092 A 
HETATM    6  C4  UNK     1      19.763   0.350  29.129  1.00  0.00     0.017 A 
HETATM    7  C5  UNK     1      19.859  -1.300  31.380  1.00  0.00     0.074 A 
HETATM    8  C6  UNK     1      18.286   2.558  31.737  1.00  0.00     0.090 A 
HETATM    9  C7  UNK     1      18.640   3.122  29.352  1.00  0.00     0.049 C 
HETATM   10  C8  UNK     1      20.285  -0.945  29.036  1.00  0.00     0.037 A 
HETATM   11  C9  UNK     1      20.332  -1.769  30.160  1.00  0.00     0.068 A 
HETATM   12  C10 UNK     1      18.344   1.677  32.915  1.00  0.00     0.288 A 
ENDROOT
BRANCH  11  13
HETATM   13  O2  UNK     1      20.842  -3.027  30.061  1.00  0.00    -0.361 OA
HETATM   14  H8  UNK     1      20.205  -3.655  30.444  1.00  0.00     0.217 HD
ENDBRANCH  11  13
TORSDOF 1
ENDMDL
MODEL 3
REMARK VINA RESULT:      -6.6     18.100     20.497
REMARK  1 active torsions:
REMARK  status: ('A' for Active; 'I' for Inactive)
REMARK    1  A    between atoms: C9_12  and  O2_2 
ROOT
HETATM    1  O1  UNK     1      21.422  -7.821  35.358  1.00  0.00    -0.275 OA
HETATM    2  O3  UNK     1      20.798  -7.381  33.203  1.00  0.00    -0.260 OA
HETATM    3  C1  UNK     1      19.849  -7.372  37.173  1.00  0.00     0.004 A 
HETATM    4  C2  UNK     1      18.876  -6.900  36.178  1.00  0.00    -0.043 A 
HETATM    5  C3  UNK     1      21.095  -7.819  36.729  1.00  0.00     0.092 A 
HETATM    6  C4  UNK     1      19.602  -7.401  38.552  1.00  0.00     0.017 A 
HETATM    7  C5  UNK     1      22.076  -8.283  37.607  1.00  0.00     0.074 A 
HETATM    8  C6  UNK     1      19.215  -6.914  34.882  1.00  0.00     0.090 A 
HETATM    9  C7  UNK     1      17.528  -6.413  36.624  1.00  0.00     0.049 C 
HETATM   10  C8  UNK     1      20.576  -7.864  39.443  1.00  0.00     0.037 A 
HETATM   11  C9  UNK     1      21.812  -8.304  38.971  1.00  0.00     0.068 A 
HETATM   12  C10 UNK     1      20.524  -7.383  34.398  1.00  0.00     0.288 A 
ENDROOT
BRANCH  11  13
HETATM   13  O2  UNK     1      22.754  -8.753  39.844  1.00  0.00    -0.361 OA
HETATM   14  H8  UNK     1      23.405  -9.287  39.358  1.00  0.00     0.217 HD
ENDBRANCH  11  13
TORSDOF 1
ENDMDL
MODEL 4
REMARK VINA RESULT:      -6.5     12.306     14.559
REMARK  1 active torsions:
REMARK  status: ('A' for Active; 'I' for Inactive)
REMARK    1  A    between atoms: C9_12  and  O2_2 
ROOT
HETATM    1  O1  UNK     1      17.412   4.125  32.347  1.00  0.00    -0.275 OA
HETATM    2  O3  UNK     1      17.402   2.458  30.783  1.00  0.00    -0.260 OA
HETATM    3  C1  UNK     1      19.055   5.924  32.166  1.00  0.00     0.004 A 
HETATM    4  C2  UNK     1      19.585   5.282  30.955  1.00  0.00    -0.043 A 
HETATM    5  C3  UNK     1      17.982   5.322  32.825  1.00  0.00     0.092 A 
HETATM    6  C4  UNK     1      19.566   7.112  32.705  1.00  0.00     0.017 A 
HETATM    7  C5  UNK     1      17.419   5.865  33.981  1.00  0.00     0.074 A 
HETATM    8  C6  UNK     1      19.023   4.144  30.524  1.00  0.00     0.090 A 
HETATM    9  C7  UNK     1      20.740   5.904  30.223  1.00  0.00     0.049 C 
HETATM   10  C8  UNK     1      19.011   7.668  33.863  1.00  0.00     0.037 A 
HETATM   11  C9  UNK     1      17.939   7.045  34.500  1.00  0.00     0.068 A 
HETATM   12  C10 UNK     1      17.890   3.498  31.207  1.00  0.00     0.288 A 
ENDROOT
BRANCH  11  13
HETATM   13  O2  UNK     1      17.405   7.591  35.627  1.00  0.00    -0.361 OA
HETATM   14  H8  UNK     1      16.588   7.114  35.851  1.00  0.00     0.217 HD
ENDBRANCH  11  13
TORSDOF 1
ENDMDL
MODEL 5
REMARK VINA RESULT:      -6.5     18.928     21.217
REMARK  1 active torsions:
REMARK  status: ('A' for Active; 'I' for Inactive)
REMARK    1  A    between atoms: C9_12  and  O2_2 
ROOT
HETATM    1  O1  UNK     1      18.890  -9.474  38.080  1.00  0.00    -0.275 OA
HETATM    2  O3  UNK     1      19.240 -11.619  38.788  1.00  0.00    -0.260 OA
HETATM    3  C1  UNK     1      20.172  -8.616  36.186  1.00  0.00     0.004 A 
HETATM    4  C2  UNK     1      20.850  -9.916  36.090  1.00  0.00    -0.043 A 
HETATM    5  C3  UNK     1      19.211  -8.436  37.182  1.00  0.00     0.092 A 
HETATM    6  C4  UNK     1      20.435  -7.535  35.333  1.00  0.00     0.017 A 
HETATM    7  C5  UNK     1      18.521  -7.234  37.343  1.00  0.00     0.074 A 
HETATM    8  C6  UNK     1      20.524 -10.884  36.958  1.00  0.00     0.090 A 
HETATM    9  C7  UNK     1      21.890 -10.141  35.030  1.00  0.00     0.049 C 
HETATM   10  C8  UNK     1      19.751  -6.324  35.483  1.00  0.00     0.037 A 
HETATM   11  C9  UNK     1      18.796  -6.173  36.487  1.00  0.00     0.068 A 
HETATM   12  C10 UNK     1      19.512 -10.710  38.012  1.00  0.00     0.288 A 
ENDROOT
BRANCH  11  13
HETATM   13  O2  UNK     1      18.134  -4.992  36.626  1.00  0.00    -0.361 OA
HETATM   14  H8  UNK     1      18.441  -4.553  37.437  1.00  0.00     0.217 HD
ENDBRANCH  11  13
TORSDOF 1
ENDMDL
MODEL 6
REMARK VINA RESULT:      -6.3     12.464     14.590
REMARK  1 active torsions:
REMARK  status: ('A' for Active; 'I' for Inactive)
REMARK    1  A    between atoms: C9_12  and  O2_2 
ROOT
HETATM    1  O1  UNK     1       9.336   5.494   9.563  1.00  0.00    -0.275 OA
HETATM    2  O3  UNK     1       7.082   5.714   9.254  1.00  0.00    -0.260 OA
HETATM    3  C1  UNK     1      10.842   5.855   7.674  1.00  0.00     0.004 A 
HETATM    4  C2  UNK     1       9.673   6.134   6.829  1.00  0.00    -0.043 A 
HETATM    5  C3  UNK     1      10.635   5.543   9.018  1.00  0.00     0.092 A 
HETATM    6  C4  UNK     1      12.164   5.883   7.209  1.00  0.00     0.017 A 
HETATM    7  C5  UNK     1      11.690   5.264   9.889  1.00  0.00     0.074 A 
HETATM    8  C6  UNK     1       8.450   6.081   7.374  1.00  0.00     0.090 A 
HETATM    9  C7  UNK     1       9.862   6.473   5.378  1.00  0.00     0.049 C 
HETATM   10  C8  UNK     1      13.231   5.606   8.070  1.00  0.00     0.037 A 
HETATM   11  C9  UNK     1      12.994   5.296   9.409  1.00  0.00     0.068 A 
HETATM   12  C10 UNK     1       8.216   5.754   8.790  1.00  0.00     0.288 A 
ENDROOT
BRANCH  11  13
HETATM   13  O2  UNK     1      14.037   5.028  10.241  1.00  0.00    -0.361 OA
HETATM   14  H8  UNK     1      13.701   4.563  11.026  1.00  0.00     0.217 HD
ENDBRANCH  11  13
TORSDOF 1
ENDMDL
MODEL 7
REMARK VINA RESULT:      -6.2     11.571     13.293
REMARK  1 active torsions:
REMARK  status: ('A' for Active; 'I' for Inactive)
REMARK    1  A    between atoms: C9_12  and  O2_2 
ROOT
HETATM    1  O1  UNK     1      19.201  -0.207  32.822  1.00  0.00    -0.275 OA
HETATM    2  O3  UNK     1      19.974  -2.307  33.290  1.00  0.00    -0.260 OA
HETATM    3  C1  UNK     1      19.371   0.648  30.540  1.00  0.00     0.004 A 
HETATM    4  C2  UNK     1      19.998  -0.619  30.140  1.00  0.00    -0.043 A 
HETATM    5  C3  UNK     1      18.992   0.814  31.873  1.00  0.00     0.092 A 
HETATM    6  C4  UNK     1      19.130   1.711  29.659  1.00  0.00     0.017 A 
HETATM    7  C5  UNK     1      18.391   1.985  32.337  1.00  0.00     0.074 A 
HETATM    8  C6  UNK     1      20.184  -1.572  31.064  1.00  0.00     0.090 A 
HETATM    9  C7  UNK     1      20.418  -0.828  28.714  1.00  0.00     0.049 C 
HETATM   10  C8  UNK     1      18.528   2.891  30.110  1.00  0.00     0.037 A 
HETATM   11  C9  UNK     1      18.160   3.028  31.447  1.00  0.00     0.068 A 
HETATM   12  C10 UNK     1      19.788  -1.413  32.473  1.00  0.00     0.288 A 
ENDROOT
BRANCH  11  13
HETATM   13  O2  UNK     1      17.575   4.179  31.878  1.00  0.00    -0.361 OA
HETATM   14  H8  UNK     1      17.859   4.353  32.792  1.00  0.00     0.217 HD
ENDBRANCH  11  13
TORSDOF 1
ENDMDL
MODEL 8
REMARK VINA RESULT:      -6.2     18.918     20.873
REMARK  1 active torsions:
REMARK  status: ('A' for Active; 'I' for Inactive)
REMARK    1  A    between atoms: C9_12  and  O2_2 
ROOT
HETATM    1  O1  UNK     1      21.518  -9.063  35.160  1.00  0.00    -0.275 OA
HETATM    2  O3  UNK     1      22.584 -11.068  34.890  1.00  0.00    -0.260 OA
HETATM    3  C1  UNK     1      19.883  -8.812  36.957  1.00  0.00     0.004 A 
HETATM    4  C2  UNK     1      20.133 -10.208  37.345  1.00  0.00    -0.043 A 
HETATM    5  C3  UNK     1      20.586  -8.284  35.874  1.00  0.00     0.092 A 
HETATM    6  C4  UNK     1      18.973  -7.973  37.614  1.00  0.00     0.017 A 
HETATM    7  C5  UNK     1      20.408  -6.969  35.440  1.00  0.00     0.074 A 
HETATM    8  C6  UNK     1      21.025 -10.925  36.648  1.00  0.00     0.090 A 
HETATM    9  C7  UNK     1      19.392 -10.806  38.506  1.00  0.00     0.049 C 
HETATM   10  C8  UNK     1      18.785  -6.652  37.191  1.00  0.00     0.037 A 
HETATM   11  C9  UNK     1      19.501  -6.152  36.105  1.00  0.00     0.068 A 
HETATM   12  C10 UNK     1      21.775 -10.382  35.504  1.00  0.00     0.288 A 
ENDROOT
BRANCH  11  13
HETATM   13  O2  UNK     1      19.313  -4.866  35.699  1.00  0.00    -0.361 OA
HETATM   14  H8  UNK     1      19.506  -4.805  34.748  1.00  0.00     0.217 HD
ENDBRANCH  11  13
TORSDOF 1
ENDMDL
MODEL 9
REMARK VINA RESULT:      -6.2     10.514     12.048
REMARK  1 active torsions:
REMARK  status: ('A' for Active; 'I' for Inactive)
REMARK    1  A    between atoms: C9_12  and  O2_2 
ROOT
HETATM    1  O1  UNK     1      19.030   0.773  28.749  1.00  0.00    -0.275 OA
HETATM    2  O3  UNK     1      18.037   2.743  28.150  1.00  0.00    -0.260 OA
HETATM    3  C1  UNK     1      19.277   0.230  31.118  1.00  0.00     0.004 A 
HETATM    4  C2  UNK     1      18.627   1.505  31.451  1.00  0.00    -0.043 A 
HETATM    5  C3  UNK     1      19.459  -0.096  29.773  1.00  0.00     0.092 A 
HETATM    6  C4  UNK     1      19.732  -0.686  32.076  1.00  0.00     0.017 A 
HETATM    7  C5  UNK     1      20.067  -1.285  29.370  1.00  0.00     0.074 A 
HETATM    8  C6  UNK     1      18.230   2.311  30.457  1.00  0.00     0.090 A 
HETATM    9  C7  UNK     1      18.418   1.885  32.888  1.00  0.00     0.049 C 
HETATM   10  C8  UNK     1      20.343  -1.883  31.687  1.00  0.00     0.037 A 
HETATM   11  C9  UNK     1      20.511  -2.182  30.336  1.00  0.00     0.068 A 
HETATM   12  C10 UNK     1      18.413   1.981  29.033  1.00  0.00     0.288 A 
ENDROOT
BRANCH  11  13
HETATM   13  O2  UNK     1      21.107  -3.348  29.965  1.00  0.00    -0.361 OA
HETATM   14  H8  UNK     1      21.879  -3.503  30.535  1.00  0.00     0.217 HD
ENDBRANCH  11  13
TORSDOF 1
ENDMDL
MODEL 10
REMARK VINA RESULT:      -6.2     18.888     21.353
REMARK  1 active torsions:
REMARK  status: ('A' for Active; 'I' for Inactive)
REMARK    1  A    between atoms: C9_12  and  O2_2 
ROOT
HETATM    1  O1  UNK     1      20.424  -9.133  35.529  1.00  0.00    -0.275 OA
HETATM    2  O3  UNK     1      20.963  -7.663  33.863  1.00  0.00    -0.260 OA
HETATM    3  C1  UNK     1      20.133  -8.302  37.808  1.00  0.00     0.004 A 
HETATM    4  C2  UNK     1      20.436  -6.948  37.325  1.00  0.00    -0.043 A 
HETATM    5  C3  UNK     1      20.137  -9.354  36.891  1.00  0.00     0.092 A 
HETATM    6  C4  UNK     1      19.839  -8.605  39.144  1.00  0.00     0.017 A 
HETATM    7  C5  UNK     1      19.860 -10.670  37.266  1.00  0.00     0.074 A 
HETATM    8  C6  UNK     1      20.706  -6.767  36.025  1.00  0.00     0.090 A 
HETATM    9  C7  UNK     1      20.441  -5.794  38.287  1.00  0.00     0.049 C 
HETATM   10  C8  UNK     1      19.559  -9.919  39.534  1.00  0.00     0.037 A 
HETATM   11  C9  UNK     1      19.570 -10.950  38.596  1.00  0.00     0.068 A 
HETATM   12  C10 UNK     1      20.712  -7.866  35.045  1.00  0.00     0.288 A 
ENDROOT
BRANCH  11  13
HETATM   13  O2  UNK     1      19.297 -12.226  38.983  1.00  0.00    -0.361 OA
HETATM   14  H8  UNK     1      18.359 -12.287  39.230  1.00  0.00     0.217 HD
ENDBRANCH  11  13
TORSDOF 1
ENDMDL
