MODEL 1
REMARK VINA RESULT:      -7.8      0.000      0.000
REMARK  0 active torsions:
REMARK  status: ('A' for Active; 'I' for Inactive)
ROOT
HETATM    1  O1  UNK     1      20.925  -2.831  30.284  1.00  0.00    -0.343 OA
HETATM    2  O2  UNK     1      18.888   0.715  32.622  1.00  0.00    -0.274 OA
HETATM    3  O3  UNK     1      19.933  -1.892  33.545  1.00  0.00    -0.290 OA
HETATM    4  O4  UNK     1      17.904   2.412  33.795  1.00  0.00    -0.260 OA
HETATM    5  C1  UNK     1      19.912  -1.032  31.344  1.00  0.00     0.080 A 
HETATM    6  C2  UNK     1      19.327   0.219  31.389  1.00  0.00     0.107 A 
HETATM    7  C3  UNK     1      19.190   0.952  30.208  1.00  0.00     0.005 A 
HETATM    8  C4  UNK     1      20.369  -1.585  30.169  1.00  0.00     0.086 A 
HETATM    9  C5  UNK     1      20.189  -2.009  32.363  1.00  0.00     0.189 A 
HETATM   10  C6  UNK     1      18.565   2.280  30.285  1.00  0.00    -0.043 A 
HETATM   11  C7  UNK     1      20.847  -3.178  31.686  1.00  0.00     0.259 A 
HETATM   12  C8  UNK     1      19.660   0.379  29.004  1.00  0.00     0.017 A 
HETATM   13  C9  UNK     1      20.251  -0.893  28.979  1.00  0.00     0.039 A 
HETATM   14  C10 UNK     1      18.152   2.735  31.476  1.00  0.00     0.090 A 
HETATM   15  C11 UNK     1      18.399   3.102  29.040  1.00  0.00     0.049 C 
HETATM   16  C12 UNK     1      18.293   1.963  32.723  1.00  0.00     0.288 A 
ENDROOT
TORSDOF 0
ENDMDL
MODEL 2
REMARK VINA RESULT:      -7.7      1.456      4.268
REMARK  0 active torsions:
REMARK  status: ('A' for Active; 'I' for Inactive)
ROOT
HETATM    1  O1  UNK     1      18.996   1.612  28.491  1.00  0.00    -0.343 OA
HETATM    2  O2  UNK     1      19.120  -0.189  32.842  1.00  0.00    -0.274 OA
HETATM    3  O3  UNK     1      17.954   2.318  31.795  1.00  0.00    -0.290 OA
HETATM    4  O4  UNK     1      19.156  -1.027  34.969  1.00  0.00    -0.260 OA
HETATM    5  C1  UNK     1      19.112   0.641  30.597  1.00  0.00     0.080 A 
HETATM    6  C2  UNK     1      19.472  -0.342  31.496  1.00  0.00     0.107 A 
HETATM    7  C3  UNK     1      20.177  -1.459  31.041  1.00  0.00     0.005 A 
HETATM    8  C4  UNK     1      19.423   0.560  29.257  1.00  0.00     0.086 A 
HETATM    9  C5  UNK     1      18.400   1.882  30.752  1.00  0.00     0.189 A 
HETATM   10  C6  UNK     1      20.547  -2.491  32.020  1.00  0.00    -0.043 A 
HETATM   11  C7  UNK     1      18.319   2.518  29.393  1.00  0.00     0.259 A 
HETATM   12  C8  UNK     1      20.493  -1.538  29.666  1.00  0.00     0.017 A 
HETATM   13  C9  UNK     1      20.118  -0.528  28.768  1.00  0.00     0.039 A 
HETATM   14  C10 UNK     1      20.199  -2.324  33.303  1.00  0.00     0.090 A 
HETATM   15  C11 UNK     1      21.303  -3.709  31.574  1.00  0.00     0.049 C 
HETATM   16  C12 UNK     1      19.458  -1.145  33.787  1.00  0.00     0.288 A 
ENDROOT
TORSDOF 0
ENDMDL
MODEL 3
REMARK VINA RESULT:      -7.5      1.784      3.666
REMARK  0 active torsions:
REMARK  status: ('A' for Active; 'I' for Inactive)
ROOT
HETATM    1  O1  UNK     1      18.890  -1.627  35.066  1.00  0.00    -0.343 OA
HETATM    2  O2  UNK     1      18.373   1.271  31.388  1.00  0.00    -0.274 OA
HETATM    3  O3  UNK     1      17.202   1.326  34.103  1.00  0.00    -0.290 OA
HETATM    4  O4  UNK     1      18.093   2.703  29.629  1.00  0.00    -0.260 OA
HETATM    5  C1  UNK     1      18.701  -0.261  33.198  1.00  0.00     0.080 A 
HETATM    6  C2  UNK     1      18.976   0.116  31.899  1.00  0.00     0.107 A 
HETATM    7  C3  UNK     1      19.845  -0.662  31.131  1.00  0.00     0.005 A 
HETATM    8  C4  UNK     1      19.258  -1.384  33.769  1.00  0.00     0.086 A 
HETATM    9  C5  UNK     1      17.868   0.317  34.219  1.00  0.00     0.189 A 
HETATM   10  C6  UNK     1      20.121  -0.237  29.751  1.00  0.00    -0.043 A 
HETATM   11  C7  UNK     1      17.985  -0.561  35.433  1.00  0.00     0.259 A 
HETATM   12  C8  UNK     1      20.414  -1.814  31.721  1.00  0.00     0.017 A 
HETATM   13  C9  UNK     1      20.122  -2.181  33.043  1.00  0.00     0.039 A 
HETATM   14  C10 UNK     1      19.532   0.872  29.284  1.00  0.00     0.090 A 
HETATM   15  C11 UNK     1      21.050  -1.044  28.891  1.00  0.00     0.049 C 
HETATM   16  C12 UNK     1      18.613   1.694  30.091  1.00  0.00     0.288 A 
ENDROOT
TORSDOF 0
ENDMDL
MODEL 4
REMARK VINA RESULT:      -7.1      2.854      4.677
REMARK  0 active torsions:
REMARK  status: ('A' for Active; 'I' for Inactive)
ROOT
HETATM    1  O1  UNK     1      18.118   2.321  35.450  1.00  0.00    -0.343 OA
HETATM    2  O2  UNK     1      18.434   1.696  30.791  1.00  0.00    -0.274 OA
HETATM    3  O3  UNK     1      18.095  -0.233  33.006  1.00  0.00    -0.290 OA
HETATM    4  O4  UNK     1      18.582   1.348  28.537  1.00  0.00    -0.260 OA
HETATM    5  C1  UNK     1      18.284   2.119  33.144  1.00  0.00     0.080 A 
HETATM    6  C2  UNK     1      18.427   2.603  31.858  1.00  0.00     0.107 A 
HETATM    7  C3  UNK     1      18.561   3.978  31.658  1.00  0.00     0.005 A 
HETATM    8  C4  UNK     1      18.268   2.949  34.242  1.00  0.00     0.086 A 
HETATM    9  C5  UNK     1      18.130   0.786  33.665  1.00  0.00     0.189 A 
HETATM   10  C6  UNK     1      18.710   4.467  30.279  1.00  0.00    -0.043 A 
HETATM   11  C7  UNK     1      18.020   0.908  35.159  1.00  0.00     0.259 A 
HETATM   12  C8  UNK     1      18.543   4.826  32.788  1.00  0.00     0.017 A 
HETATM   13  C9  UNK     1      18.398   4.315  34.086  1.00  0.00     0.039 A 
HETATM   14  C10 UNK     1      18.714   3.581  29.274  1.00  0.00     0.090 A 
HETATM   15  C11 UNK     1      18.855   5.937  30.018  1.00  0.00     0.049 C 
HETATM   16  C12 UNK     1      18.575   2.128  29.483  1.00  0.00     0.288 A 
ENDROOT
TORSDOF 0
ENDMDL
MODEL 5
REMARK VINA RESULT:      -7.1     22.391     23.981
REMARK  0 active torsions:
REMARK  status: ('A' for Active; 'I' for Inactive)
ROOT
HETATM    1  O1  UNK     1      10.101   7.630   8.716  1.00  0.00    -0.343 OA
HETATM    2  O2  UNK     1      14.045   5.154   9.426  1.00  0.00    -0.274 OA
HETATM    3  O3  UNK     1      11.300   4.304   8.731  1.00  0.00    -0.290 OA
HETATM    4  O4  UNK     1      15.936   3.914   9.761  1.00  0.00    -0.260 OA
HETATM    5  C1  UNK     1      12.095   6.501   9.086  1.00  0.00     0.080 A 
HETATM    6  C2  UNK     1      13.441   6.416   9.387  1.00  0.00     0.107 A 
HETATM    7  C3  UNK     1      14.159   7.586   9.643  1.00  0.00     0.005 A 
HETATM    8  C4  UNK     1      11.432   7.707   9.028  1.00  0.00     0.086 A 
HETATM    9  C5  UNK     1      11.106   5.502   8.781  1.00  0.00     0.189 A 
HETATM   10  C6  UNK     1      15.589   7.466   9.960  1.00  0.00    -0.043 A 
HETATM   11  C7  UNK     1       9.810   6.224   8.539  1.00  0.00     0.259 A 
HETATM   12  C8  UNK     1      13.473   8.821   9.583  1.00  0.00     0.017 A 
HETATM   13  C9  UNK     1      12.106   8.886   9.276  1.00  0.00     0.039 A 
HETATM   14  C10 UNK     1      16.147   6.248   9.992  1.00  0.00     0.090 A 
HETATM   15  C11 UNK     1      16.399   8.698  10.241  1.00  0.00     0.049 C 
HETATM   16  C12 UNK     1      15.391   5.011   9.724  1.00  0.00     0.288 A 
ENDROOT
TORSDOF 0
ENDMDL
MODEL 6
REMARK VINA RESULT:      -7.1      8.549     10.527
REMARK  0 active torsions:
REMARK  status: ('A' for Active; 'I' for Inactive)
ROOT
HETATM    1  O1  UNK     1      22.434  -7.966  40.259  1.00  0.00    -0.343 OA
HETATM    2  O2  UNK     1      21.453  -7.715  35.658  1.00  0.00    -0.274 OA
HETATM    3  O3  UNK     1      23.935  -8.438  37.093  1.00  0.00    -0.290 OA
HETATM    4  O4  UNK     1      21.020  -7.607  33.416  1.00  0.00    -0.260 OA
HETATM    5  C1  UNK     1      21.852  -7.812  38.017  1.00  0.00     0.080 A 
HETATM    6  C2  UNK     1      20.987  -7.564  36.969  1.00  0.00     0.107 A 
HETATM    7  C3  UNK     1      19.676  -7.172  37.244  1.00  0.00     0.005 A 
HETATM    8  C4  UNK     1      21.466  -7.685  39.332  1.00  0.00     0.086 A 
HETATM    9  C5  UNK     1      23.231  -8.221  38.058  1.00  0.00     0.189 A 
HETATM   10  C6  UNK     1      18.776  -6.916  36.111  1.00  0.00    -0.043 A 
HETATM   11  C7  UNK     1      23.617  -8.324  39.507  1.00  0.00     0.259 A 
HETATM   12  C8  UNK     1      19.284  -7.043  38.596  1.00  0.00     0.017 A 
HETATM   13  C9  UNK     1      20.177  -7.299  39.647  1.00  0.00     0.039 A 
HETATM   14  C10 UNK     1      19.244  -7.067  34.864  1.00  0.00     0.090 A 
HETATM   15  C11 UNK     1      17.357  -6.493  36.361  1.00  0.00     0.049 C 
HETATM   16  C12 UNK     1      20.628  -7.479  34.570  1.00  0.00     0.288 A 
ENDROOT
TORSDOF 0
ENDMDL
MODEL 7
REMARK VINA RESULT:      -7.1      6.384      8.539
REMARK  0 active torsions:
REMARK  status: ('A' for Active; 'I' for Inactive)
ROOT
HETATM    1  O1  UNK     1      20.621   6.972  33.057  1.00  0.00    -0.343 OA
HETATM    2  O2  UNK     1      16.014   6.812  32.086  1.00  0.00    -0.274 OA
HETATM    3  O3  UNK     1      18.300   5.298  30.981  1.00  0.00    -0.290 OA
HETATM    4  O4  UNK     1      13.787   6.701  31.585  1.00  0.00    -0.260 OA
HETATM    5  C1  UNK     1      18.336   6.970  32.651  1.00  0.00     0.080 A 
HETATM    6  C2  UNK     1      17.036   7.395  32.845  1.00  0.00     0.107 A 
HETATM    7  C3  UNK     1      16.777   8.390  33.789  1.00  0.00     0.005 A 
HETATM    8  C4  UNK     1      19.393   7.496  33.360  1.00  0.00     0.086 A 
HETATM    9  C5  UNK     1      18.912   5.986  31.773  1.00  0.00     0.189 A 
HETATM   10  C6  UNK     1      15.384   8.823  33.976  1.00  0.00    -0.043 A 
HETATM   11  C7  UNK     1      20.393   5.979  32.030  1.00  0.00     0.259 A 
HETATM   12  C8  UNK     1      17.865   8.927  34.514  1.00  0.00     0.017 A 
HETATM   13  C9  UNK     1      19.178   8.482  34.302  1.00  0.00     0.039 A 
HETATM   14  C10 UNK     1      14.423   8.251  33.239  1.00  0.00     0.090 A 
HETATM   15  C11 UNK     1      15.061   9.889  34.981  1.00  0.00     0.049 C 
HETATM   16  C12 UNK     1      14.693   7.201  32.240  1.00  0.00     0.288 A 
ENDROOT
TORSDOF 0
ENDMDL
MODEL 8
REMARK VINA RESULT:      -7.1      6.404      8.766
REMARK  0 active torsions:
REMARK  status: ('A' for Active; 'I' for Inactive)
ROOT
HETATM    1  O1  UNK     1      16.123   8.620  34.743  1.00  0.00    -0.343 OA
HETATM    2  O2  UNK     1      17.915   6.513  30.929  1.00  0.00    -0.274 OA
HETATM    3  O3  UNK     1      15.198   7.524  31.512  1.00  0.00    -0.290 OA
HETATM    4  O4  UNK     1      18.743   5.495  29.058  1.00  0.00    -0.260 OA
HETATM    5  C1  UNK     1      17.100   7.575  32.914  1.00  0.00     0.080 A 
HETATM    6  C2  UNK     1      18.144   6.991  32.225  1.00  0.00     0.107 A 
HETATM    7  C3  UNK     1      19.396   6.893  32.836  1.00  0.00     0.005 A 
HETATM    8  C4  UNK     1      17.249   8.069  34.191  1.00  0.00     0.086 A 
HETATM    9  C5  UNK     1      15.725   7.818  32.566  1.00  0.00     0.189 A 
HETATM   10  C6  UNK     1      20.490   6.268  32.080  1.00  0.00    -0.043 A 
HETATM   11  C7  UNK     1      15.084   8.496  33.745  1.00  0.00     0.259 A 
HETATM   12  C8  UNK     1      19.544   7.401  34.147  1.00  0.00     0.017 A 
HETATM   13  C9  UNK     1      18.471   7.991  34.831  1.00  0.00     0.039 A 
HETATM   14  C10 UNK     1      20.247   5.817  30.841  1.00  0.00     0.090 A 
HETATM   15  C11 UNK     1      21.852   6.143  32.698  1.00  0.00     0.049 C 
HETATM   16  C12 UNK     1      18.927   5.917  30.194  1.00  0.00     0.288 A 
ENDROOT
TORSDOF 0
ENDMDL
MODEL 9
REMARK VINA RESULT:      -7.0      1.881      4.055
REMARK  0 active torsions:
REMARK  status: ('A' for Active; 'I' for Inactive)
ROOT
HETATM    1  O1  UNK     1      20.468  -1.007  29.284  1.00  0.00    -0.343 OA
HETATM    2  O2  UNK     1      18.298   0.465  33.198  1.00  0.00    -0.274 OA
HETATM    3  O3  UNK     1      18.353   1.572  30.457  1.00  0.00    -0.290 OA
HETATM    4  O4  UNK     1      17.228   1.214  35.074  1.00  0.00    -0.260 OA
HETATM    5  C1  UNK     1      19.441  -0.365  31.265  1.00  0.00     0.080 A 
HETATM    6  C2  UNK     1      19.130  -0.492  32.604  1.00  0.00     0.107 A 
HETATM    7  C3  UNK     1      19.653  -1.565  33.328  1.00  0.00     0.005 A 
HETATM    8  C4  UNK     1      20.252  -1.266  30.612  1.00  0.00     0.086 A 
HETATM    9  C5  UNK     1      19.069   0.608  30.272  1.00  0.00     0.189 A 
HETATM   10  C6  UNK     1      19.305  -1.677  34.752  1.00  0.00    -0.043 A 
HETATM   11  C7  UNK     1      19.728   0.199  28.985  1.00  0.00     0.259 A 
HETATM   12  C8  UNK     1      20.485  -2.487  32.654  1.00  0.00     0.017 A 
HETATM   13  C9  UNK     1      20.789  -2.341  31.292  1.00  0.00     0.039 A 
HETATM   14  C10 UNK     1      18.507  -0.750  35.299  1.00  0.00     0.090 A 
HETATM   15  C11 UNK     1      19.844  -2.816  35.567  1.00  0.00     0.049 C 
HETATM   16  C12 UNK     1      17.956   0.386  34.539  1.00  0.00     0.288 A 
ENDROOT
TORSDOF 0
ENDMDL
MODEL 10
REMARK VINA RESULT:      -6.9     23.024     25.064
REMARK  0 active torsions:
REMARK  status: ('A' for Active; 'I' for Inactive)
ROOT
HETATM    1  O1  UNK     1      14.896   7.755   9.204  1.00  0.00    -0.343 OA
HETATM    2  O2  UNK     1      10.205   7.728   9.641  1.00  0.00    -0.274 OA
HETATM    3  O3  UNK     1      12.337   8.619  11.486  1.00  0.00    -0.290 OA
HETATM    4  O4  UNK     1       7.934   7.733   9.894  1.00  0.00    -0.260 OA
HETATM    5  C1  UNK     1      12.578   7.699   9.322  1.00  0.00     0.080 A 
HETATM    6  C2  UNK     1      11.313   7.432   8.837  1.00  0.00     0.107 A 
HETATM    7  C3  UNK     1      11.173   6.877   7.564  1.00  0.00     0.005 A 
HETATM    8  C4  UNK     1      13.715   7.436   8.590  1.00  0.00     0.086 A 
HETATM    9  C5  UNK     1      13.042   8.255  10.566  1.00  0.00     0.189 A 
HETATM   10  C6  UNK     1       9.814   6.604   7.072  1.00  0.00    -0.043 A 
HETATM   11  C7  UNK     1      14.542   8.297  10.498  1.00  0.00     0.259 A 
HETATM   12  C8  UNK     1      12.342   6.608   6.816  1.00  0.00     0.017 A 
HETATM   13  C9  UNK     1      13.618   6.886   7.327  1.00  0.00     0.039 A 
HETATM   14  C10 UNK     1       8.769   6.895   7.859  1.00  0.00     0.090 A 
HETATM   15  C11 UNK     1       9.617   6.009   5.709  1.00  0.00     0.049 C 
HETATM   16  C12 UNK     1       8.914   7.479   9.204  1.00  0.00     0.288 A 
ENDROOT
TORSDOF 0
ENDMDL
