MODEL 1
REMARK VINA RESULT:     -10.0      0.000      0.000
REMARK  6 active torsions:
REMARK  status: ('A' for Active; 'I' for Inactive)
REMARK    1  A    between atoms: C18_24  and  O3_3 
REMARK    2  A    between atoms: C8_14  and  O3_3 
REMARK    3  A    between atoms: C1_7  and  C2_8 
REMARK    4  A    between atoms: C1_7  and  C5_11 
REMARK    5  A    between atoms: C2_8  and  C8_14 
REMARK    6  A    between atoms: C18_24  and  C19_25 
ROOT
HETATM    1  O1  UNK     1      22.329  -7.943  36.113  1.00  0.00    -0.291 OA
HETATM    2  O2  UNK     1      20.153  -7.078  40.255  1.00  0.00    -0.291 OA
HETATM    3  C1  UNK     1      21.457  -6.886  38.168  1.00  0.00     0.119 A 
HETATM    4  C3  UNK     1      21.655  -7.996  37.126  1.00  0.00     0.181 A 
HETATM    5  C4  UNK     1      20.559  -7.560  39.214  1.00  0.00     0.181 A 
HETATM    6  C6  UNK     1      20.885  -9.170  37.545  1.00  0.00     0.025 A 
HETATM    7  C7  UNK     1      20.249  -8.917  38.755  1.00  0.00     0.025 A 
HETATM    8  C11 UNK     1      20.761 -10.385  36.899  1.00  0.00     0.016 A 
HETATM    9  C12 UNK     1      19.460  -9.867  39.374  1.00  0.00     0.016 A 
HETATM   10  C13 UNK     1      19.965 -11.359  37.510  1.00  0.00     0.001 A 
HETATM   11  C14 UNK     1      19.320 -11.103  38.735  1.00  0.00     0.001 A 
ENDROOT
BRANCH   3  12
HETATM   12  C2  UNK     1      22.791  -6.490  38.785  1.00  0.00     0.058 C 
BRANCH  12  13
HETATM   13  C8  UNK     1      23.708  -7.689  38.956  1.00  0.00     0.181 C 
BRANCH  13  14
HETATM   14  O3  UNK     1      24.954  -7.402  38.335  1.00  0.00    -0.317 OA
BRANCH  14  15
HETATM   15  C18 UNK     1      26.052  -7.929  38.942  1.00  0.00     0.299 C 
HETATM   16  O5  UNK     1      26.136  -9.001  39.520  1.00  0.00    -0.259 OA
BRANCH  15  17
HETATM   17  C19 UNK     1      27.171  -6.993  38.803  1.00  0.00     0.115 A 
HETATM   18  C20 UNK     1      28.387  -7.539  38.680  1.00  0.00     0.038 A 
HETATM   19  C21 UNK     1      29.560  -6.691  38.537  1.00  0.00    -0.001 A 
HETATM   20  C23 UNK     1      29.395  -5.310  38.532  1.00  0.00     0.089 A 
HETATM   21  C24 UNK     1      30.848  -7.217  38.406  1.00  0.00     0.014 A 
HETATM   22  O4  UNK     1      28.114  -4.741  38.661  1.00  0.00    -0.274 OA
HETATM   23  C25 UNK     1      30.478  -4.442  38.399  1.00  0.00     0.038 A 
HETATM   24  C22 UNK     1      26.972  -5.526  38.799  1.00  0.00     0.304 A 
HETATM   25  O6  UNK     1      25.860  -5.023  38.913  1.00  0.00    -0.259 OA
HETATM   26  C27 UNK     1      31.759  -4.975  38.268  1.00  0.00     0.003 A 
HETATM   27  C26 UNK     1      31.944  -6.360  38.271  1.00  0.00     0.001 A 
ENDBRANCH  15  17
ENDBRANCH  14  15
ENDBRANCH  13  14
ENDBRANCH  12  13
ENDBRANCH   3  12
BRANCH   3  28
HETATM   28  C5  UNK     1      20.769  -5.708  37.560  1.00  0.00    -0.034 A 
HETATM   29  C10 UNK     1      21.313  -4.432  37.708  1.00  0.00     0.009 A 
HETATM   30  C16 UNK     1      20.671  -3.331  37.140  1.00  0.00     0.001 A 
HETATM   31  C17 UNK     1      19.487  -3.507  36.425  1.00  0.00     0.000 A 
HETATM   32  C15 UNK     1      18.944  -4.783  36.278  1.00  0.00     0.001 A 
HETATM   33  C9  UNK     1      19.586  -5.884  36.846  1.00  0.00     0.009 A 
ENDBRANCH   3  28
TORSDOF 6
ENDMDL
MODEL 2
REMARK VINA RESULT:     -10.0      5.595      9.166
REMARK  6 active torsions:
REMARK  status: ('A' for Active; 'I' for Inactive)
REMARK    1  A    between atoms: C18_24  and  O3_3 
REMARK    2  A    between atoms: C8_14  and  O3_3 
REMARK    3  A    between atoms: C1_7  and  C2_8 
REMARK    4  A    between atoms: C1_7  and  C5_11 
REMARK    5  A    between atoms: C2_8  and  C8_14 
REMARK    6  A    between atoms: C18_24  and  C19_25 
ROOT
HETATM    1  O1  UNK     1      31.010 -10.695  38.720  1.00  0.00    -0.291 OA
HETATM    2  O2  UNK     1      29.593  -6.657  36.641  1.00  0.00    -0.291 OA
HETATM    3  C1  UNK     1      30.870  -8.649  37.344  1.00  0.00     0.119 A 
HETATM    4  C3  UNK     1      30.386  -9.729  38.322  1.00  0.00     0.181 A 
HETATM    5  C4  UNK     1      29.672  -7.694  37.274  1.00  0.00     0.181 A 
HETATM    6  C6  UNK     1      29.010  -9.415  38.717  1.00  0.00     0.025 A 
HETATM    7  C7  UNK     1      28.596  -8.234  38.109  1.00  0.00     0.025 A 
HETATM    8  C11 UNK     1      28.182 -10.124  39.565  1.00  0.00     0.016 A 
HETATM    9  C12 UNK     1      27.335  -7.711  38.322  1.00  0.00     0.016 A 
HETATM   10  C13 UNK     1      26.901  -9.611  39.791  1.00  0.00     0.001 A 
HETATM   11  C14 UNK     1      26.481  -8.416  39.175  1.00  0.00     0.001 A 
ENDROOT
BRANCH   3  12
HETATM   12  C2  UNK     1      32.091  -7.934  37.904  1.00  0.00     0.058 C 
BRANCH  12  13
HETATM   13  C8  UNK     1      31.756  -6.524  38.359  1.00  0.00     0.181 C 
BRANCH  13  14
HETATM   14  O3  UNK     1      32.818  -5.658  37.981  1.00  0.00    -0.317 OA
BRANCH  14  15
HETATM   15  C18 UNK     1      32.566  -4.844  36.919  1.00  0.00     0.299 C 
HETATM   16  O5  UNK     1      32.011  -3.756  36.935  1.00  0.00    -0.259 OA
BRANCH  15  17
HETATM   17  C19 UNK     1      33.074  -5.477  35.699  1.00  0.00     0.115 A 
HETATM   18  C20 UNK     1      32.161  -5.793  34.773  1.00  0.00     0.038 A 
HETATM   19  C21 UNK     1      32.569  -6.426  33.528  1.00  0.00    -0.001 A 
HETATM   20  C23 UNK     1      33.917  -6.695  33.320  1.00  0.00     0.089 A 
HETATM   21  C24 UNK     1      31.651  -6.773  32.533  1.00  0.00     0.014 A 
HETATM   22  O4  UNK     1      34.874  -6.360  34.299  1.00  0.00    -0.274 OA
HETATM   23  C25 UNK     1      34.374  -7.300  32.150  1.00  0.00     0.038 A 
HETATM   24  C22 UNK     1      34.514  -5.754  35.500  1.00  0.00     0.304 A 
HETATM   25  O6  UNK     1      35.353  -5.468  36.347  1.00  0.00    -0.259 OA
HETATM   26  C27 UNK     1      33.451  -7.642  31.163  1.00  0.00     0.003 A 
HETATM   27  C26 UNK     1      32.093  -7.379  31.354  1.00  0.00     0.001 A 
ENDBRANCH  15  17
ENDBRANCH  14  15
ENDBRANCH  13  14
ENDBRANCH  12  13
ENDBRANCH   3  12
BRANCH   3  28
HETATM   28  C5  UNK     1      31.155  -9.240  36.003  1.00  0.00    -0.034 A 
HETATM   29  C10 UNK     1      30.102  -9.606  35.165  1.00  0.00     0.009 A 
HETATM   30  C16 UNK     1      30.368 -10.158  33.911  1.00  0.00     0.001 A 
HETATM   31  C17 UNK     1      31.687 -10.343  33.497  1.00  0.00     0.000 A 
HETATM   32  C15 UNK     1      32.740  -9.977  34.335  1.00  0.00     0.001 A 
HETATM   33  C9  UNK     1      32.473  -9.425  35.589  1.00  0.00     0.009 A 
ENDBRANCH   3  28
TORSDOF 6
ENDMDL
MODEL 3
REMARK VINA RESULT:      -9.9      5.401      8.910
REMARK  6 active torsions:
REMARK  status: ('A' for Active; 'I' for Inactive)
REMARK    1  A    between atoms: C18_24  and  O3_3 
REMARK    2  A    between atoms: C8_14  and  O3_3 
REMARK    3  A    between atoms: C1_7  and  C2_8 
REMARK    4  A    between atoms: C1_7  and  C5_11 
REMARK    5  A    between atoms: C2_8  and  C8_14 
REMARK    6  A    between atoms: C18_24  and  C19_25 
ROOT
HETATM    1  O1  UNK     1      28.976  -7.474  35.796  1.00  0.00    -0.291 OA
HETATM    2  O2  UNK     1      30.868 -10.547  38.897  1.00  0.00    -0.291 OA
HETATM    3  C1  UNK     1      30.507  -8.955  37.045  1.00  0.00     0.119 A 
HETATM    4  C3  UNK     1      29.194  -8.227  36.727  1.00  0.00     0.181 A 
HETATM    5  C4  UNK     1      30.148  -9.776  38.290  1.00  0.00     0.181 A 
HETATM    6  C6  UNK     1      28.206  -8.583  37.749  1.00  0.00     0.025 A 
HETATM    7  C7  UNK     1      28.759  -9.481  38.656  1.00  0.00     0.025 A 
HETATM    8  C11 UNK     1      26.901  -8.146  37.865  1.00  0.00     0.016 A 
HETATM    9  C12 UNK     1      28.032  -9.982  39.718  1.00  0.00     0.016 A 
HETATM   10  C13 UNK     1      26.150  -8.640  38.935  1.00  0.00     0.001 A 
HETATM   11  C14 UNK     1      26.710  -9.549  39.854  1.00  0.00     0.001 A 
ENDROOT
BRANCH   3  12
HETATM   12  C2  UNK     1      30.898  -9.873  35.895  1.00  0.00     0.058 C 
BRANCH  12  13
HETATM   13  C8  UNK     1      29.837  -9.895  34.809  1.00  0.00     0.181 C 
BRANCH  13  14
HETATM   14  O3  UNK     1      30.482  -9.934  33.542  1.00  0.00    -0.317 OA
BRANCH  14  15
HETATM   15  C18 UNK     1      30.434  -8.782  32.819  1.00  0.00     0.299 C 
HETATM   16  O5  UNK     1      29.574  -8.444  32.020  1.00  0.00    -0.259 OA
BRANCH  15  17
HETATM   17  C19 UNK     1      31.607  -7.965  33.141  1.00  0.00     0.115 A 
HETATM   18  C20 UNK     1      31.367  -6.806  33.765  1.00  0.00     0.038 A 
HETATM   19  C21 UNK     1      32.467  -5.925  34.125  1.00  0.00    -0.001 A 
HETATM   20  C23 UNK     1      33.767  -6.309  33.810  1.00  0.00     0.089 A 
HETATM   21  C24 UNK     1      32.264  -4.706  34.776  1.00  0.00     0.014 A 
HETATM   22  O4  UNK     1      34.013  -7.531  33.154  1.00  0.00    -0.274 OA
HETATM   23  C25 UNK     1      34.866  -5.512  34.128  1.00  0.00     0.038 A 
HETATM   24  C22 UNK     1      32.981  -8.394  32.797  1.00  0.00     0.304 A 
HETATM   25  O6  UNK     1      33.204  -9.455  32.224  1.00  0.00    -0.259 OA
HETATM   26  C27 UNK     1      34.653  -4.298  34.777  1.00  0.00     0.003 A 
HETATM   27  C26 UNK     1      33.355  -3.896  35.102  1.00  0.00     0.001 A 
ENDBRANCH  15  17
ENDBRANCH  14  15
ENDBRANCH  13  14
ENDBRANCH  12  13
ENDBRANCH   3  12
BRANCH   3  28
HETATM   28  C5  UNK     1      31.593  -7.977  37.351  1.00  0.00    -0.034 A 
HETATM   29  C10 UNK     1      32.905  -8.251  36.967  1.00  0.00     0.009 A 
HETATM   30  C16 UNK     1      33.921  -7.337  37.253  1.00  0.00     0.001 A 
HETATM   31  C17 UNK     1      33.622  -6.150  37.922  1.00  0.00     0.000 A 
HETATM   32  C15 UNK     1      32.310  -5.877  38.306  1.00  0.00     0.001 A 
HETATM   33  C9  UNK     1      31.294  -6.791  38.020  1.00  0.00     0.009 A 
ENDBRANCH   3  28
TORSDOF 6
ENDMDL
MODEL 4
REMARK VINA RESULT:      -9.9      5.091      7.981
REMARK  6 active torsions:
REMARK  status: ('A' for Active; 'I' for Inactive)
REMARK    1  A    between atoms: C18_24  and  O3_3 
REMARK    2  A    between atoms: C8_14  and  O3_3 
REMARK    3  A    between atoms: C1_7  and  C2_8 
REMARK    4  A    between atoms: C1_7  and  C5_11 
REMARK    5  A    between atoms: C2_8  and  C8_14 
REMARK    6  A    between atoms: C18_24  and  C19_25 
ROOT
HETATM    1  O1  UNK     1      29.365 -10.726  32.737  1.00  0.00    -0.291 OA
HETATM    2  O2  UNK     1      27.988  -6.843  35.117  1.00  0.00    -0.291 OA
HETATM    3  C1  UNK     1      28.908  -9.046  34.488  1.00  0.00     0.119 A 
HETATM    4  C3  UNK     1      28.959  -9.627  33.069  1.00  0.00     0.181 A 
HETATM    5  C4  UNK     1      28.265  -7.671  34.269  1.00  0.00     0.181 A 
HETATM    6  C6  UNK     1      28.431  -8.627  32.137  1.00  0.00     0.025 A 
HETATM    7  C7  UNK     1      28.029  -7.492  32.833  1.00  0.00     0.025 A 
HETATM    8  C11 UNK     1      28.307  -8.718  30.764  1.00  0.00     0.016 A 
HETATM    9  C12 UNK     1      27.486  -6.398  32.188  1.00  0.00     0.016 A 
HETATM   10  C13 UNK     1      27.762  -7.620  30.093  1.00  0.00     0.001 A 
HETATM   11  C14 UNK     1      27.355  -6.470  30.798  1.00  0.00     0.001 A 
ENDROOT
BRANCH   3  12
HETATM   12  C2  UNK     1      28.031  -9.908  35.385  1.00  0.00     0.058 C 
BRANCH  12  13
HETATM   13  C8  UNK     1      27.245  -9.067  36.377  1.00  0.00     0.181 C 
BRANCH  13  14
HETATM   14  O3  UNK     1      27.367  -9.651  37.667  1.00  0.00    -0.317 OA
BRANCH  14  15
HETATM   15  C18 UNK     1      27.057  -8.839  38.714  1.00  0.00     0.299 C 
HETATM   16  O5  UNK     1      26.292  -9.077  39.636  1.00  0.00    -0.259 OA
BRANCH  15  17
HETATM   17  C19 UNK     1      27.799  -7.582  38.581  1.00  0.00     0.115 A 
HETATM   18  C20 UNK     1      29.133  -7.681  38.560  1.00  0.00     0.038 A 
HETATM   19  C21 UNK     1      29.956  -6.489  38.432  1.00  0.00    -0.001 A 
HETATM   20  C23 UNK     1      29.332  -5.249  38.334  1.00  0.00     0.089 A 
HETATM   21  C24 UNK     1      31.351  -6.545  38.405  1.00  0.00     0.014 A 
HETATM   22  O4  UNK     1      27.927  -5.150  38.357  1.00  0.00    -0.274 OA
HETATM   23  C25 UNK     1      30.062  -4.068  38.209  1.00  0.00     0.038 A 
HETATM   24  C22 UNK     1      27.114  -6.273  38.478  1.00  0.00     0.304 A 
HETATM   25  O6  UNK     1      25.892  -6.179  38.499  1.00  0.00    -0.259 OA
HETATM   26  C27 UNK     1      31.453  -4.134  38.183  1.00  0.00     0.003 A 
HETATM   27  C26 UNK     1      32.097  -5.369  38.280  1.00  0.00     0.001 A 
ENDBRANCH  15  17
ENDBRANCH  14  15
ENDBRANCH  13  14
ENDBRANCH  12  13
ENDBRANCH   3  12
BRANCH   3  28
HETATM   28  C5  UNK     1      30.284  -8.903  35.051  1.00  0.00    -0.034 A 
HETATM   29  C10 UNK     1      30.729  -9.786  36.034  1.00  0.00     0.009 A 
HETATM   30  C16 UNK     1      32.015  -9.653  36.559  1.00  0.00     0.001 A 
HETATM   31  C17 UNK     1      32.854  -8.638  36.101  1.00  0.00     0.000 A 
HETATM   32  C15 UNK     1      32.409  -7.755  35.117  1.00  0.00     0.001 A 
HETATM   33  C9  UNK     1      31.123  -7.888  34.592  1.00  0.00     0.009 A 
ENDBRANCH   3  28
TORSDOF 6
ENDMDL
MODEL 5
REMARK VINA RESULT:      -9.8      6.284      9.257
REMARK  6 active torsions:
REMARK  status: ('A' for Active; 'I' for Inactive)
REMARK    1  A    between atoms: C18_24  and  O3_3 
REMARK    2  A    between atoms: C8_14  and  O3_3 
REMARK    3  A    between atoms: C1_7  and  C2_8 
REMARK    4  A    between atoms: C1_7  and  C5_11 
REMARK    5  A    between atoms: C2_8  and  C8_14 
REMARK    6  A    between atoms: C18_24  and  C19_25 
ROOT
HETATM    1  O1  UNK     1      30.080  -9.266  35.601  1.00  0.00    -0.291 OA
HETATM    2  O2  UNK     1      30.021  -4.798  37.237  1.00  0.00    -0.291 OA
HETATM    3  C1  UNK     1      30.380  -6.831  35.883  1.00  0.00     0.119 A 
HETATM    4  C3  UNK     1      29.879  -8.240  36.226  1.00  0.00     0.181 A 
HETATM    5  C4  UNK     1      29.850  -5.989  37.050  1.00  0.00     0.181 A 
HETATM    6  C6  UNK     1      29.091  -8.166  37.459  1.00  0.00     0.025 A 
HETATM    7  C7  UNK     1      29.074  -6.860  37.937  1.00  0.00     0.025 A 
HETATM    8  C11 UNK     1      28.438  -9.190  38.119  1.00  0.00     0.016 A 
HETATM    9  C12 UNK     1      28.404  -6.519  39.096  1.00  0.00     0.016 A 
HETATM   10  C13 UNK     1      27.753  -8.863  39.293  1.00  0.00     0.001 A 
HETATM   11  C14 UNK     1      27.735  -7.541  39.777  1.00  0.00     0.001 A 
ENDROOT
BRANCH   3  12
HETATM   12  C2  UNK     1      31.902  -6.801  35.852  1.00  0.00     0.058 C 
BRANCH  12  13
HETATM   13  C8  UNK     1      32.487  -8.188  35.649  1.00  0.00     0.181 C 
BRANCH  13  14
HETATM   14  O3  UNK     1      33.323  -8.167  34.500  1.00  0.00    -0.317 OA
BRANCH  14  15
HETATM   15  C18 UNK     1      33.177  -9.214  33.644  1.00  0.00     0.299 C 
HETATM   16  O5  UNK     1      33.648 -10.335  33.756  1.00  0.00    -0.259 OA
BRANCH  15  17
HETATM   17  C19 UNK     1      32.340  -8.797  32.515  1.00  0.00     0.115 A 
HETATM   18  C20 UNK     1      31.065  -9.201  32.543  1.00  0.00     0.038 A 
HETATM   19  C21 UNK     1      30.156  -8.837  31.467  1.00  0.00    -0.001 A 
HETATM   20  C23 UNK     1      30.636  -8.067  30.413  1.00  0.00     0.089 A 
HETATM   21  C24 UNK     1      28.817  -9.236  31.455  1.00  0.00     0.014 A 
HETATM   22  O4  UNK     1      31.980  -7.645  30.388  1.00  0.00    -0.274 OA
HETATM   23  C25 UNK     1      29.818  -7.685  29.351  1.00  0.00     0.038 A 
HETATM   24  C22 UNK     1      32.873  -7.977  31.404  1.00  0.00     0.304 A 
HETATM   25  O6  UNK     1      34.041  -7.606  31.374  1.00  0.00    -0.259 OA
HETATM   26  C27 UNK     1      28.485  -8.087  29.347  1.00  0.00     0.003 A 
HETATM   27  C26 UNK     1      27.984  -8.861  30.397  1.00  0.00     0.001 A 
ENDBRANCH  15  17
ENDBRANCH  14  15
ENDBRANCH  13  14
ENDBRANCH  12  13
ENDBRANCH   3  12
BRANCH   3  28
HETATM   28  C5  UNK     1      29.802  -6.365  34.588  1.00  0.00    -0.034 A 
HETATM   29  C10 UNK     1      28.457  -6.596  34.302  1.00  0.00     0.009 A 
HETATM   30  C16 UNK     1      27.917  -6.160  33.091  1.00  0.00     0.001 A 
HETATM   31  C17 UNK     1      28.723  -5.492  32.169  1.00  0.00     0.000 A 
HETATM   32  C15 UNK     1      30.068  -5.261  32.455  1.00  0.00     0.001 A 
HETATM   33  C9  UNK     1      30.608  -5.697  33.666  1.00  0.00     0.009 A 
ENDBRANCH   3  28
TORSDOF 6
ENDMDL
MODEL 6
REMARK VINA RESULT:      -9.8      6.688      9.199
REMARK  6 active torsions:
REMARK  status: ('A' for Active; 'I' for Inactive)
REMARK    1  A    between atoms: C18_24  and  O3_3 
REMARK    2  A    between atoms: C8_14  and  O3_3 
REMARK    3  A    between atoms: C1_7  and  C2_8 
REMARK    4  A    between atoms: C1_7  and  C5_11 
REMARK    5  A    between atoms: C2_8  and  C8_14 
REMARK    6  A    between atoms: C18_24  and  C19_25 
ROOT
HETATM    1  O1  UNK     1      30.001 -11.046  33.240  1.00  0.00    -0.291 OA
HETATM    2  O2  UNK     1      29.884  -6.470  31.941  1.00  0.00    -0.291 OA
HETATM    3  C1  UNK     1      30.246  -8.911  32.024  1.00  0.00     0.119 A 
HETATM    4  C3  UNK     1      29.796  -9.849  33.152  1.00  0.00     0.181 A 
HETATM    5  C4  UNK     1      29.738  -7.543  32.497  1.00  0.00     0.181 A 
HETATM    6  C6  UNK     1      29.054  -9.063  34.142  1.00  0.00     0.025 A 
HETATM    7  C7  UNK     1      29.020  -7.726  33.761  1.00  0.00     0.025 A 
HETATM    8  C11 UNK     1      28.454  -9.503  35.306  1.00  0.00     0.016 A 
HETATM    9  C12 UNK     1      28.384  -6.769  34.528  1.00  0.00     0.016 A 
HETATM   10  C13 UNK     1      27.805  -8.549  36.094  1.00  0.00     0.001 A 
HETATM   11  C14 UNK     1      27.769  -7.195  35.709  1.00  0.00     0.001 A 
ENDROOT
BRANCH   3  12
HETATM   12  C2  UNK     1      31.765  -8.905  31.910  1.00  0.00     0.058 C 
BRANCH  12  13
HETATM   13  C8  UNK     1      32.429  -8.861  33.276  1.00  0.00     0.181 C 
BRANCH  13  14
HETATM   14  O3  UNK     1      32.849  -7.528  33.535  1.00  0.00    -0.317 OA
BRANCH  14  15
HETATM   15  C18 UNK     1      33.430  -7.318  34.748  1.00  0.00     0.299 C 
HETATM   16  O5  UNK     1      34.490  -7.771  35.151  1.00  0.00    -0.259 OA
BRANCH  15  17
HETATM   17  C19 UNK     1      32.572  -6.433  35.542  1.00  0.00     0.115 A 
HETATM   18  C20 UNK     1      31.789  -7.027  36.450  1.00  0.00     0.038 A 
HETATM   19  C21 UNK     1      30.903  -6.233  37.286  1.00  0.00    -0.001 A 
HETATM   20  C23 UNK     1      30.884  -4.852  37.124  1.00  0.00     0.089 A 
HETATM   21  C24 UNK     1      30.068  -6.811  38.247  1.00  0.00     0.014 A 
HETATM   22  O4  UNK     1      31.710  -4.232  36.167  1.00  0.00    -0.274 OA
HETATM   23  C25 UNK     1      30.057  -4.033  37.893  1.00  0.00     0.038 A 
HETATM   24  C22 UNK     1      32.569  -4.965  35.353  1.00  0.00     0.304 A 
HETATM   25  O6  UNK     1      33.284  -4.418  34.521  1.00  0.00    -0.259 OA
HETATM   26  C27 UNK     1      29.229  -4.618  38.848  1.00  0.00     0.003 A 
HETATM   27  C26 UNK     1      29.234  -6.003  39.025  1.00  0.00     0.001 A 
ENDBRANCH  15  17
ENDBRANCH  14  15
ENDBRANCH  13  14
ENDBRANCH  12  13
ENDBRANCH   3  12
BRANCH   3  28
HETATM   28  C5  UNK     1      29.608  -9.295  30.730  1.00  0.00    -0.034 A 
HETATM   29  C10 UNK     1      28.298  -8.903  30.457  1.00  0.00     0.009 A 
HETATM   30  C16 UNK     1      27.701  -9.262  29.248  1.00  0.00     0.001 A 
HETATM   31  C17 UNK     1      28.415 -10.011  28.313  1.00  0.00     0.000 A 
HETATM   32  C15 UNK     1      29.726 -10.402  28.586  1.00  0.00     0.001 A 
HETATM   33  C9  UNK     1      30.322 -10.043  29.796  1.00  0.00     0.009 A 
ENDBRANCH   3  28
TORSDOF 6
ENDMDL
MODEL 7
REMARK VINA RESULT:      -9.7      5.473      8.942
REMARK  6 active torsions:
REMARK  status: ('A' for Active; 'I' for Inactive)
REMARK    1  A    between atoms: C18_24  and  O3_3 
REMARK    2  A    between atoms: C8_14  and  O3_3 
REMARK    3  A    between atoms: C1_7  and  C2_8 
REMARK    4  A    between atoms: C1_7  and  C5_11 
REMARK    5  A    between atoms: C2_8  and  C8_14 
REMARK    6  A    between atoms: C18_24  and  C19_25 
ROOT
HETATM    1  O1  UNK     1      30.304  -9.321  35.934  1.00  0.00    -0.291 OA
HETATM    2  O2  UNK     1      29.423  -5.485  38.608  1.00  0.00    -0.291 OA
HETATM    3  C1  UNK     1      29.217  -7.538  37.252  1.00  0.00     0.119 A 
HETATM    4  C3  UNK     1      30.379  -8.333  36.642  1.00  0.00     0.181 A 
HETATM    5  C4  UNK     1      29.935  -6.400  37.990  1.00  0.00     0.181 A 
HETATM    6  C6  UNK     1      31.638  -7.708  37.056  1.00  0.00     0.025 A 
HETATM    7  C7  UNK     1      31.381  -6.587  37.838  1.00  0.00     0.025 A 
HETATM    8  C11 UNK     1      32.928  -8.102  36.754  1.00  0.00     0.016 A 
HETATM    9  C12 UNK     1      32.400  -5.810  38.353  1.00  0.00     0.016 A 
HETATM   10  C13 UNK     1      33.973  -7.329  37.268  1.00  0.00     0.001 A 
HETATM   11  C14 UNK     1      33.712  -6.194  38.060  1.00  0.00     0.001 A 
ENDROOT
BRANCH   3  12
HETATM   12  C2  UNK     1      28.320  -6.981  36.156  1.00  0.00     0.058 C 
BRANCH  12  13
HETATM   13  C8  UNK     1      28.339  -7.857  34.916  1.00  0.00     0.181 C 
BRANCH  13  14
HETATM   14  O3  UNK     1      28.534  -7.031  33.776  1.00  0.00    -0.317 OA
BRANCH  14  15
HETATM   15  C18 UNK     1      29.366  -7.528  32.821  1.00  0.00     0.299 C 
HETATM   16  O5  UNK     1      29.061  -8.203  31.850  1.00  0.00    -0.259 OA
BRANCH  15  17
HETATM   17  C19 UNK     1      30.743  -7.128  33.129  1.00  0.00     0.115 A 
HETATM   18  C20 UNK     1      30.888  -5.986  33.811  1.00  0.00     0.038 A 
HETATM   19  C21 UNK     1      32.215  -5.506  34.163  1.00  0.00    -0.001 A 
HETATM   20  C23 UNK     1      33.324  -6.252  33.778  1.00  0.00     0.089 A 
HETATM   21  C24 UNK     1      32.414  -4.320  34.874  1.00  0.00     0.014 A 
HETATM   22  O4  UNK     1      33.165  -7.453  33.060  1.00  0.00    -0.274 OA
HETATM   23  C25 UNK     1      34.623  -5.847  34.083  1.00  0.00     0.038 A 
HETATM   24  C22 UNK     1      31.908  -7.938  32.709  1.00  0.00     0.304 A 
HETATM   25  O6  UNK     1      31.779  -8.984  32.082  1.00  0.00    -0.259 OA
HETATM   26  C27 UNK     1      34.812  -4.663  34.793  1.00  0.00     0.003 A 
HETATM   27  C26 UNK     1      33.710  -3.901  35.188  1.00  0.00     0.001 A 
ENDBRANCH  15  17
ENDBRANCH  14  15
ENDBRANCH  13  14
ENDBRANCH  12  13
ENDBRANCH   3  12
BRANCH   3  28
HETATM   28  C5  UNK     1      28.442  -8.383  38.209  1.00  0.00    -0.034 A 
HETATM   29  C10 UNK     1      29.067  -9.442  38.866  1.00  0.00     0.009 A 
HETATM   30  C16 UNK     1      28.343 -10.232  39.760  1.00  0.00     0.001 A 
HETATM   31  C17 UNK     1      26.995  -9.961  39.996  1.00  0.00     0.000 A 
HETATM   32  C15 UNK     1      26.371  -8.901  39.339  1.00  0.00     0.001 A 
HETATM   33  C9  UNK     1      27.095  -8.112  38.445  1.00  0.00     0.009 A 
ENDBRANCH   3  28
TORSDOF 6
ENDMDL
MODEL 8
REMARK VINA RESULT:      -9.7      5.702     10.760
REMARK  6 active torsions:
REMARK  status: ('A' for Active; 'I' for Inactive)
REMARK    1  A    between atoms: C18_24  and  O3_3 
REMARK    2  A    between atoms: C8_14  and  O3_3 
REMARK    3  A    between atoms: C1_7  and  C2_8 
REMARK    4  A    between atoms: C1_7  and  C5_11 
REMARK    5  A    between atoms: C2_8  and  C8_14 
REMARK    6  A    between atoms: C18_24  and  C19_25 
ROOT
HETATM    1  O1  UNK     1      32.538  -9.314  35.794  1.00  0.00    -0.291 OA
HETATM    2  O2  UNK     1      33.545  -4.850  34.490  1.00  0.00    -0.291 OA
HETATM    3  C1  UNK     1      33.657  -7.153  35.371  1.00  0.00     0.119 A 
HETATM    4  C3  UNK     1      32.525  -8.189  35.328  1.00  0.00     0.181 A 
HETATM    5  C4  UNK     1      33.033  -5.939  34.672  1.00  0.00     0.181 A 
HETATM    6  C6  UNK     1      31.387  -7.603  34.615  1.00  0.00     0.025 A 
HETATM    7  C7  UNK     1      31.681  -6.299  34.234  1.00  0.00     0.025 A 
HETATM    8  C11 UNK     1      30.167  -8.186  34.329  1.00  0.00     0.016 A 
HETATM    9  C12 UNK     1      30.770  -5.518  33.550  1.00  0.00     0.016 A 
HETATM   10  C13 UNK     1      29.232  -7.412  33.635  1.00  0.00     0.001 A 
HETATM   11  C14 UNK     1      29.531  -6.091  33.249  1.00  0.00     0.001 A 
ENDROOT
BRANCH   3  12
HETATM   12  C2  UNK     1      34.014  -6.814  36.811  1.00  0.00     0.058 C 
BRANCH  12  13
HETATM   13  C8  UNK     1      33.716  -5.361  37.136  1.00  0.00     0.181 C 
BRANCH  13  14
HETATM   14  O3  UNK     1      32.693  -5.314  38.122  1.00  0.00    -0.317 OA
BRANCH  14  15
HETATM   15  C18 UNK     1      31.526  -4.731  37.735  1.00  0.00     0.299 C 
HETATM   16  O5  UNK     1      31.389  -3.722  37.061  1.00  0.00    -0.259 OA
BRANCH  15  17
HETATM   17  C19 UNK     1      30.403  -5.512  38.262  1.00  0.00     0.115 A 
HETATM   18  C20 UNK     1      30.296  -6.769  37.816  1.00  0.00     0.038 A 
HETATM   19  C21 UNK     1      29.213  -7.622  38.281  1.00  0.00    -0.001 A 
HETATM   20  C23 UNK     1      28.296  -7.108  39.192  1.00  0.00     0.089 A 
HETATM   21  C24 UNK     1      29.062  -8.940  37.843  1.00  0.00     0.014 A 
HETATM   22  O4  UNK     1      28.413  -5.784  39.657  1.00  0.00    -0.274 OA
HETATM   23  C25 UNK     1      27.235  -7.873  39.676  1.00  0.00     0.038 A 
HETATM   24  C22 UNK     1      29.438  -4.944  39.231  1.00  0.00     0.304 A 
HETATM   25  O6  UNK     1      29.533  -3.792  39.640  1.00  0.00    -0.259 OA
HETATM   26  C27 UNK     1      27.093  -9.186  39.234  1.00  0.00     0.003 A 
HETATM   27  C26 UNK     1      28.005  -9.719  38.320  1.00  0.00     0.001 A 
ENDBRANCH  15  17
ENDBRANCH  14  15
ENDBRANCH  13  14
ENDBRANCH  12  13
ENDBRANCH   3  12
BRANCH   3  28
HETATM   28  C5  UNK     1      34.850  -7.643  34.618  1.00  0.00    -0.034 A 
HETATM   29  C10 UNK     1      36.124  -7.191  34.962  1.00  0.00     0.009 A 
HETATM   30  C16 UNK     1      37.239  -7.649  34.259  1.00  0.00     0.001 A 
HETATM   31  C17 UNK     1      37.079  -8.557  33.212  1.00  0.00     0.000 A 
HETATM   32  C15 UNK     1      35.805  -9.008  32.869  1.00  0.00     0.001 A 
HETATM   33  C9  UNK     1      34.690  -8.551  33.572  1.00  0.00     0.009 A 
ENDBRANCH   3  28
TORSDOF 6
ENDMDL
MODEL 9
REMARK VINA RESULT:      -9.7      6.109      9.344
REMARK  6 active torsions:
REMARK  status: ('A' for Active; 'I' for Inactive)
REMARK    1  A    between atoms: C18_24  and  O3_3 
REMARK    2  A    between atoms: C8_14  and  O3_3 
REMARK    3  A    between atoms: C1_7  and  C2_8 
REMARK    4  A    between atoms: C1_7  and  C5_11 
REMARK    5  A    between atoms: C2_8  and  C8_14 
REMARK    6  A    between atoms: C18_24  and  C19_25 
ROOT
HETATM    1  O1  UNK     1      31.452 -10.186  32.995  1.00  0.00    -0.291 OA
HETATM    2  O2  UNK     1      30.636  -5.546  33.659  1.00  0.00    -0.291 OA
HETATM    3  C1  UNK     1      31.536  -7.719  32.911  1.00  0.00     0.119 A 
HETATM    4  C3  UNK     1      31.000  -9.101  33.311  1.00  0.00     0.181 A 
HETATM    5  C4  UNK     1      30.590  -6.762  33.646  1.00  0.00     0.181 A 
HETATM    6  C6  UNK     1      29.820  -8.913  34.160  1.00  0.00     0.025 A 
HETATM    7  C7  UNK     1      29.582  -7.557  34.354  1.00  0.00     0.025 A 
HETATM    8  C11 UNK     1      29.014  -9.881  34.729  1.00  0.00     0.016 A 
HETATM    9  C12 UNK     1      28.527  -7.107  35.124  1.00  0.00     0.016 A 
HETATM   10  C13 UNK     1      27.941  -9.445  35.511  1.00  0.00     0.001 A 
HETATM   11  C14 UNK     1      27.699  -8.071  35.707  1.00  0.00     0.001 A 
ENDROOT
BRANCH   3  12
HETATM   12  C2  UNK     1      32.965  -7.540  33.404  1.00  0.00     0.058 C 
BRANCH  12  13
HETATM   13  C8  UNK     1      33.120  -7.980  34.849  1.00  0.00     0.181 C 
BRANCH  13  14
HETATM   14  O3  UNK     1      33.154  -6.825  35.677  1.00  0.00    -0.317 OA
BRANCH  14  15
HETATM   15  C18 UNK     1      33.260  -7.058  37.013  1.00  0.00     0.299 C 
HETATM   16  O5  UNK     1      34.282  -7.246  37.655  1.00  0.00    -0.259 OA
BRANCH  15  17
HETATM   17  C19 UNK     1      31.919  -7.055  37.607  1.00  0.00     0.115 A 
HETATM   18  C20 UNK     1      31.371  -8.254  37.836  1.00  0.00     0.038 A 
HETATM   19  C21 UNK     1      30.044  -8.353  38.422  1.00  0.00    -0.001 A 
HETATM   20  C23 UNK     1      29.359  -7.184  38.738  1.00  0.00     0.089 A 
HETATM   21  C24 UNK     1      29.432  -9.583  38.678  1.00  0.00     0.014 A 
HETATM   22  O4  UNK     1      29.941  -5.925  38.495  1.00  0.00    -0.274 OA
HETATM   23  C25 UNK     1      28.084  -7.210  39.302  1.00  0.00     0.038 A 
HETATM   24  C22 UNK     1      31.209  -5.798  37.935  1.00  0.00     0.304 A 
HETATM   25  O6  UNK     1      31.708  -4.698  37.725  1.00  0.00    -0.259 OA
HETATM   26  C27 UNK     1      27.482  -8.441  39.554  1.00  0.00     0.003 A 
HETATM   27  C26 UNK     1      28.154  -9.625  39.244  1.00  0.00     0.001 A 
ENDBRANCH  15  17
ENDBRANCH  14  15
ENDBRANCH  13  14
ENDBRANCH  12  13
ENDBRANCH   3  12
BRANCH   3  28
HETATM   28  C5  UNK     1      31.444  -7.524  31.433  1.00  0.00    -0.034 A 
HETATM   29  C10 UNK     1      32.605  -7.364  30.679  1.00  0.00     0.009 A 
HETATM   30  C16 UNK     1      32.519  -7.182  29.298  1.00  0.00     0.001 A 
HETATM   31  C17 UNK     1      31.272  -7.161  28.673  1.00  0.00     0.000 A 
HETATM   32  C15 UNK     1      30.111  -7.322  29.429  1.00  0.00     0.001 A 
HETATM   33  C9  UNK     1      30.197  -7.504  30.810  1.00  0.00     0.009 A 
ENDBRANCH   3  28
TORSDOF 6
ENDMDL
MODEL 10
REMARK VINA RESULT:      -9.7      6.411     10.175
REMARK  6 active torsions:
REMARK  status: ('A' for Active; 'I' for Inactive)
REMARK    1  A    between atoms: C18_24  and  O3_3 
REMARK    2  A    between atoms: C8_14  and  O3_3 
REMARK    3  A    between atoms: C1_7  and  C2_8 
REMARK    4  A    between atoms: C1_7  and  C5_11 
REMARK    5  A    between atoms: C2_8  and  C8_14 
REMARK    6  A    between atoms: C18_24  and  C19_25 
ROOT
HETATM    1  O1  UNK     1      32.712  -8.060  38.298  1.00  0.00    -0.291 OA
HETATM    2  O2  UNK     1      29.518  -7.404  34.832  1.00  0.00    -0.291 OA
HETATM    3  C1  UNK     1      30.756  -8.235  36.800  1.00  0.00     0.119 A 
HETATM    4  C3  UNK     1      32.058  -7.643  37.359  1.00  0.00     0.181 A 
HETATM    5  C4  UNK     1      30.448  -7.313  35.613  1.00  0.00     0.181 A 
HETATM    6  C6  UNK     1      32.407  -6.459  36.570  1.00  0.00     0.025 A 
HETATM    7  C7  UNK     1      31.473  -6.268  35.557  1.00  0.00     0.025 A 
HETATM    8  C11 UNK     1      33.486  -5.611  36.733  1.00  0.00     0.016 A 
HETATM    9  C12 UNK     1      31.576  -5.220  34.663  1.00  0.00     0.016 A 
HETATM   10  C13 UNK     1      33.605  -4.544  35.839  1.00  0.00     0.001 A 
HETATM   11  C14 UNK     1      32.660  -4.349  34.814  1.00  0.00     0.001 A 
ENDROOT
BRANCH   3  12
HETATM   12  C2  UNK     1      30.982  -9.662  36.322  1.00  0.00     0.058 C 
BRANCH  12  13
HETATM   13  C8  UNK     1      32.056  -9.732  35.251  1.00  0.00     0.181 C 
BRANCH  13  14
HETATM   14  O3  UNK     1      31.540 -10.442  34.133  1.00  0.00    -0.317 OA
BRANCH  14  15
HETATM   15  C18 UNK     1      32.086 -10.126  32.928  1.00  0.00     0.299 C 
HETATM   16  O5  UNK     1      33.062 -10.637  32.399  1.00  0.00    -0.259 OA
BRANCH  15  17
HETATM   17  C19 UNK     1      31.312  -9.039  32.321  1.00  0.00     0.115 A 
HETATM   18  C20 UNK     1      30.050  -9.329  31.983  1.00  0.00     0.038 A 
HETATM   19  C21 UNK     1      29.203  -8.316  31.374  1.00  0.00    -0.001 A 
HETATM   20  C23 UNK     1      29.726  -7.047  31.151  1.00  0.00     0.089 A 
HETATM   21  C24 UNK     1      27.880  -8.574  31.005  1.00  0.00     0.014 A 
HETATM   22  O4  UNK     1      31.055  -6.747  31.509  1.00  0.00    -0.274 OA
HETATM   23  C25 UNK     1      28.968  -6.031  30.571  1.00  0.00     0.038 A 
HETATM   24  C22 UNK     1      31.890  -7.696  32.093  1.00  0.00     0.304 A 
HETATM   25  O6  UNK     1      33.046  -7.427  32.400  1.00  0.00    -0.259 OA
HETATM   26  C27 UNK     1      27.650  -6.297  30.206  1.00  0.00     0.003 A 
HETATM   27  C26 UNK     1      27.107  -7.566  30.423  1.00  0.00     0.001 A 
ENDBRANCH  15  17
ENDBRANCH  14  15
ENDBRANCH  13  14
ENDBRANCH  12  13
ENDBRANCH   3  12
BRANCH   3  28
HETATM   28  C5  UNK     1      29.666  -8.170  37.818  1.00  0.00    -0.034 A 
HETATM   29  C10 UNK     1      29.021  -9.338  38.222  1.00  0.00     0.009 A 
HETATM   30  C16 UNK     1      28.001  -9.278  39.174  1.00  0.00     0.001 A 
HETATM   31  C17 UNK     1      27.629  -8.049  39.719  1.00  0.00     0.000 A 
HETATM   32  C15 UNK     1      28.275  -6.881  39.314  1.00  0.00     0.001 A 
HETATM   33  C9  UNK     1      29.294  -6.942  38.363  1.00  0.00     0.009 A 
ENDBRANCH   3  28
TORSDOF 6
ENDMDL
