MODEL 1
REMARK VINA RESULT:      -6.6      0.000      0.000
REMARK  2 active torsions:
REMARK  status: ('A' for Active; 'I' for Inactive)
REMARK    1  A    between atoms: C10_13  and  O2_2 
REMARK    2  A    between atoms: C3_6  and  O2_2 
ROOT
HETATM    1  O1  UNK     1      19.271   1.398  28.787  1.00  0.00    -0.275 OA
HETATM    2  O3  UNK     1      18.203   3.418  28.700  1.00  0.00    -0.260 OA
HETATM    3  C1  UNK     1      19.379   0.176  30.905  1.00  0.00     0.032 A 
HETATM    4  C2  UNK     1      19.668   0.272  29.542  1.00  0.00     0.092 A 
HETATM    5  C3  UNK     1      18.659   1.293  31.528  1.00  0.00     0.087 A 
HETATM    6  C4  UNK     1      19.788  -0.986  31.572  1.00  0.00     0.024 A 
HETATM    7  C5  UNK     1      20.472  -2.001  30.890  1.00  0.00    -0.061 A 
HETATM    8  C6  UNK     1      20.349  -0.730  28.847  1.00  0.00     0.039 A 
HETATM    9  C7  UNK     1      20.754  -1.872  29.530  1.00  0.00     0.009 A 
HETATM   10  C8  UNK     1      18.279   2.344  30.795  1.00  0.00     0.120 A 
HETATM   11  C9  UNK     1      20.901  -3.227  31.622  1.00  0.00     0.048 C 
HETATM   12  C11 UNK     1      18.566   2.448  29.355  1.00  0.00     0.290 A 
ENDROOT
BRANCH   5  13
HETATM   13  O2  UNK     1      18.377   1.269  32.880  1.00  0.00    -0.350 OA
BRANCH  13  14
HETATM   14  C10 UNK     1      18.216   2.582  33.381  1.00  0.00     0.171 C 
HETATM   15  C12 UNK     1      18.440   2.567  34.878  1.00  0.00     0.034 C 
ENDBRANCH  13  14
ENDBRANCH   5  13
TORSDOF 2
ENDMDL
MODEL 2
REMARK VINA RESULT:      -6.5      1.768      2.182
REMARK  2 active torsions:
REMARK  status: ('A' for Active; 'I' for Inactive)
REMARK    1  A    between atoms: C10_13  and  O2_2 
REMARK    2  A    between atoms: C3_6  and  O2_2 
ROOT
HETATM    1  O1  UNK     1      18.570   2.731  30.693  1.00  0.00    -0.275 OA
HETATM    2  O3  UNK     1      17.594   4.363  31.965  1.00  0.00    -0.260 OA
HETATM    3  C1  UNK     1      19.124   0.575  31.709  1.00  0.00     0.032 A 
HETATM    4  C2  UNK     1      19.087   1.421  30.597  1.00  0.00     0.092 A 
HETATM    5  C3  UNK     1      18.618   1.101  32.981  1.00  0.00     0.087 A 
HETATM    6  C4  UNK     1      19.632  -0.717  31.520  1.00  0.00     0.024 A 
HETATM    7  C5  UNK     1      20.093  -1.130  30.263  1.00  0.00    -0.061 A 
HETATM    8  C6  UNK     1      19.544   1.025  29.338  1.00  0.00     0.039 A 
HETATM    9  C7  UNK     1      20.052  -0.259  29.175  1.00  0.00     0.009 A 
HETATM   10  C8  UNK     1      18.119   2.339  33.049  1.00  0.00     0.120 A 
HETATM   11  C9  UNK     1      20.633  -2.509  30.087  1.00  0.00     0.048 C 
HETATM   12  C11 UNK     1      18.062   3.233  31.881  1.00  0.00     0.290 A 
ENDROOT
BRANCH   5  13
HETATM   13  O2  UNK     1      18.662   0.322  34.121  1.00  0.00    -0.350 OA
BRANCH  13  14
HETATM   14  C10 UNK     1      17.490   0.497  34.892  1.00  0.00     0.171 C 
HETATM   15  C12 UNK     1      16.616  -0.731  34.745  1.00  0.00     0.034 C 
ENDBRANCH  13  14
ENDBRANCH   5  13
TORSDOF 2
ENDMDL
MODEL 3
REMARK VINA RESULT:      -6.5     12.621     14.461
REMARK  2 active torsions:
REMARK  status: ('A' for Active; 'I' for Inactive)
REMARK    1  A    between atoms: C10_13  and  O2_2 
REMARK    2  A    between atoms: C3_6  and  O2_2 
ROOT
HETATM    1  O1  UNK     1      19.388   1.207  15.068  1.00  0.00    -0.275 OA
HETATM    2  O3  UNK     1      19.524   3.240  16.107  1.00  0.00    -0.260 OA
HETATM    3  C1  UNK     1      18.905  -0.797  16.388  1.00  0.00     0.032 A 
HETATM    4  C2  UNK     1      19.162  -0.184  15.158  1.00  0.00     0.092 A 
HETATM    5  C3  UNK     1      18.890   0.055  17.582  1.00  0.00     0.087 A 
HETATM    6  C4  UNK     1      18.670  -2.178  16.384  1.00  0.00     0.024 A 
HETATM    7  C5  UNK     1      18.706  -2.908  15.189  1.00  0.00    -0.061 A 
HETATM    8  C6  UNK     1      19.203  -0.898  13.959  1.00  0.00     0.039 A 
HETATM    9  C7  UNK     1      18.974  -2.270  13.979  1.00  0.00     0.009 A 
HETATM   10  C8  UNK     1      19.091   1.372  17.475  1.00  0.00     0.120 A 
HETATM   11  C9  UNK     1      18.455  -4.378  15.210  1.00  0.00     0.048 C 
HETATM   12  C11 UNK     1      19.349   2.029  16.183  1.00  0.00     0.290 A 
ENDROOT
BRANCH   5  13
HETATM   13  O2  UNK     1      18.676  -0.501  18.828  1.00  0.00    -0.350 OA
BRANCH  13  14
HETATM   14  C10 UNK     1      18.482   0.508  19.800  1.00  0.00     0.171 C 
HETATM   15  C12 UNK     1      19.500   0.327  20.906  1.00  0.00     0.034 C 
ENDBRANCH  13  14
ENDBRANCH   5  13
TORSDOF 2
ENDMDL
MODEL 4
REMARK VINA RESULT:      -6.4      8.094     10.259
REMARK  2 active torsions:
REMARK  status: ('A' for Active; 'I' for Inactive)
REMARK    1  A    between atoms: C10_13  and  O2_2 
REMARK    2  A    between atoms: C3_6  and  O2_2 
ROOT
HETATM    1  O1  UNK     1      21.206  -8.603  34.291  1.00  0.00    -0.275 OA
HETATM    2  O3  UNK     1      21.118  -7.133  32.541  1.00  0.00    -0.260 OA
HETATM    3  C1  UNK     1      20.111  -8.035  36.405  1.00  0.00     0.032 A 
HETATM    4  C2  UNK     1      20.850  -8.924  35.620  1.00  0.00     0.092 A 
HETATM    5  C3  UNK     1      19.729  -6.752  35.804  1.00  0.00     0.087 A 
HETATM    6  C4  UNK     1      19.781  -8.443  37.704  1.00  0.00     0.024 A 
HETATM    7  C5  UNK     1      20.193  -9.691  38.190  1.00  0.00    -0.061 A 
HETATM    8  C6  UNK     1      21.269 -10.170  36.089  1.00  0.00     0.039 A 
HETATM    9  C7  UNK     1      20.938 -10.552  37.385  1.00  0.00     0.009 A 
HETATM   10  C8  UNK     1      20.062  -6.473  34.541  1.00  0.00     0.120 A 
HETATM   11  C9  UNK     1      19.833 -10.101  39.578  1.00  0.00     0.048 C 
HETATM   12  C11 UNK     1      20.828  -7.408  33.700  1.00  0.00     0.290 A 
ENDROOT
BRANCH   5  13
HETATM   13  O2  UNK     1      19.028  -5.821  36.545  1.00  0.00    -0.350 OA
BRANCH  13  14
HETATM   14  C10 UNK     1      19.702  -4.578  36.551  1.00  0.00     0.171 C 
HETATM   15  C12 UNK     1      20.766  -4.600  37.627  1.00  0.00     0.034 C 
ENDBRANCH  13  14
ENDBRANCH   5  13
TORSDOF 2
ENDMDL
MODEL 5
REMARK VINA RESULT:      -6.4      2.457      4.251
REMARK  2 active torsions:
REMARK  status: ('A' for Active; 'I' for Inactive)
REMARK    1  A    between atoms: C10_13  and  O2_2 
REMARK    2  A    between atoms: C3_6  and  O2_2 
ROOT
HETATM    1  O1  UNK     1      20.666  -2.031  31.634  1.00  0.00    -0.275 OA
HETATM    2  O3  UNK     1      20.918  -3.323  33.505  1.00  0.00    -0.260 OA
HETATM    3  C1  UNK     1      19.121  -0.134  31.674  1.00  0.00     0.032 A 
HETATM    4  C2  UNK     1      20.058  -0.924  31.003  1.00  0.00     0.092 A 
HETATM    5  C3  UNK     1      18.784  -0.502  33.054  1.00  0.00     0.087 A 
HETATM    6  C4  UNK     1      18.585   0.959  30.981  1.00  0.00     0.024 A 
HETATM    7  C5  UNK     1      18.970   1.231  29.662  1.00  0.00    -0.061 A 
HETATM    8  C6  UNK     1      20.452  -0.668  29.688  1.00  0.00     0.039 A 
HETATM    9  C7  UNK     1      19.900   0.418  29.016  1.00  0.00     0.009 A 
HETATM   10  C8  UNK     1      19.381  -1.544  33.639  1.00  0.00     0.120 A 
HETATM   11  C9  UNK     1      18.382   2.398  28.943  1.00  0.00     0.048 C 
HETATM   12  C11 UNK     1      20.379  -2.375  32.946  1.00  0.00     0.290 A 
ENDROOT
BRANCH   5  13
HETATM   13  O2  UNK     1      17.839   0.223  33.754  1.00  0.00    -0.350 OA
BRANCH  13  14
HETATM   14  C10 UNK     1      17.175  -0.598  34.694  1.00  0.00     0.171 C 
HETATM   15  C12 UNK     1      15.915   0.104  35.157  1.00  0.00     0.034 C 
ENDBRANCH  13  14
ENDBRANCH   5  13
TORSDOF 2
ENDMDL
MODEL 6
REMARK VINA RESULT:      -6.4     12.629     14.867
REMARK  2 active torsions:
REMARK  status: ('A' for Active; 'I' for Inactive)
REMARK    1  A    between atoms: C10_13  and  O2_2 
REMARK    2  A    between atoms: C3_6  and  O2_2 
ROOT
HETATM    1  O1  UNK     1      28.051  -4.850  38.786  1.00  0.00    -0.275 OA
HETATM    2  O3  UNK     1      25.768  -4.959  38.874  1.00  0.00    -0.260 OA
HETATM    3  C1  UNK     1      29.344  -6.883  38.357  1.00  0.00     0.032 A 
HETATM    4  C2  UNK     1      29.286  -5.508  38.596  1.00  0.00     0.092 A 
HETATM    5  C3  UNK     1      28.076  -7.622  38.323  1.00  0.00     0.087 A 
HETATM    6  C4  UNK     1      30.609  -7.451  38.156  1.00  0.00     0.024 A 
HETATM    7  C5  UNK     1      31.765  -6.662  38.207  1.00  0.00    -0.061 A 
HETATM    8  C6  UNK     1      30.429  -4.707  38.651  1.00  0.00     0.039 A 
HETATM    9  C7  UNK     1      31.676  -5.293  38.456  1.00  0.00     0.009 A 
HETATM   10  C8  UNK     1      26.917  -6.980  38.491  1.00  0.00     0.120 A 
HETATM   11  C9  UNK     1      33.101  -7.289  37.993  1.00  0.00     0.048 C 
HETATM   12  C11 UNK     1      26.844  -5.529  38.729  1.00  0.00     0.290 A 
ENDROOT
BRANCH   5  13
HETATM   13  O2  UNK     1      28.075  -8.989  38.126  1.00  0.00    -0.350 OA
BRANCH  13  14
HETATM   14  C10 UNK     1      27.149  -9.618  38.990  1.00  0.00     0.171 C 
HETATM   15  C12 UNK     1      27.882 -10.112  40.220  1.00  0.00     0.034 C 
ENDBRANCH  13  14
ENDBRANCH   5  13
TORSDOF 2
ENDMDL
MODEL 7
REMARK VINA RESULT:      -6.3      2.672      5.144
REMARK  2 active torsions:
REMARK  status: ('A' for Active; 'I' for Inactive)
REMARK    1  A    between atoms: C10_13  and  O2_2 
REMARK    2  A    between atoms: C3_6  and  O2_2 
ROOT
HETATM    1  O1  UNK     1      18.653   3.780  28.986  1.00  0.00    -0.275 OA
HETATM    2  O3  UNK     1      18.166   1.777  27.994  1.00  0.00    -0.260 OA
HETATM    3  C1  UNK     1      18.567   3.974  31.424  1.00  0.00     0.032 A 
HETATM    4  C2  UNK     1      18.804   4.538  30.168  1.00  0.00     0.092 A 
HETATM    5  C3  UNK     1      18.142   2.570  31.471  1.00  0.00     0.087 A 
HETATM    6  C4  UNK     1      18.764   4.791  32.545  1.00  0.00     0.024 A 
HETATM    7  C5  UNK     1      19.171   6.123  32.399  1.00  0.00    -0.061 A 
HETATM    8  C6  UNK     1      19.210   5.864  30.005  1.00  0.00     0.039 A 
HETATM    9  C7  UNK     1      19.392   6.660  31.131  1.00  0.00     0.009 A 
HETATM   10  C8  UNK     1      18.019   1.865  30.343  1.00  0.00     0.120 A 
HETATM   11  C9  UNK     1      19.371   6.974  33.608  1.00  0.00     0.048 C 
HETATM   12  C11 UNK     1      18.280   2.445  29.015  1.00  0.00     0.290 A 
ENDROOT
BRANCH   5  13
HETATM   13  O2  UNK     1      17.860   1.971  32.683  1.00  0.00    -0.350 OA
BRANCH  13  14
HETATM   14  C10 UNK     1      18.578   0.761  32.822  1.00  0.00     0.171 C 
HETATM   15  C12 UNK     1      18.172   0.095  34.120  1.00  0.00     0.034 C 
ENDBRANCH  13  14
ENDBRANCH   5  13
TORSDOF 2
ENDMDL
MODEL 8
REMARK VINA RESULT:      -6.3      5.754      8.709
REMARK  2 active torsions:
REMARK  status: ('A' for Active; 'I' for Inactive)
REMARK    1  A    between atoms: C10_13  and  O2_2 
REMARK    2  A    between atoms: C3_6  and  O2_2 
ROOT
HETATM    1  O1  UNK     1      15.535   8.281  32.751  1.00  0.00    -0.275 OA
HETATM    2  O3  UNK     1      14.105   6.804  31.748  1.00  0.00    -0.260 OA
HETATM    3  C1  UNK     1      17.869   7.644  33.120  1.00  0.00     0.032 A 
HETATM    4  C2  UNK     1      16.835   8.579  33.214  1.00  0.00     0.092 A 
HETATM    5  C3  UNK     1      17.552   6.337  32.534  1.00  0.00     0.087 A 
HETATM    6  C4  UNK     1      19.134   8.032  33.582  1.00  0.00     0.024 A 
HETATM    7  C5  UNK     1      19.339   9.306  34.127  1.00  0.00    -0.061 A 
HETATM    8  C6  UNK     1      17.023   9.853  33.755  1.00  0.00     0.039 A 
HETATM    9  C7  UNK     1      18.285  10.214  34.215  1.00  0.00     0.009 A 
HETATM   10  C8  UNK     1      16.320   6.078  32.089  1.00  0.00     0.120 A 
HETATM   11  C9  UNK     1      20.694   9.694  34.615  1.00  0.00     0.048 C 
HETATM   12  C11 UNK     1      15.227   7.061  32.170  1.00  0.00     0.290 A 
ENDROOT
BRANCH   5  13
HETATM   13  O2  UNK     1      18.526   5.361  32.448  1.00  0.00    -0.350 OA
BRANCH  13  14
HETATM   14  C10 UNK     1      18.727   4.972  31.104  1.00  0.00     0.171 C 
HETATM   15  C12 UNK     1      19.858   5.791  30.518  1.00  0.00     0.034 C 
ENDBRANCH  13  14
ENDBRANCH   5  13
TORSDOF 2
ENDMDL
MODEL 9
REMARK VINA RESULT:      -6.3      6.111      9.007
REMARK  2 active torsions:
REMARK  status: ('A' for Active; 'I' for Inactive)
REMARK    1  A    between atoms: C10_13  and  O2_2 
REMARK    2  A    between atoms: C3_6  and  O2_2 
ROOT
HETATM    1  O1  UNK     1      18.646   9.587  34.141  1.00  0.00    -0.275 OA
HETATM    2  O3  UNK     1      20.869   9.557  34.684  1.00  0.00    -0.260 OA
HETATM    3  C1  UNK     1      17.649   7.655  33.018  1.00  0.00     0.032 A 
HETATM    4  C2  UNK     1      17.531   8.929  33.579  1.00  0.00     0.092 A 
HETATM    5  C3  UNK     1      18.977   7.030  33.024  1.00  0.00     0.087 A 
HETATM    6  C4  UNK     1      16.487   7.065  32.504  1.00  0.00     0.024 A 
HETATM    7  C5  UNK     1      15.261   7.743  32.545  1.00  0.00    -0.061 A 
HETATM    8  C6  UNK     1      16.317   9.618  33.627  1.00  0.00     0.039 A 
HETATM    9  C7  UNK     1      15.177   9.017  33.103  1.00  0.00     0.009 A 
HETATM   10  C8  UNK     1      20.018   7.662  33.573  1.00  0.00     0.120 A 
HETATM   11  C9  UNK     1      14.038   7.096  31.987  1.00  0.00     0.048 C 
HETATM   12  C11 UNK     1      19.901   8.999  34.179  1.00  0.00     0.290 A 
ENDROOT
BRANCH   5  13
HETATM   13  O2  UNK     1      19.161   5.786  32.452  1.00  0.00    -0.350 OA
BRANCH  13  14
HETATM   14  C10 UNK     1      20.088   5.858  31.386  1.00  0.00     0.171 C 
HETATM   15  C12 UNK     1      19.328   5.956  30.080  1.00  0.00     0.034 C 
ENDBRANCH  13  14
ENDBRANCH   5  13
TORSDOF 2
ENDMDL
MODEL 10
REMARK VINA RESULT:      -6.3      7.177      9.230
REMARK  2 active torsions:
REMARK  status: ('A' for Active; 'I' for Inactive)
REMARK    1  A    between atoms: C10_13  and  O2_2 
REMARK    2  A    between atoms: C3_6  and  O2_2 
ROOT
HETATM    1  O1  UNK     1      16.054   6.700  32.332  1.00  0.00    -0.275 OA
HETATM    2  O3  UNK     1      13.844   6.613  31.745  1.00  0.00    -0.260 OA
HETATM    3  C1  UNK     1      16.964   8.747  33.318  1.00  0.00     0.032 A 
HETATM    4  C2  UNK     1      17.129   7.428  32.885  1.00  0.00     0.092 A 
HETATM    5  C3  UNK     1      15.635   9.351  33.165  1.00  0.00     0.087 A 
HETATM    6  C4  UNK     1      18.078   9.387  33.876  1.00  0.00     0.024 A 
HETATM    7  C5  UNK     1      19.308   8.725  33.979  1.00  0.00    -0.061 A 
HETATM    8  C6  UNK     1      18.349   6.755  32.980  1.00  0.00     0.039 A 
HETATM    9  C7  UNK     1      19.444   7.413  33.530  1.00  0.00     0.009 A 
HETATM   10  C8  UNK     1      14.626   8.641  32.653  1.00  0.00     0.120 A 
HETATM   11  C9  UNK     1      20.481   9.430  34.574  1.00  0.00     0.048 C 
HETATM   12  C11 UNK     1      14.786   7.248  32.207  1.00  0.00     0.290 A 
ENDROOT
BRANCH   5  13
HETATM   13  O2  UNK     1      15.423  10.662  33.543  1.00  0.00    -0.350 OA
BRANCH  13  14
HETATM   14  C10 UNK     1      14.193  10.792  34.228  1.00  0.00     0.171 C 
HETATM   15  C12 UNK     1      14.443  10.664  35.716  1.00  0.00     0.034 C 
ENDBRANCH  13  14
ENDBRANCH   5  13
TORSDOF 2
ENDMDL
