MODEL 1
REMARK VINA RESULT:      -7.1      0.000      0.000
REMARK  3 active torsions:
REMARK  status: ('A' for Active; 'I' for Inactive)
REMARK    1  A    between atoms: C5_13  and  N1_6 
REMARK    2  A    between atoms: C9_17  and  N2_7 
REMARK    3  A    between atoms: C7_15  and  N3_8 
ROOT
HETATM    1  O1  UNK     1      28.396  -5.802  39.634  1.00  0.00    -0.273 OA
HETATM    2  O3  UNK     1      29.549  -3.841  39.801  1.00  0.00    -0.257 OA
HETATM    3  C5  UNK     1      30.432  -6.759  37.857  1.00  0.00     0.083 A 
HETATM    4  C6  UNK     1      29.262  -7.604  38.212  1.00  0.00     0.027 A 
HETATM    5  C7  UNK     1      30.460  -5.539  38.416  1.00  0.00     0.205 A 
HETATM    6  C8  UNK     1      28.291  -7.096  39.084  1.00  0.00     0.092 A 
HETATM    7  C10 UNK     1      29.050  -8.904  37.723  1.00  0.00     0.017 A 
HETATM    8  C11 UNK     1      29.460  -4.970  39.331  1.00  0.00     0.324 A 
HETATM    9  C12 UNK     1      27.163  -7.827  39.468  1.00  0.00     0.038 A 
HETATM   10  C13 UNK     1      27.923  -9.648  38.097  1.00  0.00     0.001 A 
HETATM   11  C14 UNK     1      26.981  -9.110  38.969  1.00  0.00     0.003 A 
ENDROOT
BRANCH   3  12
HETATM   12  N1  UNK     1      31.366  -7.281  37.010  1.00  0.00    -0.375 N 
HETATM   13  C1  UNK     1      31.247  -7.179  35.553  1.00  0.00     0.143 C 
HETATM   14  C3  UNK     1      32.545  -6.633  34.964  1.00  0.00     0.145 C 
HETATM   15  N2  UNK     1      33.695  -7.388  35.454  1.00  0.00    -0.356 N 
HETATM   16  C4  UNK     1      33.799  -7.536  36.903  1.00  0.00     0.145 C 
HETATM   17  C2  UNK     1      32.498  -8.081  37.487  1.00  0.00     0.143 C 
BRANCH  15  18
HETATM   18  C9  UNK     1      34.676  -7.857  34.599  1.00  0.00     0.350 C 
HETATM   19  O2  UNK     1      35.869  -7.575  34.607  1.00  0.00    -0.284 OA
ENDBRANCH  15  18
ENDBRANCH   3  12
BRANCH   5  20
HETATM   20  N3  UNK     1      31.570  -4.697  38.098  1.00  0.00    -0.107 N 
HETATM   21  O4  UNK     1      31.448  -3.956  37.115  1.00  0.00    -0.531 OA
HETATM   22  O5  UNK     1      32.563  -4.777  38.829  1.00  0.00    -0.531 OA
ENDBRANCH   5  20
TORSDOF 3
ENDMDL
MODEL 2
REMARK VINA RESULT:      -6.9      7.011      8.412
REMARK  3 active torsions:
REMARK  status: ('A' for Active; 'I' for Inactive)
REMARK    1  A    between atoms: C5_13  and  N1_6 
REMARK    2  A    between atoms: C9_17  and  N2_7 
REMARK    3  A    between atoms: C7_15  and  N3_8 
ROOT
HETATM    1  O1  UNK     1      27.601  -8.392  29.830  1.00  0.00    -0.273 OA
HETATM    2  O3  UNK     1      27.926  -9.956  28.201  1.00  0.00    -0.257 OA
HETATM    3  C5  UNK     1      30.438  -8.346  30.243  1.00  0.00     0.083 A 
HETATM    4  C6  UNK     1      29.529  -7.493  31.053  1.00  0.00     0.027 A 
HETATM    5  C7  UNK     1      29.842  -9.127  29.327  1.00  0.00     0.205 A 
HETATM    6  C8  UNK     1      28.150  -7.547  30.816  1.00  0.00     0.092 A 
HETATM    7  C10 UNK     1      29.960  -6.618  32.063  1.00  0.00     0.017 A 
HETATM    8  C11 UNK     1      28.400  -9.214  29.054  1.00  0.00     0.324 A 
HETATM    9  C12 UNK     1      27.230  -6.777  31.532  1.00  0.00     0.038 A 
HETATM   10  C13 UNK     1      29.050  -5.840  32.791  1.00  0.00     0.001 A 
HETATM   11  C14 UNK     1      27.686  -5.919  32.526  1.00  0.00     0.003 A 
ENDROOT
BRANCH   3  12
HETATM   12  N1  UNK     1      31.778  -8.269  30.489  1.00  0.00    -0.375 N 
HETATM   13  C1  UNK     1      32.429  -9.056  31.541  1.00  0.00     0.143 C 
HETATM   14  C3  UNK     1      33.641  -9.785  30.966  1.00  0.00     0.145 C 
HETATM   15  N2  UNK     1      34.507  -8.860  30.240  1.00  0.00    -0.356 N 
HETATM   16  C4  UNK     1      33.860  -8.037  29.222  1.00  0.00     0.145 C 
HETATM   17  C2  UNK     1      32.648  -7.311  29.802  1.00  0.00     0.143 C 
BRANCH  15  18
HETATM   18  C9  UNK     1      35.874  -8.832  30.443  1.00  0.00     0.350 C 
HETATM   19  O2  UNK     1      36.750  -9.208  29.673  1.00  0.00    -0.284 OA
ENDBRANCH  15  18
ENDBRANCH   3  12
BRANCH   5  20
HETATM   20  N3  UNK     1      30.684  -9.962  28.530  1.00  0.00    -0.107 N 
HETATM   21  O4  UNK     1      30.962 -11.077  28.987  1.00  0.00    -0.531 OA
HETATM   22  O5  UNK     1      31.068  -9.503  27.448  1.00  0.00    -0.531 OA
ENDBRANCH   5  20
TORSDOF 3
ENDMDL
MODEL 3
REMARK VINA RESULT:      -6.8     36.140     37.164
REMARK  3 active torsions:
REMARK  status: ('A' for Active; 'I' for Inactive)
REMARK    1  A    between atoms: C5_13  and  N1_6 
REMARK    2  A    between atoms: C9_17  and  N2_7 
REMARK    3  A    between atoms: C7_15  and  N3_8 
ROOT
HETATM    1  O1  UNK     1       9.136   8.094   8.849  1.00  0.00    -0.273 OA
HETATM    2  O3  UNK     1       9.135   9.432  10.697  1.00  0.00    -0.257 OA
HETATM    3  C5  UNK     1      12.002   8.083   8.954  1.00  0.00     0.083 A 
HETATM    4  C6  UNK     1      11.268   7.348   7.890  1.00  0.00     0.027 A 
HETATM    5  C7  UNK     1      11.237   8.742   9.839  1.00  0.00     0.205 A 
HETATM    6  C8  UNK     1       9.868   7.380   7.878  1.00  0.00     0.092 A 
HETATM    7  C10 UNK     1      11.889   6.608   6.871  1.00  0.00     0.017 A 
HETATM    8  C11 UNK     1       9.768   8.804   9.856  1.00  0.00     0.324 A 
HETATM    9  C12 UNK     1       9.105   6.715   6.914  1.00  0.00     0.038 A 
HETATM   10  C13 UNK     1      11.138   5.937   5.896  1.00  0.00     0.001 A 
HETATM   11  C14 UNK     1       9.747   5.990   5.918  1.00  0.00     0.003 A 
ENDROOT
BRANCH   3  12
HETATM   12  N1  UNK     1      13.365   8.029   8.947  1.00  0.00    -0.375 N 
HETATM   13  C1  UNK     1      14.186   9.055   8.298  1.00  0.00     0.143 C 
HETATM   14  C3  UNK     1      15.257   9.549   9.268  1.00  0.00     0.145 C 
HETATM   15  N2  UNK     1      15.989   8.427   9.849  1.00  0.00    -0.356 N 
HETATM   16  C4  UNK     1      15.178   7.375  10.457  1.00  0.00     0.145 C 
HETATM   17  C2  UNK     1      14.108   6.885   9.483  1.00  0.00     0.143 C 
BRANCH  15  18
HETATM   18  C9  UNK     1      17.370   8.407   9.902  1.00  0.00     0.350 C 
HETATM   19  O2  UNK     1      18.092   7.458  10.186  1.00  0.00    -0.284 OA
ENDBRANCH  15  18
ENDBRANCH   3  12
BRANCH   5  20
HETATM   20  N3  UNK     1      11.907   9.462  10.876  1.00  0.00    -0.107 N 
HETATM   21  O4  UNK     1      12.072  10.674  10.701  1.00  0.00    -0.531 OA
HETATM   22  O5  UNK     1      12.269   8.815  11.865  1.00  0.00    -0.531 OA
ENDBRANCH   5  20
TORSDOF 3
ENDMDL
MODEL 4
REMARK VINA RESULT:      -6.8     36.387     37.411
REMARK  3 active torsions:
REMARK  status: ('A' for Active; 'I' for Inactive)
REMARK    1  A    between atoms: C5_13  and  N1_6 
REMARK    2  A    between atoms: C9_17  and  N2_7 
REMARK    3  A    between atoms: C7_15  and  N3_8 
ROOT
HETATM    1  O1  UNK     1       8.833   7.488   8.577  1.00  0.00    -0.273 OA
HETATM    2  O3  UNK     1       9.013   5.733   7.131  1.00  0.00    -0.257 OA
HETATM    3  C5  UNK     1      11.697   7.578   8.703  1.00  0.00     0.083 A 
HETATM    4  C6  UNK     1      10.862   8.527   9.485  1.00  0.00     0.027 A 
HETATM    5  C7  UNK     1      11.022   6.691   7.953  1.00  0.00     0.205 A 
HETATM    6  C8  UNK     1       9.467   8.447   9.392  1.00  0.00     0.092 A 
HETATM    7  C10 UNK     1      11.381   9.520  10.333  1.00  0.00     0.017 A 
HETATM    8  C11 UNK     1       9.561   6.574   7.834  1.00  0.00     0.324 A 
HETATM    9  C12 UNK     1       8.613   9.303  10.094  1.00  0.00     0.038 A 
HETATM   10  C13 UNK     1      10.538  10.385  11.043  1.00  0.00     0.001 A 
HETATM   11  C14 UNK     1       9.156  10.277  10.924  1.00  0.00     0.003 A 
ENDROOT
BRANCH   3  12
HETATM   12  N1  UNK     1      13.053   7.681   8.806  1.00  0.00    -0.375 N 
HETATM   13  C1  UNK     1      13.845   8.529   7.911  1.00  0.00     0.143 C 
HETATM   14  C3  UNK     1      14.766   9.428   8.732  1.00  0.00     0.145 C 
HETATM   15  N2  UNK     1      15.528   8.644   9.700  1.00  0.00    -0.356 N 
HETATM   16  C4  UNK     1      14.753   7.760  10.566  1.00  0.00     0.145 C 
HETATM   17  C2  UNK     1      13.833   6.863   9.740  1.00  0.00     0.143 C 
BRANCH  15  18
HETATM   18  C9  UNK     1      16.894   8.800   9.850  1.00  0.00     0.350 C 
HETATM   19  O2  UNK     1      17.753   7.926   9.811  1.00  0.00    -0.284 OA
ENDBRANCH  15  18
ENDBRANCH   3  12
BRANCH   5  20
HETATM   20  N3  UNK     1      11.790   5.760   7.188  1.00  0.00    -0.107 N 
HETATM   21  O4  UNK     1      12.061   4.680   7.725  1.00  0.00    -0.531 OA
HETATM   22  O5  UNK     1      12.123   6.110   6.050  1.00  0.00    -0.531 OA
ENDBRANCH   5  20
TORSDOF 3
ENDMDL
MODEL 5
REMARK VINA RESULT:      -6.7     16.495     18.325
REMARK  3 active torsions:
REMARK  status: ('A' for Active; 'I' for Inactive)
REMARK    1  A    between atoms: C5_13  and  N1_6 
REMARK    2  A    between atoms: C9_17  and  N2_7 
REMARK    3  A    between atoms: C7_15  and  N3_8 
ROOT
HETATM    1  O1  UNK     1      18.482   1.863  31.417  1.00  0.00    -0.273 OA
HETATM    2  O3  UNK     1      18.775   2.884  29.398  1.00  0.00    -0.257 OA
HETATM    3  C5  UNK     1      18.523   4.454  32.645  1.00  0.00     0.083 A 
HETATM    4  C6  UNK     1      18.360   3.220  33.457  1.00  0.00     0.027 A 
HETATM    5  C7  UNK     1      18.653   4.266  31.322  1.00  0.00     0.205 A 
HETATM    6  C8  UNK     1      18.344   1.975  32.815  1.00  0.00     0.092 A 
HETATM    7  C10 UNK     1      18.219   3.208  34.855  1.00  0.00     0.017 A 
HETATM    8  C11 UNK     1      18.647   2.978  30.613  1.00  0.00     0.324 A 
HETATM    9  C12 UNK     1      18.193   0.770  33.506  1.00  0.00     0.038 A 
HETATM   10  C13 UNK     1      18.068   2.008  35.562  1.00  0.00     0.001 A 
HETATM   11  C14 UNK     1      18.055   0.790  34.889  1.00  0.00     0.003 A 
ENDROOT
BRANCH   3  12
HETATM   12  N1  UNK     1      18.528   5.653  33.295  1.00  0.00    -0.375 N 
HETATM   13  C1  UNK     1      19.750   6.235  33.858  1.00  0.00     0.143 C 
HETATM   14  C3  UNK     1      19.900   7.679  33.387  1.00  0.00     0.145 C 
HETATM   15  N2  UNK     1      18.672   8.433  33.624  1.00  0.00    -0.356 N 
HETATM   16  C4  UNK     1      17.442   7.840  33.108  1.00  0.00     0.145 C 
HETATM   17  C2  UNK     1      17.297   6.395  33.582  1.00  0.00     0.143 C 
BRANCH  15  18
HETATM   18  C9  UNK     1      18.687   9.680  34.222  1.00  0.00     0.350 C 
HETATM   19  O2  UNK     1      18.607  10.772  33.671  1.00  0.00    -0.284 OA
ENDBRANCH  15  18
ENDBRANCH   3  12
BRANCH   5  20
HETATM   20  N3  UNK     1      18.814   5.430  30.508  1.00  0.00    -0.107 N 
HETATM   21  O4  UNK     1      17.783   6.010  30.148  1.00  0.00    -0.531 OA
HETATM   22  O5  UNK     1      19.971   5.762  30.227  1.00  0.00    -0.531 OA
ENDBRANCH   5  20
TORSDOF 3
ENDMDL
MODEL 6
REMARK VINA RESULT:      -6.7      2.441      5.489
REMARK  3 active torsions:
REMARK  status: ('A' for Active; 'I' for Inactive)
REMARK    1  A    between atoms: C5_13  and  N1_6 
REMARK    2  A    between atoms: C9_17  and  N2_7 
REMARK    3  A    between atoms: C7_15  and  N3_8 
ROOT
HETATM    1  O1  UNK     1      31.391  -4.782  38.777  1.00  0.00    -0.273 OA
HETATM    2  O3  UNK     1      29.517  -3.835  39.670  1.00  0.00    -0.257 OA
HETATM    3  C5  UNK     1      29.813  -7.079  38.100  1.00  0.00     0.083 A 
HETATM    4  C6  UNK     1      31.265  -7.022  37.785  1.00  0.00     0.027 A 
HETATM    5  C7  UNK     1      29.310  -5.998  38.718  1.00  0.00     0.205 A 
HETATM    6  C8  UNK     1      31.996  -5.880  38.133  1.00  0.00     0.092 A 
HETATM    7  C10 UNK     1      31.975  -8.056  37.151  1.00  0.00     0.017 A 
HETATM    8  C11 UNK     1      30.045  -4.784  39.102  1.00  0.00     0.324 A 
HETATM    9  C12 UNK     1      33.362  -5.749  37.869  1.00  0.00     0.038 A 
HETATM   10  C13 UNK     1      33.345  -7.939  36.882  1.00  0.00     0.001 A 
HETATM   11  C14 UNK     1      34.038  -6.787  37.240  1.00  0.00     0.003 A 
ENDROOT
BRANCH   3  12
HETATM   12  N1  UNK     1      29.122  -8.200  37.745  1.00  0.00    -0.375 N 
HETATM   13  C1  UNK     1      29.037  -9.377  38.614  1.00  0.00     0.143 C 
HETATM   14  C3  UNK     1      27.579  -9.801  38.770  1.00  0.00     0.145 C 
HETATM   15  N2  UNK     1      26.933  -9.928  37.467  1.00  0.00    -0.356 N 
HETATM   16  C4  UNK     1      27.052  -8.779  36.574  1.00  0.00     0.145 C 
HETATM   17  C2  UNK     1      28.512  -8.359  36.422  1.00  0.00     0.143 C 
BRANCH  15  18
HETATM   18  C9  UNK     1      26.177 -11.037  37.134  1.00  0.00     0.350 C 
HETATM   19  O2  UNK     1      25.595 -11.254  36.077  1.00  0.00    -0.284 OA
ENDBRANCH  15  18
ENDBRANCH   3  12
BRANCH   5  20
HETATM   20  N3  UNK     1      27.917  -6.015  39.039  1.00  0.00    -0.107 N 
HETATM   21  O4  UNK     1      27.600  -6.494  40.133  1.00  0.00    -0.531 OA
HETATM   22  O5  UNK     1      27.141  -5.552  38.196  1.00  0.00    -0.531 OA
ENDBRANCH   5  20
TORSDOF 3
ENDMDL
MODEL 7
REMARK VINA RESULT:      -6.6      2.944      4.843
REMARK  3 active torsions:
REMARK  status: ('A' for Active; 'I' for Inactive)
REMARK    1  A    between atoms: C5_13  and  N1_6 
REMARK    2  A    between atoms: C9_17  and  N2_7 
REMARK    3  A    between atoms: C7_15  and  N3_8 
ROOT
HETATM    1  O1  UNK     1      30.530  -3.729  38.126  1.00  0.00    -0.273 OA
HETATM    2  O3  UNK     1      28.879  -4.000  39.677  1.00  0.00    -0.257 OA
HETATM    3  C5  UNK     1      29.599  -6.113  36.832  1.00  0.00     0.083 A 
HETATM    4  C6  UNK     1      30.765  -5.356  36.305  1.00  0.00     0.027 A 
HETATM    5  C7  UNK     1      29.031  -5.608  37.940  1.00  0.00     0.205 A 
HETATM    6  C8  UNK     1      31.184  -4.197  36.968  1.00  0.00     0.092 A 
HETATM    7  C10 UNK     1      31.496  -5.729  35.165  1.00  0.00     0.017 A 
HETATM    8  C11 UNK     1      29.445  -4.399  38.666  1.00  0.00     0.324 A 
HETATM    9  C12 UNK     1      32.269  -3.429  36.535  1.00  0.00     0.038 A 
HETATM   10  C13 UNK     1      32.587  -4.970  34.719  1.00  0.00     0.001 A 
HETATM   11  C14 UNK     1      32.973  -3.821  35.403  1.00  0.00     0.003 A 
ENDROOT
BRANCH   3  12
HETATM   12  N1  UNK     1      29.207  -7.236  36.164  1.00  0.00    -0.375 N 
HETATM   13  C1  UNK     1      28.184  -7.207  35.115  1.00  0.00     0.143 C 
HETATM   14  C3  UNK     1      28.703  -7.915  33.866  1.00  0.00     0.145 C 
HETATM   15  N2  UNK     1      29.230  -9.235  34.200  1.00  0.00    -0.356 N 
HETATM   16  C4  UNK     1      30.216  -9.282  35.276  1.00  0.00     0.145 C 
HETATM   17  C2  UNK     1      29.693  -8.572  36.522  1.00  0.00     0.143 C 
BRANCH  15  18
HETATM   18  C9  UNK     1      28.883 -10.362  33.477  1.00  0.00     0.350 C 
HETATM   19  O2  UNK     1      29.593 -11.005  32.712  1.00  0.00    -0.284 OA
ENDBRANCH  15  18
ENDBRANCH   3  12
BRANCH   5  20
HETATM   20  N3  UNK     1      27.908  -6.310  38.478  1.00  0.00    -0.107 N 
HETATM   21  O4  UNK     1      28.142  -7.172  39.332  1.00  0.00    -0.531 OA
HETATM   22  O5  UNK     1      26.793  -5.998  38.046  1.00  0.00    -0.531 OA
ENDBRANCH   5  20
TORSDOF 3
ENDMDL
MODEL 8
REMARK VINA RESULT:      -6.6     34.961     36.203
REMARK  3 active torsions:
REMARK  status: ('A' for Active; 'I' for Inactive)
REMARK    1  A    between atoms: C5_13  and  N1_6 
REMARK    2  A    between atoms: C9_17  and  N2_7 
REMARK    3  A    between atoms: C7_15  and  N3_8 
ROOT
HETATM    1  O1  UNK     1      14.396   4.983   8.588  1.00  0.00    -0.273 OA
HETATM    2  O3  UNK     1      16.434   4.730   9.582  1.00  0.00    -0.257 OA
HETATM    3  C5  UNK     1      14.522   7.777   9.217  1.00  0.00     0.083 A 
HETATM    4  C6  UNK     1      13.348   7.200   8.511  1.00  0.00     0.027 A 
HETATM    5  C7  UNK     1      15.495   6.908   9.536  1.00  0.00     0.205 A 
HETATM    6  C8  UNK     1      13.330   5.829   8.223  1.00  0.00     0.092 A 
HETATM    7  C10 UNK     1      12.228   7.943   8.103  1.00  0.00     0.017 A 
HETATM    8  C11 UNK     1      15.509   5.465   9.256  1.00  0.00     0.324 A 
HETATM    9  C12 UNK     1      12.266   5.211   7.561  1.00  0.00     0.038 A 
HETATM   10  C13 UNK     1      11.154   7.337   7.439  1.00  0.00     0.001 A 
HETATM   11  C14 UNK     1      11.172   5.972   7.169  1.00  0.00     0.003 A 
ENDROOT
BRANCH   3  12
HETATM   12  N1  UNK     1      14.517   9.116   9.480  1.00  0.00    -0.375 N 
HETATM   13  C1  UNK     1      13.876   9.680  10.671  1.00  0.00     0.143 C 
HETATM   14  C3  UNK     1      14.851  10.607  11.393  1.00  0.00     0.145 C 
HETATM   15  N2  UNK     1      15.428  11.577  10.467  1.00  0.00    -0.356 N 
HETATM   16  C4  UNK     1      16.028  11.029   9.253  1.00  0.00     0.145 C 
HETATM   17  C2  UNK     1      15.050  10.102   8.535  1.00  0.00     0.143 C 
BRANCH  15  18
HETATM   18  C9  UNK     1      15.483  12.926  10.765  1.00  0.00     0.350 C 
HETATM   19  O2  UNK     1      15.399  13.866   9.984  1.00  0.00    -0.284 OA
ENDBRANCH  15  18
ENDBRANCH   3  12
BRANCH   5  20
HETATM   20  N3  UNK     1      16.639   7.426  10.218  1.00  0.00    -0.107 N 
HETATM   21  O4  UNK     1      17.612   7.739   9.523  1.00  0.00    -0.531 OA
HETATM   22  O5  UNK     1      16.564   7.519  11.449  1.00  0.00    -0.531 OA
ENDBRANCH   5  20
TORSDOF 3
ENDMDL
MODEL 9
REMARK VINA RESULT:      -6.5     35.214     36.613
REMARK  3 active torsions:
REMARK  status: ('A' for Active; 'I' for Inactive)
REMARK    1  A    between atoms: C5_13  and  N1_6 
REMARK    2  A    between atoms: C9_17  and  N2_7 
REMARK    3  A    between atoms: C7_15  and  N3_8 
ROOT
HETATM    1  O1  UNK     1      17.747   9.083   9.915  1.00  0.00    -0.273 OA
HETATM    2  O3  UNK     1      17.987   6.990  10.788  1.00  0.00    -0.257 OA
HETATM    3  C5  UNK     1      15.137   8.321   9.005  1.00  0.00     0.083 A 
HETATM    4  C6  UNK     1      15.677   9.681   8.742  1.00  0.00     0.027 A 
HETATM    5  C7  UNK     1      15.950   7.493   9.681  1.00  0.00     0.205 A 
HETATM    6  C8  UNK     1      16.956  10.011   9.207  1.00  0.00     0.092 A 
HETATM    7  C10 UNK     1      14.983  10.684   8.044  1.00  0.00     0.017 A 
HETATM    8  C11 UNK     1      17.298   7.801  10.180  1.00  0.00     0.324 A 
HETATM    9  C12 UNK     1      17.534  11.267   9.003  1.00  0.00     0.038 A 
HETATM   10  C13 UNK     1      15.549  11.948   7.831  1.00  0.00     0.001 A 
HETATM   11  C14 UNK     1      16.823  12.239   8.310  1.00  0.00     0.003 A 
ENDROOT
BRANCH   3  12
HETATM   12  N1  UNK     1      13.885   8.028   8.547  1.00  0.00    -0.375 N 
HETATM   13  C1  UNK     1      13.657   7.346   7.270  1.00  0.00     0.143 C 
HETATM   14  C3  UNK     1      12.719   6.160   7.478  1.00  0.00     0.145 C 
HETATM   15  N2  UNK     1      11.518   6.568   8.202  1.00  0.00    -0.356 N 
HETATM   16  C4  UNK     1      11.734   7.291   9.452  1.00  0.00     0.145 C 
HETATM   17  C2  UNK     1      12.673   8.475   9.239  1.00  0.00     0.143 C 
BRANCH  15  18
HETATM   18  C9  UNK     1      10.252   6.212   7.773  1.00  0.00     0.350 C 
HETATM   19  O2  UNK     1       9.942   5.715   6.696  1.00  0.00    -0.284 OA
ENDBRANCH  15  18
ENDBRANCH   3  12
BRANCH   5  20
HETATM   20  N3  UNK     1      15.466   6.176   9.951  1.00  0.00    -0.107 N 
HETATM   21  O4  UNK     1      15.812   5.281   9.172  1.00  0.00    -0.531 OA
HETATM   22  O5  UNK     1      14.740   6.037  10.942  1.00  0.00    -0.531 OA
ENDBRANCH   5  20
TORSDOF 3
ENDMDL
MODEL 10
REMARK VINA RESULT:      -6.5      2.738      5.704
REMARK  3 active torsions:
REMARK  status: ('A' for Active; 'I' for Inactive)
REMARK    1  A    between atoms: C5_13  and  N1_6 
REMARK    2  A    between atoms: C9_17  and  N2_7 
REMARK    3  A    between atoms: C7_15  and  N3_8 
ROOT
HETATM    1  O1  UNK     1      31.749  -5.271  33.995  1.00  0.00    -0.273 OA
HETATM    2  O3  UNK     1      33.394  -5.291  35.575  1.00  0.00    -0.257 OA
HETATM    3  C5  UNK     1      30.046  -6.626  35.862  1.00  0.00     0.083 A 
HETATM    4  C6  UNK     1      29.568  -6.277  34.499  1.00  0.00     0.027 A 
HETATM    5  C7  UNK     1      31.310  -6.271  36.144  1.00  0.00     0.205 A 
HETATM    6  C8  UNK     1      30.434  -5.614  33.620  1.00  0.00     0.092 A 
HETATM    7  C10 UNK     1      28.283  -6.572  34.013  1.00  0.00     0.017 A 
HETATM    8  C11 UNK     1      32.249  -5.580  35.248  1.00  0.00     0.324 A 
HETATM    9  C12 UNK     1      30.061  -5.250  32.323  1.00  0.00     0.038 A 
HETATM   10  C13 UNK     1      27.895  -6.214  32.716  1.00  0.00     0.001 A 
HETATM   11  C14 UNK     1      28.782  -5.554  31.871  1.00  0.00     0.003 A 
ENDROOT
BRANCH   3  12
HETATM   12  N1  UNK     1      29.181  -7.266  36.701  1.00  0.00    -0.375 N 
HETATM   13  C1  UNK     1      29.033  -8.724  36.711  1.00  0.00     0.143 C 
HETATM   14  C3  UNK     1      29.155  -9.246  38.141  1.00  0.00     0.145 C 
HETATM   15  N2  UNK     1      28.268  -8.513  39.039  1.00  0.00    -0.356 N 
HETATM   16  C4  UNK     1      28.374  -7.057  39.003  1.00  0.00     0.145 C 
HETATM   17  C2  UNK     1      28.251  -6.540  37.571  1.00  0.00     0.143 C 
BRANCH  15  18
HETATM   18  C9  UNK     1      27.441  -9.163  39.936  1.00  0.00     0.350 C 
HETATM   19  O2  UNK     1      27.007 -10.307  39.857  1.00  0.00    -0.284 OA
ENDBRANCH  15  18
ENDBRANCH   3  12
BRANCH   5  20
HETATM   20  N3  UNK     1      31.806  -6.592  37.446  1.00  0.00    -0.107 N 
HETATM   21  O4  UNK     1      32.352  -7.692  37.583  1.00  0.00    -0.531 OA
HETATM   22  O5  UNK     1      31.649  -5.743  38.331  1.00  0.00    -0.531 OA
ENDBRANCH   5  20
TORSDOF 3
ENDMDL
