MODEL 1
REMARK VINA RESULT:      -7.4      0.000      0.000
REMARK  6 active torsions:
REMARK  status: ('A' for Active; 'I' for Inactive)
REMARK    1  A    between atoms: C13_18  and  O2_2 
REMARK       I    between atoms: C11_16  and  N1_5 
REMARK    2  A    between atoms: C12_17  and  N1_5 
REMARK    3  A    between atoms: C3_8  and  C6_11 
REMARK    4  A    between atoms: C11_16  and  C5_10 
REMARK    5  A    between atoms: C14_19  and  C6_11 
REMARK    6  A    between atoms: C12_17  and  C13_18 
ROOT
HETATM    1  O1  UNK     1      18.837   0.515  32.325  1.00  0.00    -0.273 OA
HETATM    2  O3  UNK     1      17.949   2.619  32.401  1.00  0.00    -0.259 OA
HETATM    3  C1  UNK     1      19.501  -0.491  31.597  1.00  0.00     0.096 A 
HETATM    4  C2  UNK     1      19.873  -0.277  30.274  1.00  0.00    -0.000 A 
HETATM    5  C3  UNK     1      19.767  -1.693  32.248  1.00  0.00    -0.020 A 
HETATM    6  C4  UNK     1      19.565   1.003  29.653  1.00  0.00     0.037 A 
HETATM    7  C5  UNK     1      18.933   1.955  30.350  1.00  0.00     0.108 A 
HETATM    8  C7  UNK     1      20.531  -1.299  29.584  1.00  0.00     0.014 A 
HETATM    9  C8  UNK     1      20.423  -2.708  31.554  1.00  0.00     0.010 A 
HETATM   10  C9  UNK     1      20.805  -2.511  30.225  1.00  0.00     0.002 A 
HETATM   11  C10 UNK     1      18.528   1.749  31.759  1.00  0.00     0.304 A 
ENDROOT
BRANCH   7  12
HETATM   12  C11 UNK     1      18.666   3.211  29.639  1.00  0.00     0.257 C 
HETATM   13  O4  UNK     1      18.022   3.218  28.591  1.00  0.00    -0.267 OA
HETATM   14  N1  UNK     1      19.207   4.314  30.273  1.00  0.00    -0.355 N 
HETATM   15  H9  UNK     1      19.708   4.206  31.150  1.00  0.00     0.162 HD
BRANCH  14  16
HETATM   16  C12 UNK     1      19.078   5.659  29.761  1.00  0.00     0.149 C 
BRANCH  16  17
HETATM   17  C13 UNK     1      18.400   6.574  30.764  1.00  0.00     0.186 C 
BRANCH  17  18
HETATM   18  O2  UNK     1      18.557   6.040  32.072  1.00  0.00    -0.394 OA
HETATM   19  C16 UNK     1      19.433   6.836  32.858  1.00  0.00     0.201 C 
ENDBRANCH  17  18
ENDBRANCH  16  17
ENDBRANCH  14  16
ENDBRANCH   7  12
BRANCH   5  20
HETATM   20  C6  UNK     1      19.364  -1.914  33.668  1.00  0.00     0.067 C 
BRANCH  20  21
HETATM   21  C14 UNK     1      20.473  -2.484  34.514  1.00  0.00    -0.032 C 
HETATM   22  C15 UNK     1      20.473  -2.486  35.852  1.00  0.00     0.007 C 
ENDBRANCH  20  21
ENDBRANCH   5  20
TORSDOF 6
ENDMDL
MODEL 2
REMARK VINA RESULT:      -7.4      2.923      6.190
REMARK  6 active torsions:
REMARK  status: ('A' for Active; 'I' for Inactive)
REMARK    1  A    between atoms: C13_18  and  O2_2 
REMARK       I    between atoms: C11_16  and  N1_5 
REMARK    2  A    between atoms: C12_17  and  N1_5 
REMARK    3  A    between atoms: C3_8  and  C6_11 
REMARK    4  A    between atoms: C11_16  and  C5_10 
REMARK    5  A    between atoms: C14_19  and  C6_11 
REMARK    6  A    between atoms: C12_17  and  C13_18 
ROOT
HETATM    1  O1  UNK     1      18.438   0.880  32.170  1.00  0.00    -0.273 OA
HETATM    2  O3  UNK     1      17.965   0.847  34.405  1.00  0.00    -0.259 OA
HETATM    3  C1  UNK     1      19.053   0.277  31.056  1.00  0.00     0.096 A 
HETATM    4  C2  UNK     1      19.750  -0.918  31.195  1.00  0.00    -0.000 A 
HETATM    5  C3  UNK     1      18.934   0.918  29.825  1.00  0.00    -0.020 A 
HETATM    6  C4  UNK     1      19.835  -1.536  32.510  1.00  0.00     0.037 A 
HETATM    7  C5  UNK     1      19.250  -0.957  33.565  1.00  0.00     0.108 A 
HETATM    8  C7  UNK     1      20.346  -1.487  30.066  1.00  0.00     0.014 A 
HETATM    9  C8  UNK     1      19.531   0.345  28.704  1.00  0.00     0.010 A 
HETATM   10  C9  UNK     1      20.235  -0.855  28.823  1.00  0.00     0.002 A 
HETATM   11  C10 UNK     1      18.502   0.314  33.441  1.00  0.00     0.304 A 
ENDROOT
BRANCH   7  12
HETATM   12  C11 UNK     1      19.391  -1.655  34.849  1.00  0.00     0.257 C 
HETATM   13  O4  UNK     1      20.469  -2.141  35.188  1.00  0.00    -0.267 OA
HETATM   14  N1  UNK     1      18.216  -1.687  35.576  1.00  0.00    -0.355 N 
HETATM   15  H9  UNK     1      17.379  -1.237  35.217  1.00  0.00     0.162 HD
BRANCH  14  16
HETATM   16  C12 UNK     1      18.107  -2.321  36.870  1.00  0.00     0.149 C 
BRANCH  16  17
HETATM   17  C13 UNK     1      17.895  -1.301  37.974  1.00  0.00     0.186 C 
BRANCH  17  18
HETATM   18  O2  UNK     1      17.139  -0.208  37.467  1.00  0.00    -0.394 OA
HETATM   19  C16 UNK     1      17.582   1.028  38.010  1.00  0.00     0.201 C 
ENDBRANCH  17  18
ENDBRANCH  16  17
ENDBRANCH  14  16
ENDBRANCH   7  12
BRANCH   5  20
HETATM   20  C6  UNK     1      18.183   2.200  29.686  1.00  0.00     0.067 C 
BRANCH  20  21
HETATM   21  C14 UNK     1      18.971   3.398  30.149  1.00  0.00    -0.032 C 
HETATM   22  C15 UNK     1      18.564   4.242  31.104  1.00  0.00     0.007 C 
ENDBRANCH  20  21
ENDBRANCH   5  20
TORSDOF 6
ENDMDL
MODEL 3
REMARK VINA RESULT:      -7.4      4.805      9.311
REMARK  6 active torsions:
REMARK  status: ('A' for Active; 'I' for Inactive)
REMARK    1  A    between atoms: C13_18  and  O2_2 
REMARK       I    between atoms: C11_16  and  N1_5 
REMARK    2  A    between atoms: C12_17  and  N1_5 
REMARK    3  A    between atoms: C3_8  and  C6_11 
REMARK    4  A    between atoms: C11_16  and  C5_10 
REMARK    5  A    between atoms: C14_19  and  C6_11 
REMARK    6  A    between atoms: C12_17  and  C13_18 
ROOT
HETATM    1  O1  UNK     1      19.375  -0.918  34.651  1.00  0.00    -0.273 OA
HETATM    2  O3  UNK     1      20.517  -2.719  33.831  1.00  0.00    -0.259 OA
HETATM    3  C1  UNK     1      18.688  -0.305  35.716  1.00  0.00     0.096 A 
HETATM    4  C2  UNK     1      18.534  -0.966  36.930  1.00  0.00    -0.000 A 
HETATM    5  C3  UNK     1      18.176   0.974  35.507  1.00  0.00    -0.020 A 
HETATM    6  C4  UNK     1      19.093  -2.300  37.082  1.00  0.00     0.037 A 
HETATM    7  C5  UNK     1      19.745  -2.878  36.065  1.00  0.00     0.108 A 
HETATM    8  C7  UNK     1      17.846  -0.325  37.965  1.00  0.00     0.014 A 
HETATM    9  C8  UNK     1      17.491   1.605  36.543  1.00  0.00     0.010 A 
HETATM   10  C9  UNK     1      17.327   0.958  37.770  1.00  0.00     0.002 A 
HETATM   11  C10 UNK     1      19.921  -2.193  34.765  1.00  0.00     0.304 A 
ENDROOT
BRANCH   7  12
HETATM   12  C11 UNK     1      20.273  -4.225  36.314  1.00  0.00     0.257 C 
HETATM   13  O4  UNK     1      21.184  -4.406  37.121  1.00  0.00    -0.267 OA
HETATM   14  N1  UNK     1      19.645  -5.197  35.559  1.00  0.00    -0.355 N 
HETATM   15  H9  UNK     1      18.886  -4.948  34.932  1.00  0.00     0.162 HD
BRANCH  14  16
HETATM   16  C12 UNK     1      19.995  -6.598  35.630  1.00  0.00     0.149 C 
BRANCH  16  17
HETATM   17  C13 UNK     1      20.198  -7.191  34.248  1.00  0.00     0.186 C 
BRANCH  17  18
HETATM   18  O2  UNK     1      21.279  -8.115  34.285  1.00  0.00    -0.394 OA
HETATM   19  C16 UNK     1      21.159  -9.013  35.379  1.00  0.00     0.201 C 
ENDBRANCH  17  18
ENDBRANCH  16  17
ENDBRANCH  14  16
ENDBRANCH   7  12
BRANCH   5  20
HETATM   20  C6  UNK     1      18.346   1.675  34.201  1.00  0.00     0.067 C 
BRANCH  20  21
HETATM   21  C14 UNK     1      18.302   3.176  34.327  1.00  0.00    -0.032 C 
HETATM   22  C15 UNK     1      18.223   4.015  33.288  1.00  0.00     0.007 C 
ENDBRANCH  20  21
ENDBRANCH   5  20
TORSDOF 6
ENDMDL
MODEL 4
REMARK VINA RESULT:      -7.3      2.461      4.108
REMARK  6 active torsions:
REMARK  status: ('A' for Active; 'I' for Inactive)
REMARK    1  A    between atoms: C13_18  and  O2_2 
REMARK       I    between atoms: C11_16  and  N1_5 
REMARK    2  A    between atoms: C12_17  and  N1_5 
REMARK    3  A    between atoms: C3_8  and  C6_11 
REMARK    4  A    between atoms: C11_16  and  C5_10 
REMARK    5  A    between atoms: C14_19  and  C6_11 
REMARK    6  A    between atoms: C12_17  and  C13_18 
ROOT
HETATM    1  O1  UNK     1      18.370   1.479  32.322  1.00  0.00    -0.273 OA
HETATM    2  O3  UNK     1      18.185   3.393  31.087  1.00  0.00    -0.259 OA
HETATM    3  C1  UNK     1      18.473   0.860  33.582  1.00  0.00     0.096 A 
HETATM    4  C2  UNK     1      18.480   1.622  34.746  1.00  0.00    -0.000 A 
HETATM    5  C3  UNK     1      18.565  -0.530  33.615  1.00  0.00    -0.020 A 
HETATM    6  C4  UNK     1      18.381   3.069  34.640  1.00  0.00     0.037 A 
HETATM    7  C5  UNK     1      18.284   3.653  33.440  1.00  0.00     0.108 A 
HETATM    8  C7  UNK     1      18.583   0.971  35.978  1.00  0.00     0.014 A 
HETATM    9  C8  UNK     1      18.668  -1.172  34.847  1.00  0.00     0.010 A 
HETATM   10  C9  UNK     1      18.677  -0.424  36.027  1.00  0.00     0.002 A 
HETATM   11  C10 UNK     1      18.273   2.862  32.189  1.00  0.00     0.304 A 
ENDROOT
BRANCH   7  12
HETATM   12  C11 UNK     1      18.188   5.118  33.435  1.00  0.00     0.257 C 
HETATM   13  O4  UNK     1      19.085   5.810  33.914  1.00  0.00    -0.267 OA
HETATM   14  N1  UNK     1      17.021   5.579  32.856  1.00  0.00    -0.355 N 
HETATM   15  H9  UNK     1      16.348   4.924  32.470  1.00  0.00     0.162 HD
BRANCH  14  16
HETATM   16  C12 UNK     1      16.701   6.983  32.739  1.00  0.00     0.149 C 
BRANCH  16  17
HETATM   17  C13 UNK     1      16.947   7.495  31.331  1.00  0.00     0.186 C 
BRANCH  17  18
HETATM   18  O2  UNK     1      16.024   8.536  31.039  1.00  0.00    -0.394 OA
HETATM   19  C16 UNK     1      15.368   8.995  32.213  1.00  0.00     0.201 C 
ENDBRANCH  17  18
ENDBRANCH  16  17
ENDBRANCH  14  16
ENDBRANCH   7  12
BRANCH   5  20
HETATM   20  C6  UNK     1      18.556  -1.339  32.361  1.00  0.00     0.067 C 
BRANCH  20  21
HETATM   21  C14 UNK     1      19.938  -1.638  31.842  1.00  0.00    -0.032 C 
HETATM   22  C15 UNK     1      20.547  -0.939  30.877  1.00  0.00     0.007 C 
ENDBRANCH  20  21
ENDBRANCH   5  20
TORSDOF 6
ENDMDL
MODEL 5
REMARK VINA RESULT:      -7.3      6.247      9.655
REMARK  6 active torsions:
REMARK  status: ('A' for Active; 'I' for Inactive)
REMARK    1  A    between atoms: C13_18  and  O2_2 
REMARK       I    between atoms: C11_16  and  N1_5 
REMARK    2  A    between atoms: C12_17  and  N1_5 
REMARK    3  A    between atoms: C3_8  and  C6_11 
REMARK    4  A    between atoms: C11_16  and  C5_10 
REMARK    5  A    between atoms: C14_19  and  C6_11 
REMARK    6  A    between atoms: C12_17  and  C13_18 
ROOT
HETATM    1  O1  UNK     1      19.098  -7.234  37.710  1.00  0.00    -0.273 OA
HETATM    2  O3  UNK     1      17.770  -5.875  36.441  1.00  0.00    -0.259 OA
HETATM    3  C1  UNK     1      20.305  -7.435  38.406  1.00  0.00     0.096 A 
HETATM    4  C2  UNK     1      21.269  -6.433  38.453  1.00  0.00    -0.000 A 
HETATM    5  C3  UNK     1      20.490  -8.662  39.040  1.00  0.00    -0.020 A 
HETATM    6  C4  UNK     1      21.012  -5.175  37.770  1.00  0.00     0.037 A 
HETATM    7  C5  UNK     1      19.863  -4.990  37.108  1.00  0.00     0.108 A 
HETATM    8  C7  UNK     1      22.454  -6.670  39.155  1.00  0.00     0.014 A 
HETATM    9  C8  UNK     1      21.674  -8.890  39.738  1.00  0.00     0.010 A 
HETATM   10  C9  UNK     1      22.654  -7.897  39.796  1.00  0.00     0.002 A 
HETATM   11  C10 UNK     1      18.823  -6.041  37.046  1.00  0.00     0.304 A 
ENDROOT
BRANCH   7  12
HETATM   12  C11 UNK     1      19.695  -3.688  36.451  1.00  0.00     0.257 C 
HETATM   13  O4  UNK     1      20.524  -3.279  35.639  1.00  0.00    -0.267 OA
HETATM   14  N1  UNK     1      18.548  -3.028  36.850  1.00  0.00    -0.355 N 
HETATM   15  H9  UNK     1      17.913  -3.460  37.515  1.00  0.00     0.162 HD
BRANCH  14  16
HETATM   16  C12 UNK     1      18.169  -1.729  36.342  1.00  0.00     0.149 C 
BRANCH  16  17
HETATM   17  C13 UNK     1      17.721  -0.804  37.458  1.00  0.00     0.186 C 
BRANCH  17  18
HETATM   18  O2  UNK     1      18.327   0.471  37.286  1.00  0.00    -0.394 OA
HETATM   19  C16 UNK     1      18.722   0.683  35.938  1.00  0.00     0.201 C 
ENDBRANCH  17  18
ENDBRANCH  16  17
ENDBRANCH  14  16
ENDBRANCH   7  12
BRANCH   5  20
HETATM   20  C6  UNK     1      19.450  -9.729  38.985  1.00  0.00     0.067 C 
BRANCH  20  21
HETATM   21  C14 UNK     1      19.842 -10.890  38.108  1.00  0.00    -0.032 C 
HETATM   22  C15 UNK     1      20.330 -10.765  36.868  1.00  0.00     0.007 C 
ENDBRANCH  20  21
ENDBRANCH   5  20
TORSDOF 6
ENDMDL
MODEL 6
REMARK VINA RESULT:      -7.2      3.149      7.166
REMARK  6 active torsions:
REMARK  status: ('A' for Active; 'I' for Inactive)
REMARK    1  A    between atoms: C13_18  and  O2_2 
REMARK       I    between atoms: C11_16  and  N1_5 
REMARK    2  A    between atoms: C12_17  and  N1_5 
REMARK    3  A    between atoms: C3_8  and  C6_11 
REMARK    4  A    between atoms: C11_16  and  C5_10 
REMARK    5  A    between atoms: C14_19  and  C6_11 
REMARK    6  A    between atoms: C12_17  and  C13_18 
ROOT
HETATM    1  O1  UNK     1      18.749   0.911  32.554  1.00  0.00    -0.273 OA
HETATM    2  O3  UNK     1      17.951   1.172  34.679  1.00  0.00    -0.259 OA
HETATM    3  C1  UNK     1      19.344   0.087  31.580  1.00  0.00     0.096 A 
HETATM    4  C2  UNK     1      19.674  -1.231  31.874  1.00  0.00    -0.000 A 
HETATM    5  C3  UNK     1      19.585   0.640  30.324  1.00  0.00    -0.020 A 
HETATM    6  C4  UNK     1      19.395  -1.747  33.206  1.00  0.00     0.037 A 
HETATM    7  C5  UNK     1      18.829  -0.959  34.129  1.00  0.00     0.108 A 
HETATM    8  C7  UNK     1      20.263  -2.018  30.881  1.00  0.00     0.014 A 
HETATM    9  C8  UNK     1      20.174  -0.150  29.339  1.00  0.00     0.010 A 
HETATM   10  C9  UNK     1      20.511  -1.477  29.616  1.00  0.00     0.002 A 
HETATM   11  C10 UNK     1      18.469   0.447  33.837  1.00  0.00     0.304 A 
ENDROOT
BRANCH   7  12
HETATM   12  C11 UNK     1      18.586  -1.568  35.442  1.00  0.00     0.257 C 
HETATM   13  O4  UNK     1      17.473  -1.522  35.964  1.00  0.00    -0.267 OA
HETATM   14  N1  UNK     1      19.715  -2.161  35.977  1.00  0.00    -0.355 N 
HETATM   15  H9  UNK     1      20.587  -2.163  35.457  1.00  0.00     0.162 HD
BRANCH  14  16
HETATM   16  C12 UNK     1      19.723  -2.823  37.262  1.00  0.00     0.149 C 
BRANCH  16  17
HETATM   17  C13 UNK     1      19.910  -4.322  37.115  1.00  0.00     0.186 C 
BRANCH  17  18
HETATM   18  O2  UNK     1      21.297  -4.616  37.002  1.00  0.00    -0.394 OA
HETATM   19  C16 UNK     1      21.764  -5.356  38.122  1.00  0.00     0.201 C 
ENDBRANCH  17  18
ENDBRANCH  16  17
ENDBRANCH  14  16
ENDBRANCH   7  12
BRANCH   5  20
HETATM   20  C6  UNK     1      19.228   2.056  30.017  1.00  0.00     0.067 C 
BRANCH  20  21
HETATM   21  C14 UNK     1      17.929   2.186  29.263  1.00  0.00    -0.032 C 
HETATM   22  C15 UNK     1      17.625   1.487  28.163  1.00  0.00     0.007 C 
ENDBRANCH  20  21
ENDBRANCH   5  20
TORSDOF 6
ENDMDL
MODEL 7
REMARK VINA RESULT:      -7.2      6.076      9.720
REMARK  6 active torsions:
REMARK  status: ('A' for Active; 'I' for Inactive)
REMARK    1  A    between atoms: C13_18  and  O2_2 
REMARK       I    between atoms: C11_16  and  N1_5 
REMARK    2  A    between atoms: C12_17  and  N1_5 
REMARK    3  A    between atoms: C3_8  and  C6_11 
REMARK    4  A    between atoms: C11_16  and  C5_10 
REMARK    5  A    between atoms: C14_19  and  C6_11 
REMARK    6  A    between atoms: C12_17  and  C13_18 
ROOT
HETATM    1  O1  UNK     1      19.204  -7.146  37.647  1.00  0.00    -0.273 OA
HETATM    2  O3  UNK     1      18.056  -5.634  36.375  1.00  0.00    -0.259 OA
HETATM    3  C1  UNK     1      20.333  -7.459  38.427  1.00  0.00     0.096 A 
HETATM    4  C2  UNK     1      21.333  -6.514  38.633  1.00  0.00    -0.000 A 
HETATM    5  C3  UNK     1      20.406  -8.736  38.979  1.00  0.00    -0.020 A 
HETATM    6  C4  UNK     1      21.194  -5.198  38.027  1.00  0.00     0.037 A 
HETATM    7  C5  UNK     1      20.119  -4.908  37.286  1.00  0.00     0.108 A 
HETATM    8  C7  UNK     1      22.439  -6.861  39.414  1.00  0.00     0.014 A 
HETATM    9  C8  UNK     1      21.511  -9.075  39.756  1.00  0.00     0.010 A 
HETATM   10  C9  UNK     1      22.526  -8.140  39.974  1.00  0.00     0.002 A 
HETATM   11  C10 UNK     1      19.042  -5.896  37.054  1.00  0.00     0.304 A 
ENDROOT
BRANCH   7  12
HETATM   12  C11 UNK     1      20.069  -3.555  36.717  1.00  0.00     0.257 C 
HETATM   13  O4  UNK     1      20.117  -2.563  37.444  1.00  0.00    -0.267 OA
HETATM   14  N1  UNK     1      19.964  -3.554  35.339  1.00  0.00    -0.355 N 
HETATM   15  H9  UNK     1      19.952  -4.430  34.826  1.00  0.00     0.162 HD
BRANCH  14  16
HETATM   16  C12 UNK     1      19.896  -2.342  34.555  1.00  0.00     0.149 C 
BRANCH  16  17
HETATM   17  C13 UNK     1      20.644  -2.484  33.242  1.00  0.00     0.186 C 
BRANCH  17  18
HETATM   18  O2  UNK     1      20.145  -1.535  32.309  1.00  0.00    -0.394 OA
HETATM   19  C16 UNK     1      18.819  -1.139  32.628  1.00  0.00     0.201 C 
ENDBRANCH  17  18
ENDBRANCH  16  17
ENDBRANCH  14  16
ENDBRANCH   7  12
BRANCH   5  20
HETATM   20  C6  UNK     1      19.328  -9.742  38.753  1.00  0.00     0.067 C 
BRANCH  20  21
HETATM   21  C14 UNK     1      19.770 -10.898  37.893  1.00  0.00    -0.032 C 
HETATM   22  C15 UNK     1      20.460 -10.767  36.754  1.00  0.00     0.007 C 
ENDBRANCH  20  21
ENDBRANCH   5  20
TORSDOF 6
ENDMDL
MODEL 8
REMARK VINA RESULT:      -7.1     22.856     24.910
REMARK  6 active torsions:
REMARK  status: ('A' for Active; 'I' for Inactive)
REMARK    1  A    between atoms: C13_18  and  O2_2 
REMARK       I    between atoms: C11_16  and  N1_5 
REMARK    2  A    between atoms: C12_17  and  N1_5 
REMARK    3  A    between atoms: C3_8  and  C6_11 
REMARK    4  A    between atoms: C11_16  and  C5_10 
REMARK    5  A    between atoms: C14_19  and  C6_11 
REMARK    6  A    between atoms: C12_17  and  C13_18 
ROOT
HETATM    1  O1  UNK     1      11.156   7.186   9.491  1.00  0.00    -0.273 OA
HETATM    2  O3  UNK     1      12.879   7.465  10.966  1.00  0.00    -0.259 OA
HETATM    3  C1  UNK     1      10.713   6.813   8.208  1.00  0.00     0.096 A 
HETATM    4  C2  UNK     1      11.618   6.376   7.247  1.00  0.00    -0.000 A 
HETATM    5  C3  UNK     1       9.347   6.896   7.945  1.00  0.00    -0.020 A 
HETATM    6  C4  UNK     1      13.031   6.312   7.587  1.00  0.00     0.037 A 
HETATM    7  C5  UNK     1      13.447   6.670   8.808  1.00  0.00     0.108 A 
HETATM    8  C7  UNK     1      11.139   6.013   5.985  1.00  0.00     0.014 A 
HETATM    9  C8  UNK     1       8.878   6.533   6.685  1.00  0.00     0.010 A 
HETATM   10  C9  UNK     1       9.771   6.092   5.706  1.00  0.00     0.002 A 
HETATM   11  C10 UNK     1      12.502   7.136   9.847  1.00  0.00     0.304 A 
ENDROOT
BRANCH   7  12
HETATM   12  C11 UNK     1      14.891   6.572   9.056  1.00  0.00     0.257 C 
HETATM   13  O4  UNK     1      15.505   5.535   8.808  1.00  0.00    -0.267 OA
HETATM   14  N1  UNK     1      15.427   7.734   9.578  1.00  0.00    -0.355 N 
HETATM   15  H9  UNK     1      14.838   8.547   9.729  1.00  0.00     0.162 HD
BRANCH  14  16
HETATM   16  C12 UNK     1      16.827   7.877   9.906  1.00  0.00     0.149 C 
BRANCH  16  17
HETATM   17  C13 UNK     1      17.188   9.324  10.189  1.00  0.00     0.186 C 
BRANCH  17  18
HETATM   18  O2  UNK     1      17.918   9.852   9.089  1.00  0.00    -0.394 OA
HETATM   19  C16 UNK     1      17.296  11.017   8.562  1.00  0.00     0.201 C 
ENDBRANCH  17  18
ENDBRANCH  16  17
ENDBRANCH  14  16
ENDBRANCH   7  12
BRANCH   5  20
HETATM   20  C6  UNK     1       8.383   7.365   8.983  1.00  0.00     0.067 C 
BRANCH  20  21
HETATM   21  C14 UNK     1       7.600   6.241   9.613  1.00  0.00    -0.032 C 
HETATM   22  C15 UNK     1       8.144   5.101  10.054  1.00  0.00     0.007 C 
ENDBRANCH  20  21
ENDBRANCH   5  20
TORSDOF 6
ENDMDL
MODEL 9
REMARK VINA RESULT:      -7.0     13.586     15.604
REMARK  6 active torsions:
REMARK  status: ('A' for Active; 'I' for Inactive)
REMARK    1  A    between atoms: C13_18  and  O2_2 
REMARK       I    between atoms: C11_16  and  N1_5 
REMARK    2  A    between atoms: C12_17  and  N1_5 
REMARK    3  A    between atoms: C3_8  and  C6_11 
REMARK    4  A    between atoms: C11_16  and  C5_10 
REMARK    5  A    between atoms: C14_19  and  C6_11 
REMARK    6  A    between atoms: C12_17  and  C13_18 
ROOT
HETATM    1  O1  UNK     1      17.264  -3.735  15.857  1.00  0.00    -0.273 OA
HETATM    2  O3  UNK     1      16.394  -1.906  16.912  1.00  0.00    -0.259 OA
HETATM    3  C1  UNK     1      18.376  -4.393  15.298  1.00  0.00     0.096 A 
HETATM    4  C2  UNK     1      19.630  -3.790  15.304  1.00  0.00    -0.000 A 
HETATM    5  C3  UNK     1      18.173  -5.657  14.748  1.00  0.00    -0.020 A 
HETATM    6  C4  UNK     1      19.773  -2.468  15.895  1.00  0.00     0.037 A 
HETATM    7  C5  UNK     1      18.711  -1.848  16.424  1.00  0.00     0.108 A 
HETATM    8  C7  UNK     1      20.710  -4.474  14.741  1.00  0.00     0.014 A 
HETATM    9  C8  UNK     1      19.255  -6.332  14.188  1.00  0.00     0.010 A 
HETATM   10  C9  UNK     1      20.522  -5.743  14.184  1.00  0.00     0.002 A 
HETATM   11  C10 UNK     1      17.369  -2.471  16.430  1.00  0.00     0.304 A 
ENDROOT
BRANCH   7  12
HETATM   12  C11 UNK     1      18.955  -0.518  16.997  1.00  0.00     0.257 C 
HETATM   13  O4  UNK     1      19.121   0.461  16.271  1.00  0.00    -0.267 OA
HETATM   14  N1  UNK     1      18.972  -0.523  18.379  1.00  0.00    -0.355 N 
HETATM   15  H9  UNK     1      18.803  -1.384  18.890  1.00  0.00     0.162 HD
BRANCH  14  16
HETATM   16  C12 UNK     1      19.196   0.667  19.168  1.00  0.00     0.149 C 
BRANCH  16  17
HETATM   17  C13 UNK     1      18.055   0.915  20.138  1.00  0.00     0.186 C 
BRANCH  17  18
HETATM   18  O2  UNK     1      18.432   1.928  21.062  1.00  0.00    -0.394 OA
HETATM   19  C16 UNK     1      19.837   1.940  21.276  1.00  0.00     0.201 C 
ENDBRANCH  17  18
ENDBRANCH  16  17
ENDBRANCH  14  16
ENDBRANCH   7  12
BRANCH   5  20
HETATM   20  C6  UNK     1      16.825  -6.296  14.746  1.00  0.00     0.067 C 
BRANCH  20  21
HETATM   21  C14 UNK     1      16.584  -7.167  15.952  1.00  0.00    -0.032 C 
HETATM   22  C15 UNK     1      15.885  -6.786  17.028  1.00  0.00     0.007 C 
ENDBRANCH  20  21
ENDBRANCH   5  20
TORSDOF 6
ENDMDL
MODEL 10
REMARK VINA RESULT:      -7.0      3.353      9.001
REMARK  6 active torsions:
REMARK  status: ('A' for Active; 'I' for Inactive)
REMARK    1  A    between atoms: C13_18  and  O2_2 
REMARK       I    between atoms: C11_16  and  N1_5 
REMARK    2  A    between atoms: C12_17  and  N1_5 
REMARK    3  A    between atoms: C3_8  and  C6_11 
REMARK    4  A    between atoms: C11_16  and  C5_10 
REMARK    5  A    between atoms: C14_19  and  C6_11 
REMARK    6  A    between atoms: C12_17  and  C13_18 
ROOT
HETATM    1  O1  UNK     1      18.906   7.799  33.099  1.00  0.00    -0.273 OA
HETATM    2  O3  UNK     1      20.354   6.143  32.484  1.00  0.00    -0.259 OA
HETATM    3  C1  UNK     1      17.583   8.227  33.321  1.00  0.00     0.096 A 
HETATM    4  C2  UNK     1      16.516   7.356  33.122  1.00  0.00    -0.000 A 
HETATM    5  C3  UNK     1      17.388   9.540  33.744  1.00  0.00    -0.020 A 
HETATM    6  C4  UNK     1      16.789   5.997  32.679  1.00  0.00     0.037 A 
HETATM    7  C5  UNK     1      18.049   5.597  32.469  1.00  0.00     0.108 A 
HETATM    8  C7  UNK     1      15.217   7.817  33.353  1.00  0.00     0.014 A 
HETATM    9  C8  UNK     1      16.090   9.992  33.972  1.00  0.00     0.010 A 
HETATM   10  C9  UNK     1      15.007   9.132  33.778  1.00  0.00     0.002 A 
HETATM   11  C10 UNK     1      19.199   6.506  32.676  1.00  0.00     0.304 A 
ENDROOT
BRANCH   7  12
HETATM   12  C11 UNK     1      18.224   4.209  32.024  1.00  0.00     0.257 C 
HETATM   13  O4  UNK     1      17.888   3.269  32.743  1.00  0.00    -0.267 OA
HETATM   14  N1  UNK     1      18.786   4.114  30.765  1.00  0.00    -0.355 N 
HETATM   15  H9  UNK     1      19.012   4.954  30.240  1.00  0.00     0.162 HD
BRANCH  14  16
HETATM   16  C12 UNK     1      19.057   2.852  30.116  1.00  0.00     0.149 C 
BRANCH  16  17
HETATM   17  C13 UNK     1      17.893   2.411  29.246  1.00  0.00     0.186 C 
BRANCH  17  18
HETATM   18  O2  UNK     1      18.364   1.518  28.245  1.00  0.00    -0.394 OA
HETATM   19  C16 UNK     1      19.184   0.499  28.800  1.00  0.00     0.201 C 
ENDBRANCH  17  18
ENDBRANCH  16  17
ENDBRANCH  14  16
ENDBRANCH   7  12
BRANCH   5  20
HETATM   20  C6  UNK     1      18.539  10.466  33.956  1.00  0.00     0.067 C 
BRANCH  20  21
HETATM   21  C14 UNK     1      18.111  11.880  34.252  1.00  0.00    -0.032 C 
HETATM   22  C15 UNK     1      18.504  12.948  33.549  1.00  0.00     0.007 C 
ENDBRANCH  20  21
ENDBRANCH   5  20
TORSDOF 6
ENDMDL
