MODEL 1
REMARK VINA RESULT:      -9.5      0.000      0.000
REMARK  1 active torsions:
REMARK  status: ('A' for Active; 'I' for Inactive)
REMARK    1  A    between atoms: C10_17  and  N2_6 
ROOT
HETATM    1  O1  UNK     1      30.599  -5.285  37.284  1.00  0.00    -0.291 OA
HETATM    2  O2  UNK     1      30.603  -9.458  37.449  1.00  0.00    -0.274 OA
HETATM    3  O3  UNK     1      34.456  -6.833  37.567  1.00  0.00    -0.271 OA
HETATM    4  O4  UNK     1      32.466  -9.545  36.158  1.00  0.00    -0.259 OA
HETATM    5  N1  UNK     1      34.817  -7.571  35.367  1.00  0.00    -0.325 N 
HETATM    6  N3  UNK     1      34.302  -3.623  34.711  1.00  0.00    -0.191 NA
HETATM    7  C1  UNK     1      32.679  -6.633  35.841  1.00  0.00     0.147 A 
HETATM    8  C2  UNK     1      32.796  -7.111  34.407  1.00  0.00    -0.003 A 
HETATM    9  C3  UNK     1      31.612  -7.363  36.641  1.00  0.00     0.080 A 
HETATM   10  C4  UNK     1      34.078  -7.007  36.418  1.00  0.00     0.246 A 
HETATM   11  C5  UNK     1      34.071  -7.635  34.194  1.00  0.00     0.049 A 
HETATM   12  C6  UNK     1      32.557  -5.111  35.926  1.00  0.00     0.100 A 
HETATM   13  C7  UNK     1      30.665  -6.665  37.291  1.00  0.00     0.105 A 
HETATM   14  C8  UNK     1      31.868  -7.080  33.380  1.00  0.00     0.011 A 
HETATM   15  C9  UNK     1      34.472  -8.141  32.973  1.00  0.00    -0.035 A 
HETATM   16  C10 UNK     1      31.554  -4.526  36.618  1.00  0.00     0.160 A 
HETATM   17  C11 UNK     1      31.617  -8.855  36.712  1.00  0.00     0.299 A 
HETATM   18  C12 UNK     1      29.615  -7.328  38.062  1.00  0.00     0.033 A 
HETATM   19  C13 UNK     1      32.251  -7.588  32.135  1.00  0.00     0.001 A 
HETATM   20  C14 UNK     1      33.541  -8.113  31.933  1.00  0.00     0.009 A 
HETATM   21  C15 UNK     1      29.615  -8.716  38.117  1.00  0.00     0.092 A 
HETATM   22  C16 UNK     1      35.833  -8.701  32.755  1.00  0.00     0.050 C 
HETATM   23  C17 UNK     1      33.522  -4.289  35.254  1.00  0.00     0.101 C 
HETATM   24  C18 UNK     1      28.605  -6.642  38.750  1.00  0.00     0.017 A 
HETATM   25  C19 UNK     1      28.651  -9.432  38.827  1.00  0.00     0.038 A 
HETATM   26  C20 UNK     1      27.631  -7.344  39.466  1.00  0.00     0.001 A 
HETATM   27  C21 UNK     1      27.653  -8.738  39.505  1.00  0.00     0.003 A 
HETATM   28  H1  UNK     1      35.771  -7.904  35.446  1.00  0.00     0.169 HD
ENDROOT
BRANCH  16  29
HETATM   29  N2  UNK     1      31.365  -3.178  36.744  1.00  0.00    -0.379 N 
HETATM   30  H10 UNK     1      32.100  -2.523  36.515  1.00  0.00     0.158 HD
HETATM   31  H9  UNK     1      30.468  -2.840  37.072  1.00  0.00     0.158 HD
ENDBRANCH  16  29
TORSDOF 1
ENDMDL
MODEL 2
REMARK VINA RESULT:      -8.8      3.083      6.481
REMARK  1 active torsions:
REMARK  status: ('A' for Active; 'I' for Inactive)
REMARK    1  A    between atoms: C10_17  and  N2_6 
ROOT
HETATM    1  O1  UNK     1      31.573  -9.208  32.737  1.00  0.00    -0.291 OA
HETATM    2  O2  UNK     1      27.790  -7.512  32.234  1.00  0.00    -0.274 OA
HETATM    3  O3  UNK     1      31.428  -5.276  34.107  1.00  0.00    -0.271 OA
HETATM    4  O4  UNK     1      27.970  -6.428  34.218  1.00  0.00    -0.259 OA
HETATM    5  N1  UNK     1      30.317  -5.546  36.158  1.00  0.00    -0.325 N 
HETATM    6  N3  UNK     1      33.612  -7.771  36.844  1.00  0.00    -0.191 NA
HETATM    7  C1  UNK     1      30.627  -7.510  34.847  1.00  0.00     0.147 A 
HETATM    8  C2  UNK     1      29.868  -7.785  36.130  1.00  0.00    -0.003 A 
HETATM    9  C3  UNK     1      29.824  -7.803  33.589  1.00  0.00     0.080 A 
HETATM   10  C4  UNK     1      30.865  -5.972  34.939  1.00  0.00     0.246 A 
HETATM   11  C5  UNK     1      29.732  -6.600  36.854  1.00  0.00     0.049 A 
HETATM   12  C6  UNK     1      32.005  -8.172  34.847  1.00  0.00     0.100 A 
HETATM   13  C7  UNK     1      30.330  -8.612  32.642  1.00  0.00     0.105 A 
HETATM   14  C8  UNK     1      29.351  -8.972  36.620  1.00  0.00     0.011 A 
HETATM   15  C9  UNK     1      29.090  -6.545  38.074  1.00  0.00    -0.035 A 
HETATM   16  C10 UNK     1      32.401  -8.966  33.827  1.00  0.00     0.160 A 
HETATM   17  C11 UNK     1      28.476  -7.190  33.400  1.00  0.00     0.299 A 
HETATM   18  C12 UNK     1      29.586  -8.928  31.424  1.00  0.00     0.033 A 
HETATM   19  C13 UNK     1      28.695  -8.941  37.855  1.00  0.00     0.001 A 
HETATM   20  C14 UNK     1      28.566  -7.738  38.575  1.00  0.00     0.009 A 
HETATM   21  C15 UNK     1      28.328  -8.365  31.256  1.00  0.00     0.092 A 
HETATM   22  C16 UNK     1      28.947  -5.276  38.838  1.00  0.00     0.050 C 
HETATM   23  C17 UNK     1      32.893  -7.950  35.951  1.00  0.00     0.101 C 
HETATM   24  C18 UNK     1      30.072  -9.770  30.414  1.00  0.00     0.017 A 
HETATM   25  C19 UNK     1      27.547  -8.613  30.127  1.00  0.00     0.038 A 
HETATM   26  C20 UNK     1      29.302 -10.029  29.276  1.00  0.00     0.001 A 
HETATM   27  C21 UNK     1      28.041  -9.452  29.132  1.00  0.00     0.003 A 
HETATM   28  H1  UNK     1      30.329  -4.589  36.493  1.00  0.00     0.169 HD
ENDROOT
BRANCH  16  29
HETATM   29  N2  UNK     1      33.609  -9.602  33.745  1.00  0.00    -0.379 N 
HETATM   30  H10 UNK     1      33.753 -10.507  34.172  1.00  0.00     0.158 HD
HETATM   31  H9  UNK     1      34.365  -9.150  33.246  1.00  0.00     0.158 HD
ENDBRANCH  16  29
TORSDOF 1
ENDMDL
MODEL 3
REMARK VINA RESULT:      -8.8      3.703      6.043
REMARK  1 active torsions:
REMARK  status: ('A' for Active; 'I' for Inactive)
REMARK    1  A    between atoms: C10_17  and  N2_6 
ROOT
HETATM    1  O1  UNK     1      34.517  -6.994  32.476  1.00  0.00    -0.291 OA
HETATM    2  O2  UNK     1      31.612  -7.175  35.470  1.00  0.00    -0.274 OA
HETATM    3  O3  UNK     1      32.135 -10.394  32.135  1.00  0.00    -0.271 OA
HETATM    4  O4  UNK     1      30.098  -8.013  34.002  1.00  0.00    -0.259 OA
HETATM    5  N1  UNK     1      30.179  -9.492  31.199  1.00  0.00    -0.325 N 
HETATM    6  N3  UNK     1      32.826  -8.617  28.282  1.00  0.00    -0.191 NA
HETATM    7  C1  UNK     1      31.927  -7.954  31.705  1.00  0.00     0.147 A 
HETATM    8  C2  UNK     1      30.698  -7.268  31.142  1.00  0.00    -0.003 A 
HETATM    9  C3  UNK     1      32.269  -7.524  33.123  1.00  0.00     0.080 A 
HETATM   10  C4  UNK     1      31.476  -9.447  31.732  1.00  0.00     0.246 A 
HETATM   11  C5  UNK     1      29.722  -8.223  30.857  1.00  0.00     0.049 A 
HETATM   12  C6  UNK     1      33.117  -7.868  30.749  1.00  0.00     0.100 A 
HETATM   13  C7  UNK     1      33.504  -7.081  33.412  1.00  0.00     0.105 A 
HETATM   14  C8  UNK     1      30.464  -5.926  30.895  1.00  0.00     0.011 A 
HETATM   15  C9  UNK     1      28.493  -7.891  30.322  1.00  0.00    -0.035 A 
HETATM   16  C10 UNK     1      34.317  -7.405  31.164  1.00  0.00     0.160 A 
HETATM   17  C11 UNK     1      31.236  -7.599  34.199  1.00  0.00     0.299 A 
HETATM   18  C12 UNK     1      33.871  -6.648  34.759  1.00  0.00     0.033 A 
HETATM   19  C13 UNK     1      29.225  -5.566  30.354  1.00  0.00     0.001 A 
HETATM   20  C14 UNK     1      28.250  -6.540  30.070  1.00  0.00     0.009 A 
HETATM   21  C15 UNK     1      32.905  -6.707  35.755  1.00  0.00     0.092 A 
HETATM   22  C16 UNK     1      27.455  -8.915  30.024  1.00  0.00     0.050 C 
HETATM   23  C17 UNK     1      32.956  -8.283  29.385  1.00  0.00     0.101 C 
HETATM   24  C18 UNK     1      35.144  -6.174  35.103  1.00  0.00     0.017 A 
HETATM   25  C19 UNK     1      33.165  -6.312  37.068  1.00  0.00     0.038 A 
HETATM   26  C20 UNK     1      35.422  -5.774  36.414  1.00  0.00     0.001 A 
HETATM   27  C21 UNK     1      34.433  -5.843  37.395  1.00  0.00     0.003 A 
HETATM   28  H1  UNK     1      29.631 -10.336  31.086  1.00  0.00     0.169 HD
ENDROOT
BRANCH  16  29
HETATM   29  N2  UNK     1      35.431  -7.288  30.379  1.00  0.00    -0.379 N 
HETATM   30  H10 UNK     1      36.348  -7.164  30.788  1.00  0.00     0.158 HD
HETATM   31  H9  UNK     1      35.325  -7.329  29.373  1.00  0.00     0.158 HD
ENDBRANCH  16  29
TORSDOF 1
ENDMDL
MODEL 4
REMARK VINA RESULT:      -8.6      2.651      6.276
REMARK  1 active torsions:
REMARK  status: ('A' for Active; 'I' for Inactive)
REMARK    1  A    between atoms: C10_17  and  N2_6 
ROOT
HETATM    1  O1  UNK     1      31.081  -5.216  37.679  1.00  0.00    -0.291 OA
HETATM    2  O2  UNK     1      32.223  -8.551  35.441  1.00  0.00    -0.274 OA
HETATM    3  O3  UNK     1      28.170  -6.306  34.905  1.00  0.00    -0.271 OA
HETATM    4  O4  UNK     1      30.099  -9.348  35.475  1.00  0.00    -0.259 OA
HETATM    5  N1  UNK     1      27.200  -8.164  35.965  1.00  0.00    -0.325 N 
HETATM    6  N3  UNK     1      26.383  -5.295  38.682  1.00  0.00    -0.191 NA
HETATM    7  C1  UNK     1      29.034  -7.135  37.084  1.00  0.00     0.147 A 
HETATM    8  C2  UNK     1      28.506  -8.344  37.830  1.00  0.00    -0.003 A 
HETATM    9  C3  UNK     1      30.475  -7.285  36.625  1.00  0.00     0.080 A 
HETATM   10  C4  UNK     1      28.111  -7.105  35.828  1.00  0.00     0.246 A 
HETATM   11  C5  UNK     1      27.429  -8.889  37.130  1.00  0.00     0.049 A 
HETATM   12  C6  UNK     1      28.780  -5.836  37.850  1.00  0.00     0.100 A 
HETATM   13  C7  UNK     1      31.384  -6.346  36.944  1.00  0.00     0.105 A 
HETATM   14  C8  UNK     1      28.928  -8.908  39.022  1.00  0.00     0.011 A 
HETATM   15  C9  UNK     1      26.738  -9.998  37.576  1.00  0.00    -0.035 A 
HETATM   16  C10 UNK     1      29.783  -4.966  38.107  1.00  0.00     0.160 A 
HETATM   17  C11 UNK     1      30.885  -8.470  35.814  1.00  0.00     0.299 A 
HETATM   18  C12 UNK     1      32.782  -6.457  36.531  1.00  0.00     0.033 A 
HETATM   19  C13 UNK     1      28.243 -10.033  39.493  1.00  0.00     0.001 A 
HETATM   20  C14 UNK     1      27.158 -10.572  38.777  1.00  0.00     0.009 A 
HETATM   21  C15 UNK     1      33.163  -7.566  35.788  1.00  0.00     0.092 A 
HETATM   22  C16 UNK     1      25.593 -10.575  36.822  1.00  0.00     0.050 C 
HETATM   23  C17 UNK     1      27.454  -5.537  38.310  1.00  0.00     0.101 C 
HETATM   24  C18 UNK     1      33.762  -5.507  36.846  1.00  0.00     0.017 A 
HETATM   25  C19 UNK     1      34.475  -7.756  35.354  1.00  0.00     0.038 A 
HETATM   26  C20 UNK     1      35.082  -5.681  36.419  1.00  0.00     0.001 A 
HETATM   27  C21 UNK     1      35.439  -6.805  35.674  1.00  0.00     0.003 A 
HETATM   28  H1  UNK     1      26.471  -8.387  35.297  1.00  0.00     0.169 HD
ENDROOT
BRANCH  16  29
HETATM   29  N2  UNK     1      29.649  -3.788  38.787  1.00  0.00    -0.379 N 
HETATM   30  H10 UNK     1      29.599  -3.770  39.797  1.00  0.00     0.158 HD
HETATM   31  H9  UNK     1      29.601  -2.924  38.261  1.00  0.00     0.158 HD
ENDBRANCH  16  29
TORSDOF 1
ENDMDL
MODEL 5
REMARK VINA RESULT:      -8.6      3.620      7.245
REMARK  1 active torsions:
REMARK  status: ('A' for Active; 'I' for Inactive)
REMARK    1  A    between atoms: C10_17  and  N2_6 
ROOT
HETATM    1  O1  UNK     1      30.602 -10.659  33.376  1.00  0.00    -0.291 OA
HETATM    2  O2  UNK     1      28.025  -7.780  31.792  1.00  0.00    -0.274 OA
HETATM    3  O3  UNK     1      31.207  -6.910  35.089  1.00  0.00    -0.271 OA
HETATM    4  O4  UNK     1      27.785  -6.818  33.833  1.00  0.00    -0.259 OA
HETATM    5  N1  UNK     1      29.387  -6.782  36.568  1.00  0.00    -0.325 N 
HETATM    6  N3  UNK     1      31.303  -9.994  38.083  1.00  0.00    -0.191 NA
HETATM    7  C1  UNK     1      29.526  -8.737  35.214  1.00  0.00     0.147 A 
HETATM    8  C2  UNK     1      28.299  -8.736  36.103  1.00  0.00    -0.003 A 
HETATM    9  C3  UNK     1      29.202  -8.742  33.728  1.00  0.00     0.080 A 
HETATM   10  C4  UNK     1      30.186  -7.371  35.576  1.00  0.00     0.246 A 
HETATM   11  C5  UNK     1      28.285  -7.574  36.876  1.00  0.00     0.049 A 
HETATM   12  C6  UNK     1      30.520  -9.828  35.615  1.00  0.00     0.100 A 
HETATM   13  C7  UNK     1      29.741  -9.676  32.926  1.00  0.00     0.105 A 
HETATM   14  C8  UNK     1      27.290  -9.675  36.228  1.00  0.00     0.011 A 
HETATM   15  C9  UNK     1      27.287  -7.302  37.790  1.00  0.00    -0.035 A 
HETATM   16  C10 UNK     1      30.994 -10.712  34.708  1.00  0.00     0.160 A 
HETATM   17  C11 UNK     1      28.290  -7.707  33.156  1.00  0.00     0.299 A 
HETATM   18  C12 UNK     1      29.447  -9.723  31.494  1.00  0.00     0.033 A 
HETATM   19  C13 UNK     1      26.267  -9.421  37.147  1.00  0.00     0.001 A 
HETATM   20  C14 UNK     1      26.266  -8.245  37.921  1.00  0.00     0.009 A 
HETATM   21  C15 UNK     1      28.589  -8.766  30.967  1.00  0.00     0.092 A 
HETATM   22  C16 UNK     1      27.278  -6.059  38.607  1.00  0.00     0.050 C 
HETATM   23  C17 UNK     1      30.953  -9.920  36.979  1.00  0.00     0.101 C 
HETATM   24  C18 UNK     1      29.981 -10.681  30.623  1.00  0.00     0.017 A 
HETATM   25  C19 UNK     1      28.251  -8.736  29.614  1.00  0.00     0.038 A 
HETATM   26  C20 UNK     1      29.652 -10.665  29.263  1.00  0.00     0.001 A 
HETATM   27  C21 UNK     1      28.788  -9.694  28.759  1.00  0.00     0.003 A 
HETATM   28  H1  UNK     1      29.575  -5.886  37.003  1.00  0.00     0.169 HD
ENDROOT
BRANCH  16  29
HETATM   29  N2  UNK     1      31.878 -11.720  34.977  1.00  0.00    -0.379 N 
HETATM   30  H10 UNK     1      32.873 -11.545  35.022  1.00  0.00     0.158 HD
HETATM   31  H9  UNK     1      31.519 -12.654  35.132  1.00  0.00     0.158 HD
ENDBRANCH  16  29
TORSDOF 1
ENDMDL
MODEL 6
REMARK VINA RESULT:      -8.6      3.398      5.525
REMARK  1 active torsions:
REMARK  status: ('A' for Active; 'I' for Inactive)
REMARK    1  A    between atoms: C10_17  and  N2_6 
ROOT
HETATM    1  O1  UNK     1      34.977  -6.813  33.228  1.00  0.00    -0.291 OA
HETATM    2  O2  UNK     1      31.908  -9.128  34.858  1.00  0.00    -0.274 OA
HETATM    3  O3  UNK     1      34.615 -10.496  31.315  1.00  0.00    -0.271 OA
HETATM    4  O4  UNK     1      31.339  -9.891  32.799  1.00  0.00    -0.259 OA
HETATM    5  N1  UNK     1      32.732 -10.127  29.961  1.00  0.00    -0.325 N 
HETATM    6  N3  UNK     1      35.237  -7.343  28.459  1.00  0.00    -0.191 NA
HETATM    7  C1  UNK     1      33.389  -8.334  31.387  1.00  0.00     0.147 A 
HETATM    8  C2  UNK     1      32.144  -8.009  30.585  1.00  0.00    -0.003 A 
HETATM    9  C3  UNK     1      33.160  -8.343  32.890  1.00  0.00     0.080 A 
HETATM   10  C4  UNK     1      33.699  -9.790  30.921  1.00  0.00     0.246 A 
HETATM   11  C5  UNK     1      31.823  -9.092  29.765  1.00  0.00     0.049 A 
HETATM   12  C6  UNK     1      34.580  -7.472  30.966  1.00  0.00     0.100 A 
HETATM   13  C7  UNK     1      33.942  -7.601  33.693  1.00  0.00     0.105 A 
HETATM   14  C8  UNK     1      31.370  -6.862  30.571  1.00  0.00     0.011 A 
HETATM   15  C9  UNK     1      30.738  -9.080  28.912  1.00  0.00    -0.035 A 
HETATM   16  C10 UNK     1      35.294  -6.772  31.876  1.00  0.00     0.160 A 
HETATM   17  C11 UNK     1      32.071  -9.179  33.478  1.00  0.00     0.299 A 
HETATM   18  C12 UNK     1      33.749  -7.574  35.142  1.00  0.00     0.033 A 
HETATM   19  C13 UNK     1      30.265  -6.827  29.715  1.00  0.00     0.001 A 
HETATM   20  C14 UNK     1      29.953  -7.926  28.892  1.00  0.00     0.009 A 
HETATM   21  C15 UNK     1      32.728  -8.343  35.685  1.00  0.00     0.092 A 
HETATM   22  C16 UNK     1      30.400 -10.240  28.043  1.00  0.00     0.050 C 
HETATM   23  C17 UNK     1      34.943  -7.401  29.580  1.00  0.00     0.101 C 
HETATM   24  C18 UNK     1      34.536  -6.811  36.016  1.00  0.00     0.017 A 
HETATM   25  C19 UNK     1      32.470  -8.375  37.056  1.00  0.00     0.038 A 
HETATM   26  C20 UNK     1      34.291  -6.832  37.392  1.00  0.00     0.001 A 
HETATM   27  C21 UNK     1      33.259  -7.612  37.912  1.00  0.00     0.003 A 
HETATM   28  H1  UNK     1      32.686 -11.015  29.476  1.00  0.00     0.169 HD
ENDROOT
BRANCH  16  29
HETATM   29  N2  UNK     1      36.366  -5.973  31.590  1.00  0.00    -0.379 N 
HETATM   30  H10 UNK     1      36.317  -4.970  31.707  1.00  0.00     0.158 HD
HETATM   31  H9  UNK     1      37.221  -6.404  31.258  1.00  0.00     0.158 HD
ENDBRANCH  16  29
TORSDOF 1
ENDMDL
MODEL 7
REMARK VINA RESULT:      -8.5      2.962      4.425
REMARK  1 active torsions:
REMARK  status: ('A' for Active; 'I' for Inactive)
REMARK    1  A    between atoms: C10_17  and  N2_6 
ROOT
HETATM    1  O1  UNK     1      32.263  -5.795  35.254  1.00  0.00    -0.291 OA
HETATM    2  O2  UNK     1      28.314  -6.764  36.207  1.00  0.00    -0.274 OA
HETATM    3  O3  UNK     1      31.274  -9.664  34.068  1.00  0.00    -0.271 OA
HETATM    4  O4  UNK     1      28.085  -7.906  34.260  1.00  0.00    -0.259 OA
HETATM    5  N1  UNK     1      30.015  -9.242  32.130  1.00  0.00    -0.325 N 
HETATM    6  N3  UNK     1      33.561  -7.668  31.024  1.00  0.00    -0.191 NA
HETATM    7  C1  UNK     1      30.809  -7.339  33.323  1.00  0.00     0.147 A 
HETATM    8  C2  UNK     1      29.978  -6.958  32.113  1.00  0.00    -0.003 A 
HETATM    9  C3  UNK     1      30.211  -6.877  34.641  1.00  0.00     0.080 A 
HETATM   10  C4  UNK     1      30.758  -8.896  33.269  1.00  0.00     0.246 A 
HETATM   11  C5  UNK     1      29.557  -8.115  31.455  1.00  0.00     0.049 A 
HETATM   12  C6  UNK     1      32.275  -6.938  33.156  1.00  0.00     0.100 A 
HETATM   13  C7  UNK     1      30.951  -6.153  35.499  1.00  0.00     0.105 A 
HETATM   14  C8  UNK     1      29.632  -5.709  31.629  1.00  0.00     0.011 A 
HETATM   15  C9  UNK     1      28.788  -8.079  30.309  1.00  0.00    -0.035 A 
HETATM   16  C10 UNK     1      32.913  -6.206  34.097  1.00  0.00     0.160 A 
HETATM   17  C11 UNK     1      28.802  -7.231  34.991  1.00  0.00     0.299 A 
HETATM   18  C12 UNK     1      30.410  -5.680  36.772  1.00  0.00     0.033 A 
HETATM   19  C13 UNK     1      28.852  -5.647  30.470  1.00  0.00     0.001 A 
HETATM   20  C14 UNK     1      28.435  -6.822  29.816  1.00  0.00     0.009 A 
HETATM   21  C15 UNK     1      29.097  -6.001  37.090  1.00  0.00     0.092 A 
HETATM   22  C16 UNK     1      28.340  -9.317  29.616  1.00  0.00     0.050 C 
HETATM   23  C17 UNK     1      32.986  -7.342  31.977  1.00  0.00     0.101 C 
HETATM   24  C18 UNK     1      31.143  -4.919  37.692  1.00  0.00     0.017 A 
HETATM   25  C19 UNK     1      28.498  -5.591  38.281  1.00  0.00     0.038 A 
HETATM   26  C20 UNK     1      30.559  -4.499  38.891  1.00  0.00     0.001 A 
HETATM   27  C21 UNK     1      29.237  -4.834  39.186  1.00  0.00     0.003 A 
HETATM   28  H1  UNK     1      29.821 -10.192  31.836  1.00  0.00     0.169 HD
ENDROOT
BRANCH  16  29
HETATM   29  N2  UNK     1      34.217  -5.799  34.030  1.00  0.00    -0.379 N 
HETATM   30  H10 UNK     1      34.600  -5.158  34.711  1.00  0.00     0.158 HD
HETATM   31  H9  UNK     1      34.800  -6.153  33.281  1.00  0.00     0.158 HD
ENDBRANCH  16  29
TORSDOF 1
ENDMDL
MODEL 8
REMARK VINA RESULT:      -8.5      2.266      6.437
REMARK  1 active torsions:
REMARK  status: ('A' for Active; 'I' for Inactive)
REMARK    1  A    between atoms: C10_17  and  N2_6 
ROOT
HETATM    1  O1  UNK     1      33.824  -7.802  33.032  1.00  0.00    -0.291 OA
HETATM    2  O2  UNK     1      30.097  -6.617  31.568  1.00  0.00    -0.274 OA
HETATM    3  O3  UNK     1      32.616  -4.143  34.616  1.00  0.00    -0.271 OA
HETATM    4  O4  UNK     1      29.522  -5.784  33.598  1.00  0.00    -0.259 OA
HETATM    5  N1  UNK     1      31.040  -4.833  36.214  1.00  0.00    -0.325 N 
HETATM    6  N3  UNK     1      34.348  -6.633  37.663  1.00  0.00    -0.191 NA
HETATM    7  C1  UNK     1      32.044  -6.546  34.897  1.00  0.00     0.147 A 
HETATM    8  C2  UNK     1      31.016  -7.091  35.869  1.00  0.00    -0.003 A 
HETATM    9  C3  UNK     1      31.689  -6.786  33.438  1.00  0.00     0.080 A 
HETATM   10  C4  UNK     1      31.973  -5.014  35.182  1.00  0.00     0.246 A 
HETATM   11  C5  UNK     1      30.478  -6.042  36.615  1.00  0.00     0.049 A 
HETATM   12  C6  UNK     1      33.461  -6.998  35.252  1.00  0.00     0.100 A 
HETATM   13  C7  UNK     1      32.573  -7.384  32.621  1.00  0.00     0.105 A 
HETATM   14  C8  UNK     1      30.598  -8.393  36.085  1.00  0.00     0.011 A 
HETATM   15  C9  UNK     1      29.521  -6.238  37.590  1.00  0.00    -0.035 A 
HETATM   16  C10 UNK     1      34.259  -7.588  34.335  1.00  0.00     0.160 A 
HETATM   17  C11 UNK     1      30.362  -6.353  32.908  1.00  0.00     0.299 A 
HETATM   18  C12 UNK     1      32.267  -7.643  31.215  1.00  0.00     0.033 A 
HETATM   19  C13 UNK     1      29.628  -8.617  37.066  1.00  0.00     0.001 A 
HETATM   20  C14 UNK     1      29.095  -7.548  37.812  1.00  0.00     0.009 A 
HETATM   21  C15 UNK     1      31.028  -7.249  30.727  1.00  0.00     0.092 A 
HETATM   22  C16 UNK     1      28.950  -5.113  38.378  1.00  0.00     0.050 C 
HETATM   23  C17 UNK     1      33.951  -6.796  36.586  1.00  0.00     0.101 C 
HETATM   24  C18 UNK     1      33.156  -8.268  30.330  1.00  0.00     0.017 A 
HETATM   25  C19 UNK     1      30.651  -7.458  29.401  1.00  0.00     0.038 A 
HETATM   26  C20 UNK     1      32.794  -8.485  28.997  1.00  0.00     0.001 A 
HETATM   27  C21 UNK     1      31.542  -8.081  28.533  1.00  0.00     0.003 A 
HETATM   28  H1  UNK     1      30.790  -3.936  36.615  1.00  0.00     0.169 HD
ENDROOT
BRANCH  16  29
HETATM   29  N2  UNK     1      35.533  -8.027  34.564  1.00  0.00    -0.379 N 
HETATM   30  H10 UNK     1      36.085  -8.440  33.824  1.00  0.00     0.158 HD
HETATM   31  H9  UNK     1      35.921  -7.933  35.495  1.00  0.00     0.158 HD
ENDBRANCH  16  29
TORSDOF 1
ENDMDL
MODEL 9
REMARK VINA RESULT:      -8.5      1.887      2.440
REMARK  1 active torsions:
REMARK  status: ('A' for Active; 'I' for Inactive)
REMARK    1  A    between atoms: C10_17  and  N2_6 
ROOT
HETATM    1  O1  UNK     1      30.361  -6.185  37.497  1.00  0.00    -0.291 OA
HETATM    2  O2  UNK     1      28.506  -9.529  35.819  1.00  0.00    -0.274 OA
HETATM    3  O3  UNK     1      33.036  -8.532  35.330  1.00  0.00    -0.271 OA
HETATM    4  O4  UNK     1      29.759  -9.328  33.940  1.00  0.00    -0.259 OA
HETATM    5  N1  UNK     1      32.488  -7.935  33.126  1.00  0.00    -0.325 N 
HETATM    6  N3  UNK     1      33.686  -4.355  34.550  1.00  0.00    -0.191 NA
HETATM    7  C1  UNK     1      31.192  -6.934  34.856  1.00  0.00     0.147 A 
HETATM    8  C2  UNK     1      30.734  -6.513  33.473  1.00  0.00    -0.003 A 
HETATM    9  C3  UNK     1      30.133  -7.691  35.642  1.00  0.00     0.080 A 
HETATM   10  C4  UNK     1      32.360  -7.912  34.523  1.00  0.00     0.246 A 
HETATM   11  C5  UNK     1      31.541  -7.123  32.511  1.00  0.00     0.049 A 
HETATM   12  C6  UNK     1      31.799  -5.767  35.635  1.00  0.00     0.100 A 
HETATM   13  C7  UNK     1      29.791  -7.280  36.876  1.00  0.00     0.105 A 
HETATM   14  C8  UNK     1      29.709  -5.664  33.095  1.00  0.00     0.011 A 
HETATM   15  C9  UNK     1      31.365  -6.917  31.157  1.00  0.00    -0.035 A 
HETATM   16  C10 UNK     1      31.369  -5.455  36.878  1.00  0.00     0.160 A 
HETATM   17  C11 UNK     1      29.476  -8.894  35.051  1.00  0.00     0.299 A 
HETATM   18  C12 UNK     1      28.771  -7.973  37.661  1.00  0.00     0.033 A 
HETATM   19  C13 UNK     1      29.511  -5.441  31.729  1.00  0.00     0.001 A 
HETATM   20  C14 UNK     1      30.333  -6.062  30.769  1.00  0.00     0.009 A 
HETATM   21  C15 UNK     1      28.153  -9.084  37.104  1.00  0.00     0.092 A 
HETATM   22  C16 UNK     1      32.227  -7.574  30.137  1.00  0.00     0.050 C 
HETATM   23  C17 UNK     1      32.843  -4.987  35.035  1.00  0.00     0.101 C 
HETATM   24  C18 UNK     1      28.380  -7.577  38.947  1.00  0.00     0.017 A 
HETATM   25  C19 UNK     1      27.168  -9.805  37.780  1.00  0.00     0.038 A 
HETATM   26  C20 UNK     1      27.394  -8.287  39.639  1.00  0.00     0.001 A 
HETATM   27  C21 UNK     1      26.788  -9.400  39.057  1.00  0.00     0.003 A 
HETATM   28  H1  UNK     1      33.174  -8.482  32.619  1.00  0.00     0.169 HD
ENDROOT
BRANCH  16  29
HETATM   29  N2  UNK     1      31.849  -4.429  37.644  1.00  0.00    -0.379 N 
HETATM   30  H10 UNK     1      32.477  -3.738  37.257  1.00  0.00     0.158 HD
HETATM   31  H9  UNK     1      31.563  -4.370  38.614  1.00  0.00     0.158 HD
ENDBRANCH  16  29
TORSDOF 1
ENDMDL
MODEL 10
REMARK VINA RESULT:      -8.4      2.558      6.392
REMARK  1 active torsions:
REMARK  status: ('A' for Active; 'I' for Inactive)
REMARK    1  A    between atoms: C10_17  and  N2_6 
ROOT
HETATM    1  O1  UNK     1      32.079  -6.438  33.013  1.00  0.00    -0.291 OA
HETATM    2  O2  UNK     1      34.351  -7.587  36.324  1.00  0.00    -0.274 OA
HETATM    3  O3  UNK     1      30.196  -9.410  35.244  1.00  0.00    -0.271 OA
HETATM    4  O4  UNK     1      32.477  -7.793  37.585  1.00  0.00    -0.259 OA
HETATM    5  N1  UNK     1      29.373  -8.169  37.060  1.00  0.00    -0.325 N 
HETATM    6  N3  UNK     1      27.384  -6.393  34.032  1.00  0.00    -0.191 NA
HETATM    7  C1  UNK     1      30.647  -6.974  35.440  1.00  0.00     0.147 A 
HETATM    8  C2  UNK     1      30.196  -6.091  36.587  1.00  0.00    -0.003 A 
HETATM    9  C3  UNK     1      32.158  -7.092  35.321  1.00  0.00     0.080 A 
HETATM   10  C4  UNK     1      30.069  -8.361  35.857  1.00  0.00     0.246 A 
HETATM   11  C5  UNK     1      29.448  -6.848  37.490  1.00  0.00     0.049 A 
HETATM   12  C6  UNK     1      29.969  -6.589  34.125  1.00  0.00     0.100 A 
HETATM   13  C7  UNK     1      32.763  -6.822  34.151  1.00  0.00     0.105 A 
HETATM   14  C8  UNK     1      30.416  -4.743  36.813  1.00  0.00     0.011 A 
HETATM   15  C9  UNK     1      28.895  -6.306  38.633  1.00  0.00    -0.035 A 
HETATM   16  C10 UNK     1      30.693  -6.344  33.009  1.00  0.00     0.160 A 
HETATM   17  C11 UNK     1      32.973  -7.514  36.499  1.00  0.00     0.299 A 
HETATM   18  C12 UNK     1      34.214  -6.913  33.997  1.00  0.00     0.033 A 
HETATM   19  C13 UNK     1      29.868  -4.173  37.965  1.00  0.00     0.001 A 
HETATM   20  C14 UNK     1      29.113  -4.948  38.867  1.00  0.00     0.009 A 
HETATM   21  C15 UNK     1      34.970  -7.295  35.097  1.00  0.00     0.092 A 
HETATM   22  C16 UNK     1      28.101  -7.121  39.593  1.00  0.00     0.050 C 
HETATM   23  C17 UNK     1      28.540  -6.480  34.074  1.00  0.00     0.101 C 
HETATM   24  C18 UNK     1      34.886  -6.636  32.799  1.00  0.00     0.017 A 
HETATM   25  C19 UNK     1      36.360  -7.406  35.042  1.00  0.00     0.038 A 
HETATM   26  C20 UNK     1      36.279  -6.742  32.726  1.00  0.00     0.001 A 
HETATM   27  C21 UNK     1      37.015  -7.127  33.847  1.00  0.00     0.003 A 
HETATM   28  H1  UNK     1      28.886  -8.899  37.566  1.00  0.00     0.169 HD
ENDROOT
BRANCH  16  29
HETATM   29  N2  UNK     1      30.174  -5.990  31.794  1.00  0.00    -0.379 N 
HETATM   30  H10 UNK     1      29.339  -5.423  31.728  1.00  0.00     0.158 HD
HETATM   31  H9  UNK     1      30.641  -6.306  30.953  1.00  0.00     0.158 HD
ENDBRANCH  16  29
TORSDOF 1
ENDMDL
