MODEL 1
REMARK VINA RESULT:      -8.4      0.000      0.000
REMARK  7 active torsions:
REMARK  status: ('A' for Active; 'I' for Inactive)
REMARK    1  A    between atoms: C16_23  and  O2_2 
REMARK    2  A    between atoms: C6_13  and  O2_2 
REMARK    3  A    between atoms: C16_23  and  O3_3 
REMARK    4  A    between atoms: C7_14  and  O3_3 
REMARK    5  A    between atoms: C3_10  and  N1_7 
REMARK       I    between atoms: C8_15  and  N1_7 
REMARK    6  A    between atoms: C2_9  and  C8_15 
REMARK    7  A    between atoms: C3_10  and  C7_14 
ROOT
HETATM    1  O4  UNK     1      17.998   3.164  28.650  1.00  0.00    -0.267 OA
HETATM    2  N1  UNK     1      19.208   4.221  30.340  1.00  0.00    -0.355 N 
HETATM    3  C8  UNK     1      18.664   3.132  29.683  1.00  0.00     0.257 C 
HETATM    4  H7  UNK     1      19.729   4.091  31.202  1.00  0.00     0.162 HD
ENDROOT
BRANCH   3   5
HETATM    5  C2  UNK     1      18.962   1.857  30.348  1.00  0.00     0.108 A 
HETATM    6  C10 UNK     1      18.589   1.601  31.757  1.00  0.00     0.304 A 
HETATM    7  O1  UNK     1      18.925   0.353  32.275  1.00  0.00    -0.274 OA
HETATM    8  O5  UNK     1      18.013   2.441  32.439  1.00  0.00    -0.259 OA
HETATM    9  C4  UNK     1      19.587  -0.620  31.501  1.00  0.00     0.089 A 
HETATM   10  C1  UNK     1      19.928  -0.357  30.178  1.00  0.00    -0.001 A 
HETATM   11  C11 UNK     1      19.881  -1.840  32.107  1.00  0.00     0.038 A 
HETATM   12  C5  UNK     1      19.590   0.937  29.607  1.00  0.00     0.037 A 
HETATM   13  C9  UNK     1      20.583  -1.348  29.442  1.00  0.00     0.014 A 
HETATM   14  C14 UNK     1      20.886  -2.577  30.036  1.00  0.00     0.001 A 
HETATM   15  C15 UNK     1      20.535  -2.822  31.366  1.00  0.00     0.003 A 
ENDBRANCH   3   5
BRANCH   2  16
HETATM   16  C3  UNK     1      19.052   5.580  29.874  1.00  0.00     0.149 C 
BRANCH  16  17
HETATM   17  C7  UNK     1      18.842   6.544  31.027  1.00  0.00     0.200 C 
BRANCH  17  18
HETATM   18  O3  UNK     1      17.497   6.455  31.478  1.00  0.00    -0.296 OA
BRANCH  18  19
HETATM   19  C16 UNK     1      16.855   7.644  31.682  1.00  0.00     0.406 C 
HETATM   20  O6  UNK     1      16.370   8.351  30.809  1.00  0.00    -0.229 OA
BRANCH  19  21
HETATM   21  O2  UNK     1      16.847   7.904  33.020  1.00  0.00    -0.293 OA
BRANCH  21  22
HETATM   22  C6  UNK     1      17.500   9.115  33.418  1.00  0.00     0.126 C 
HETATM   23  C12 UNK     1      18.816   8.773  34.100  1.00  0.00     0.040 C 
HETATM   24  C13 UNK     1      16.576   9.904  34.331  1.00  0.00     0.040 C 
ENDBRANCH  21  22
ENDBRANCH  19  21
ENDBRANCH  18  19
ENDBRANCH  17  18
ENDBRANCH  16  17
ENDBRANCH   2  16
TORSDOF 7
ENDMDL
MODEL 2
REMARK VINA RESULT:      -8.3      6.795     12.322
REMARK  7 active torsions:
REMARK  status: ('A' for Active; 'I' for Inactive)
REMARK    1  A    between atoms: C16_23  and  O2_2 
REMARK    2  A    between atoms: C6_13  and  O2_2 
REMARK    3  A    between atoms: C16_23  and  O3_3 
REMARK    4  A    between atoms: C7_14  and  O3_3 
REMARK    5  A    between atoms: C3_10  and  N1_7 
REMARK       I    between atoms: C8_15  and  N1_7 
REMARK    6  A    between atoms: C2_9  and  C8_15 
REMARK    7  A    between atoms: C3_10  and  C7_14 
ROOT
HETATM    1  O4  UNK     1      20.790  -4.697  36.812  1.00  0.00    -0.267 OA
HETATM    2  N1  UNK     1      18.492  -5.036  36.610  1.00  0.00    -0.355 N 
HETATM    3  C8  UNK     1      19.653  -4.283  36.595  1.00  0.00     0.257 C 
HETATM    4  H7  UNK     1      17.594  -4.595  36.436  1.00  0.00     0.162 HD
ENDROOT
BRANCH   3   5
HETATM    5  C2  UNK     1      19.412  -2.870  36.279  1.00  0.00     0.108 A 
HETATM    6  C10 UNK     1      19.932  -2.242  35.044  1.00  0.00     0.304 A 
HETATM    7  O1  UNK     1      19.637  -0.895  34.855  1.00  0.00    -0.274 OA
HETATM    8  O5  UNK     1      20.591  -2.872  34.224  1.00  0.00    -0.259 OA
HETATM    9  C4  UNK     1      18.882  -0.161  35.791  1.00  0.00     0.089 A 
HETATM   10  C1  UNK     1      18.402  -0.772  36.946  1.00  0.00    -0.001 A 
HETATM   11  C11 UNK     1      18.637   1.182  35.515  1.00  0.00     0.038 A 
HETATM   12  C5  UNK     1      18.694  -2.179  37.171  1.00  0.00     0.037 A 
HETATM   13  C9  UNK     1      17.656  -0.011  37.849  1.00  0.00     0.014 A 
HETATM   14  C14 UNK     1      17.403   1.339  37.587  1.00  0.00     0.001 A 
HETATM   15  C15 UNK     1      17.892   1.934  36.421  1.00  0.00     0.003 A 
ENDBRANCH   3   5
BRANCH   2  16
HETATM   16  C3  UNK     1      18.476  -6.453  36.894  1.00  0.00     0.149 C 
BRANCH  16  17
HETATM   17  C7  UNK     1      18.456  -7.277  35.620  1.00  0.00     0.200 C 
BRANCH  17  18
HETATM   18  O3  UNK     1      19.628  -8.079  35.558  1.00  0.00    -0.296 OA
BRANCH  18  19
HETATM   19  C16 UNK     1      20.615  -7.633  34.725  1.00  0.00     0.406 C 
HETATM   20  O6  UNK     1      20.605  -6.574  34.111  1.00  0.00    -0.229 OA
BRANCH  19  21
HETATM   21  O2  UNK     1      21.608  -8.565  34.697  1.00  0.00    -0.293 OA
BRANCH  21  22
HETATM   22  C6  UNK     1      21.616  -9.490  35.790  1.00  0.00     0.126 C 
HETATM   23  C12 UNK     1      22.744  -9.127  36.744  1.00  0.00     0.040 C 
HETATM   24  C13 UNK     1      21.765 -10.903  35.248  1.00  0.00     0.040 C 
ENDBRANCH  21  22
ENDBRANCH  19  21
ENDBRANCH  18  19
ENDBRANCH  17  18
ENDBRANCH  16  17
ENDBRANCH   2  16
TORSDOF 7
ENDMDL
MODEL 3
REMARK VINA RESULT:      -8.3      3.326      5.932
REMARK  7 active torsions:
REMARK  status: ('A' for Active; 'I' for Inactive)
REMARK    1  A    between atoms: C16_23  and  O2_2 
REMARK    2  A    between atoms: C6_13  and  O2_2 
REMARK    3  A    between atoms: C16_23  and  O3_3 
REMARK    4  A    between atoms: C7_14  and  O3_3 
REMARK    5  A    between atoms: C3_10  and  N1_7 
REMARK       I    between atoms: C8_15  and  N1_7 
REMARK    6  A    between atoms: C2_9  and  C8_15 
REMARK    7  A    between atoms: C3_10  and  C7_14 
ROOT
HETATM    1  O4  UNK     1      20.001  -2.601  31.228  1.00  0.00    -0.267 OA
HETATM    2  N1  UNK     1      20.140  -0.273  31.220  1.00  0.00    -0.355 N 
HETATM    3  C8  UNK     1      19.869  -1.510  31.779  1.00  0.00     0.257 C 
HETATM    4  H7  UNK     1      19.979   0.576  31.753  1.00  0.00     0.162 HD
ENDROOT
BRANCH   3   5
HETATM    5  C2  UNK     1      19.388  -1.417  33.163  1.00  0.00     0.108 A 
HETATM    6  C10 UNK     1      19.993  -2.206  34.259  1.00  0.00     0.304 A 
HETATM    7  O1  UNK     1      19.450  -2.030  35.529  1.00  0.00    -0.274 OA
HETATM    8  O5  UNK     1      20.927  -2.977  34.064  1.00  0.00    -0.259 OA
HETATM    9  C4  UNK     1      18.378  -1.148  35.763  1.00  0.00     0.089 A 
HETATM   10  C1  UNK     1      17.824  -0.415  34.718  1.00  0.00    -0.001 A 
HETATM   11  C11 UNK     1      17.903  -1.039  37.069  1.00  0.00     0.038 A 
HETATM   12  C5  UNK     1      18.370  -0.576  33.379  1.00  0.00     0.037 A 
HETATM   13  C9  UNK     1      16.762   0.451  34.990  1.00  0.00     0.014 A 
HETATM   14  C14 UNK     1      16.274   0.570  36.295  1.00  0.00     0.001 A 
HETATM   15  C15 UNK     1      16.843  -0.173  37.332  1.00  0.00     0.003 A 
ENDBRANCH   3   5
BRANCH   2  16
HETATM   16  C3  UNK     1      20.627  -0.110  29.869  1.00  0.00     0.149 C 
BRANCH  16  17
HETATM   17  C7  UNK     1      19.520   0.325  28.926  1.00  0.00     0.200 C 
BRANCH  17  18
HETATM   18  O3  UNK     1      18.423   0.819  29.683  1.00  0.00    -0.296 OA
BRANCH  18  19
HETATM   19  C16 UNK     1      17.920   2.027  29.287  1.00  0.00     0.406 C 
HETATM   20  O6  UNK     1      17.889   2.444  28.137  1.00  0.00    -0.229 OA
BRANCH  19  21
HETATM   21  O2  UNK     1      17.460   2.682  30.389  1.00  0.00    -0.293 OA
BRANCH  21  22
HETATM   22  C6  UNK     1      18.466   3.245  31.238  1.00  0.00     0.126 C 
HETATM   23  C12 UNK     1      18.016   3.138  32.687  1.00  0.00     0.040 C 
HETATM   24  C13 UNK     1      18.718   4.687  30.827  1.00  0.00     0.040 C 
ENDBRANCH  21  22
ENDBRANCH  19  21
ENDBRANCH  18  19
ENDBRANCH  17  18
ENDBRANCH  16  17
ENDBRANCH   2  16
TORSDOF 7
ENDMDL
MODEL 4
REMARK VINA RESULT:      -8.2      2.129      7.402
REMARK  7 active torsions:
REMARK  status: ('A' for Active; 'I' for Inactive)
REMARK    1  A    between atoms: C16_23  and  O2_2 
REMARK    2  A    between atoms: C6_13  and  O2_2 
REMARK    3  A    between atoms: C16_23  and  O3_3 
REMARK    4  A    between atoms: C7_14  and  O3_3 
REMARK    5  A    between atoms: C3_10  and  N1_7 
REMARK       I    between atoms: C8_15  and  N1_7 
REMARK    6  A    between atoms: C2_9  and  C8_15 
REMARK    7  A    between atoms: C3_10  and  C7_14 
ROOT
HETATM    1  O4  UNK     1      17.046   2.748  30.742  1.00  0.00    -0.267 OA
HETATM    2  N1  UNK     1      19.348   2.617  30.395  1.00  0.00    -0.355 N 
HETATM    3  C8  UNK     1      18.181   3.211  30.842  1.00  0.00     0.257 C 
HETATM    4  H7  UNK     1      20.239   3.091  30.509  1.00  0.00     0.162 HD
ENDROOT
BRANCH   3   5
HETATM    5  C2  UNK     1      18.412   4.509  31.487  1.00  0.00     0.108 A 
HETATM    6  C10 UNK     1      19.407   5.476  30.972  1.00  0.00     0.304 A 
HETATM    7  O1  UNK     1      19.533   6.674  31.670  1.00  0.00    -0.274 OA
HETATM    8  O5  UNK     1      20.088   5.239  29.980  1.00  0.00    -0.259 OA
HETATM    9  C4  UNK     1      18.756   6.956  32.810  1.00  0.00     0.089 A 
HETATM   10  C1  UNK     1      17.826   6.032  33.278  1.00  0.00    -0.001 A 
HETATM   11  C11 UNK     1      18.954   8.182  33.442  1.00  0.00     0.038 A 
HETATM   12  C5  UNK     1      17.670   4.771  32.569  1.00  0.00     0.037 A 
HETATM   13  C9  UNK     1      17.073   6.348  34.411  1.00  0.00     0.014 A 
HETATM   14  C14 UNK     1      17.261   7.575  35.056  1.00  0.00     0.001 A 
HETATM   15  C15 UNK     1      18.199   8.489  34.572  1.00  0.00     0.003 A 
ENDBRANCH   3   5
BRANCH   2  16
HETATM   16  C3  UNK     1      19.375   1.334  29.731  1.00  0.00     0.149 C 
BRANCH  16  17
HETATM   17  C7  UNK     1      19.889   0.241  30.649  1.00  0.00     0.200 C 
BRANCH  17  18
HETATM   18  O3  UNK     1      18.803  -0.309  31.383  1.00  0.00    -0.296 OA
BRANCH  18  19
HETATM   19  C16 UNK     1      18.945  -0.321  32.742  1.00  0.00     0.406 C 
HETATM   20  O6  UNK     1      19.387  -1.250  33.404  1.00  0.00    -0.229 OA
BRANCH  19  21
HETATM   21  O2  UNK     1      18.513   0.876  33.230  1.00  0.00    -0.293 OA
BRANCH  21  22
HETATM   22  C6  UNK     1      18.213   0.900  34.630  1.00  0.00     0.126 C 
HETATM   23  C12 UNK     1      16.745   0.558  34.834  1.00  0.00     0.040 C 
HETATM   24  C13 UNK     1      18.559   2.270  35.191  1.00  0.00     0.040 C 
ENDBRANCH  21  22
ENDBRANCH  19  21
ENDBRANCH  18  19
ENDBRANCH  17  18
ENDBRANCH  16  17
ENDBRANCH   2  16
TORSDOF 7
ENDMDL
MODEL 5
REMARK VINA RESULT:      -8.0      1.586      2.507
REMARK  7 active torsions:
REMARK  status: ('A' for Active; 'I' for Inactive)
REMARK    1  A    between atoms: C16_23  and  O2_2 
REMARK    2  A    between atoms: C6_13  and  O2_2 
REMARK    3  A    between atoms: C16_23  and  O3_3 
REMARK    4  A    between atoms: C7_14  and  O3_3 
REMARK    5  A    between atoms: C3_10  and  N1_7 
REMARK       I    between atoms: C8_15  and  N1_7 
REMARK    6  A    between atoms: C2_9  and  C8_15 
REMARK    7  A    between atoms: C3_10  and  C7_14 
ROOT
HETATM    1  O4  UNK     1      17.478   3.598  31.832  1.00  0.00    -0.267 OA
HETATM    2  N1  UNK     1      18.984   4.575  30.343  1.00  0.00    -0.355 N 
HETATM    3  C8  UNK     1      18.328   3.517  30.947  1.00  0.00     0.257 C 
HETATM    4  H7  UNK     1      19.687   4.402  29.631  1.00  0.00     0.162 HD
ENDROOT
BRANCH   3   5
HETATM    5  C2  UNK     1      18.742   2.212  30.418  1.00  0.00     0.108 A 
HETATM    6  C10 UNK     1      18.581   1.856  28.991  1.00  0.00     0.304 A 
HETATM    7  O1  UNK     1      19.013   0.588  28.610  1.00  0.00    -0.274 OA
HETATM    8  O5  UNK     1      18.092   2.634  28.179  1.00  0.00    -0.259 OA
HETATM    9  C4  UNK     1      19.576  -0.314  29.534  1.00  0.00     0.089 A 
HETATM   10  C1  UNK     1      19.718   0.042  30.872  1.00  0.00    -0.001 A 
HETATM   11  C11 UNK     1      19.980  -1.560  29.058  1.00  0.00     0.038 A 
HETATM   12  C5  UNK     1      19.276   1.360  31.301  1.00  0.00     0.037 A 
HETATM   13  C9  UNK     1      20.282  -0.880  31.757  1.00  0.00     0.014 A 
HETATM   14  C14 UNK     1      20.691  -2.135  31.295  1.00  0.00     0.001 A 
HETATM   15  C15 UNK     1      20.541  -2.473  29.948  1.00  0.00     0.003 A 
ENDBRANCH   3   5
BRANCH   2  16
HETATM   16  C3  UNK     1      18.741   5.955  30.695  1.00  0.00     0.149 C 
BRANCH  16  17
HETATM   17  C7  UNK     1      19.567   6.378  31.896  1.00  0.00     0.200 C 
BRANCH  17  18
HETATM   18  O3  UNK     1      18.837   7.333  32.657  1.00  0.00    -0.296 OA
BRANCH  18  19
HETATM   19  C16 UNK     1      17.926   6.824  33.540  1.00  0.00     0.406 C 
HETATM   20  O6  UNK     1      18.016   5.748  34.116  1.00  0.00    -0.229 OA
BRANCH  19  21
HETATM   21  O2  UNK     1      16.906   7.718  33.666  1.00  0.00    -0.293 OA
BRANCH  21  22
HETATM   22  C6  UNK     1      15.628   7.266  33.207  1.00  0.00     0.126 C 
HETATM   23  C12 UNK     1      15.500   7.553  31.718  1.00  0.00     0.040 C 
HETATM   24  C13 UNK     1      14.535   7.951  34.011  1.00  0.00     0.040 C 
ENDBRANCH  21  22
ENDBRANCH  19  21
ENDBRANCH  18  19
ENDBRANCH  17  18
ENDBRANCH  16  17
ENDBRANCH   2  16
TORSDOF 7
ENDMDL
MODEL 6
REMARK VINA RESULT:      -8.0      5.217      9.992
REMARK  7 active torsions:
REMARK  status: ('A' for Active; 'I' for Inactive)
REMARK    1  A    between atoms: C16_23  and  O2_2 
REMARK    2  A    between atoms: C6_13  and  O2_2 
REMARK    3  A    between atoms: C16_23  and  O3_3 
REMARK    4  A    between atoms: C7_14  and  O3_3 
REMARK    5  A    between atoms: C3_10  and  N1_7 
REMARK       I    between atoms: C8_15  and  N1_7 
REMARK    6  A    between atoms: C2_9  and  C8_15 
REMARK    7  A    between atoms: C3_10  and  C7_14 
ROOT
HETATM    1  O4  UNK     1      17.363  -0.605  35.714  1.00  0.00    -0.267 OA
HETATM    2  N1  UNK     1      19.080  -2.162  35.459  1.00  0.00    -0.355 N 
HETATM    3  C8  UNK     1      18.275  -1.109  35.062  1.00  0.00     0.257 C 
HETATM    4  H7  UNK     1      19.797  -2.520  34.837  1.00  0.00     0.162 HD
ENDROOT
BRANCH   3   5
HETATM    5  C2  UNK     1      18.614  -0.604  33.726  1.00  0.00     0.108 A 
HETATM    6  C10 UNK     1      18.340   0.793  33.321  1.00  0.00     0.304 A 
HETATM    7  O1  UNK     1      18.708   1.153  32.028  1.00  0.00    -0.274 OA
HETATM    8  O5  UNK     1      17.813   1.597  34.083  1.00  0.00    -0.259 OA
HETATM    9  C4  UNK     1      19.312   0.237  31.145  1.00  0.00     0.089 A 
HETATM   10  C1  UNK     1      19.562  -1.072  31.546  1.00  0.00    -0.001 A 
HETATM   11  C11 UNK     1      19.647   0.691  29.870  1.00  0.00     0.038 A 
HETATM   12  C5  UNK     1      19.189  -1.478  32.892  1.00  0.00     0.037 A 
HETATM   13  C9  UNK     1      20.164  -1.950  30.643  1.00  0.00     0.014 A 
HETATM   14  C14 UNK     1      20.505  -1.510  29.360  1.00  0.00     0.001 A 
HETATM   15  C15 UNK     1      20.247  -0.192  28.975  1.00  0.00     0.003 A 
ENDBRANCH   3   5
BRANCH   2  16
HETATM   16  C3  UNK     1      18.938  -2.823  36.736  1.00  0.00     0.149 C 
BRANCH  16  17
HETATM   17  C7  UNK     1      20.287  -3.099  37.374  1.00  0.00     0.200 C 
BRANCH  17  18
HETATM   18  O3  UNK     1      20.815  -4.312  36.853  1.00  0.00    -0.296 OA
BRANCH  18  19
HETATM   19  C16 UNK     1      21.335  -5.181  37.771  1.00  0.00     0.406 C 
HETATM   20  O6  UNK     1      22.522  -5.441  37.915  1.00  0.00    -0.229 OA
BRANCH  19  21
HETATM   21  O2  UNK     1      20.307  -5.703  38.497  1.00  0.00    -0.293 OA
BRANCH  21  22
HETATM   22  C6  UNK     1      19.943  -7.050  38.173  1.00  0.00     0.126 C 
HETATM   23  C12 UNK     1      18.537  -7.062  37.592  1.00  0.00     0.040 C 
HETATM   24  C13 UNK     1      20.049  -7.911  39.421  1.00  0.00     0.040 C 
ENDBRANCH  21  22
ENDBRANCH  19  21
ENDBRANCH  18  19
ENDBRANCH  17  18
ENDBRANCH  16  17
ENDBRANCH   2  16
TORSDOF 7
ENDMDL
MODEL 7
REMARK VINA RESULT:      -7.9      3.119      5.227
REMARK  7 active torsions:
REMARK  status: ('A' for Active; 'I' for Inactive)
REMARK    1  A    between atoms: C16_23  and  O2_2 
REMARK    2  A    between atoms: C6_13  and  O2_2 
REMARK    3  A    between atoms: C16_23  and  O3_3 
REMARK    4  A    between atoms: C7_14  and  O3_3 
REMARK    5  A    between atoms: C3_10  and  N1_7 
REMARK       I    between atoms: C8_15  and  N1_7 
REMARK    6  A    between atoms: C2_9  and  C8_15 
REMARK    7  A    between atoms: C3_10  and  C7_14 
ROOT
HETATM    1  O4  UNK     1      19.897  -2.240  30.556  1.00  0.00    -0.267 OA
HETATM    2  N1  UNK     1      19.404   0.008  30.931  1.00  0.00    -0.355 N 
HETATM    3  C8  UNK     1      19.622  -1.306  31.307  1.00  0.00     0.257 C 
HETATM    4  H7  UNK     1      19.163   0.706  31.628  1.00  0.00     0.162 HD
ENDROOT
BRANCH   3   5
HETATM    5  C2  UNK     1      19.497  -1.514  32.754  1.00  0.00     0.108 A 
HETATM    6  C10 UNK     1      20.366  -2.459  33.490  1.00  0.00     0.304 A 
HETATM    7  O1  UNK     1      20.151  -2.568  34.861  1.00  0.00    -0.274 OA
HETATM    8  O5  UNK     1      21.234  -3.116  32.925  1.00  0.00    -0.259 OA
HETATM    9  C4  UNK     1      19.157  -1.818  35.520  1.00  0.00     0.089 A 
HETATM   10  C1  UNK     1      18.351  -0.935  34.809  1.00  0.00    -0.001 A 
HETATM   11  C11 UNK     1      19.018  -1.995  36.895  1.00  0.00     0.038 A 
HETATM   12  C5  UNK     1      18.551  -0.798  33.374  1.00  0.00     0.037 A 
HETATM   13  C9  UNK     1      17.377  -0.208  35.497  1.00  0.00     0.014 A 
HETATM   14  C14 UNK     1      17.225  -0.375  36.878  1.00  0.00     0.001 A 
HETATM   15  C15 UNK     1      18.044  -1.266  37.574  1.00  0.00     0.003 A 
ENDBRANCH   3   5
BRANCH   2  16
HETATM   16  C3  UNK     1      19.475   0.457  29.560  1.00  0.00     0.149 C 
BRANCH  16  17
HETATM   17  C7  UNK     1      18.521   1.608  29.300  1.00  0.00     0.200 C 
BRANCH  17  18
HETATM   18  O3  UNK     1      19.013   2.781  29.935  1.00  0.00    -0.296 OA
BRANCH  18  19
HETATM   19  C16 UNK     1      18.307   3.212  31.023  1.00  0.00     0.406 C 
HETATM   20  O6  UNK     1      17.749   2.493  31.841  1.00  0.00    -0.229 OA
BRANCH  19  21
HETATM   21  O2  UNK     1      18.335   4.574  31.040  1.00  0.00    -0.293 OA
BRANCH  21  22
HETATM   22  C6  UNK     1      18.520   5.172  32.328  1.00  0.00     0.126 C 
HETATM   23  C12 UNK     1      17.264   5.943  32.707  1.00  0.00     0.040 C 
HETATM   24  C13 UNK     1      19.747   6.070  32.291  1.00  0.00     0.040 C 
ENDBRANCH  21  22
ENDBRANCH  19  21
ENDBRANCH  18  19
ENDBRANCH  17  18
ENDBRANCH  16  17
ENDBRANCH   2  16
TORSDOF 7
ENDMDL
MODEL 8
REMARK VINA RESULT:      -7.8      1.357      1.531
REMARK  7 active torsions:
REMARK  status: ('A' for Active; 'I' for Inactive)
REMARK    1  A    between atoms: C16_23  and  O2_2 
REMARK    2  A    between atoms: C6_13  and  O2_2 
REMARK    3  A    between atoms: C16_23  and  O3_3 
REMARK    4  A    between atoms: C7_14  and  O3_3 
REMARK    5  A    between atoms: C3_10  and  N1_7 
REMARK       I    between atoms: C8_15  and  N1_7 
REMARK    6  A    between atoms: C2_9  and  C8_15 
REMARK    7  A    between atoms: C3_10  and  C7_14 
ROOT
HETATM    1  O4  UNK     1      17.150   4.179  31.533  1.00  0.00    -0.267 OA
HETATM    2  N1  UNK     1      19.359   4.602  30.916  1.00  0.00    -0.355 N 
HETATM    3  C8  UNK     1      18.297   3.802  31.301  1.00  0.00     0.257 C 
HETATM    4  H7  UNK     1      20.277   4.196  30.766  1.00  0.00     0.162 HD
ENDROOT
BRANCH   3   5
HETATM    5  C2  UNK     1      18.663   2.385  31.413  1.00  0.00     0.108 A 
HETATM    6  C10 UNK     1      18.412   1.604  32.645  1.00  0.00     0.304 A 
HETATM    7  O1  UNK     1      18.802   0.268  32.629  1.00  0.00    -0.274 OA
HETATM    8  O5  UNK     1      17.886   2.105  33.634  1.00  0.00    -0.259 OA
HETATM    9  C4  UNK     1      19.407  -0.316  31.500  1.00  0.00     0.089 A 
HETATM   10  C1  UNK     1      19.634   0.436  30.351  1.00  0.00    -0.001 A 
HETATM   11  C11 UNK     1      19.763  -1.661  31.579  1.00  0.00     0.038 A 
HETATM   12  C5  UNK     1      19.236   1.835  30.336  1.00  0.00     0.037 A 
HETATM   13  C9  UNK     1      20.235  -0.179  29.251  1.00  0.00     0.014 A 
HETATM   14  C14 UNK     1      20.598  -1.528  29.315  1.00  0.00     0.001 A 
HETATM   15  C15 UNK     1      20.362  -2.267  30.477  1.00  0.00     0.003 A 
ENDBRANCH   3   5
BRANCH   2  16
HETATM   16  C3  UNK     1      19.243   6.031  30.736  1.00  0.00     0.149 C 
BRANCH  16  17
HETATM   17  C7  UNK     1      18.860   6.727  32.029  1.00  0.00     0.200 C 
BRANCH  17  18
HETATM   18  O3  UNK     1      18.153   7.923  31.729  1.00  0.00    -0.296 OA
BRANCH  18  19
HETATM   19  C16 UNK     1      16.793   7.808  31.645  1.00  0.00     0.406 C 
HETATM   20  O6  UNK     1      16.088   8.301  30.775  1.00  0.00    -0.229 OA
BRANCH  19  21
HETATM   21  O2  UNK     1      16.361   7.053  32.694  1.00  0.00    -0.293 OA
BRANCH  21  22
HETATM   22  C6  UNK     1      15.840   7.785  33.809  1.00  0.00     0.126 C 
HETATM   23  C12 UNK     1      16.598   7.389  35.067  1.00  0.00     0.040 C 
HETATM   24  C13 UNK     1      14.350   7.512  33.935  1.00  0.00     0.040 C 
ENDBRANCH  21  22
ENDBRANCH  19  21
ENDBRANCH  18  19
ENDBRANCH  17  18
ENDBRANCH  16  17
ENDBRANCH   2  16
TORSDOF 7
ENDMDL
MODEL 9
REMARK VINA RESULT:      -7.8      1.797      2.217
REMARK  7 active torsions:
REMARK  status: ('A' for Active; 'I' for Inactive)
REMARK    1  A    between atoms: C16_23  and  O2_2 
REMARK    2  A    between atoms: C6_13  and  O2_2 
REMARK    3  A    between atoms: C16_23  and  O3_3 
REMARK    4  A    between atoms: C7_14  and  O3_3 
REMARK    5  A    between atoms: C3_10  and  N1_7 
REMARK       I    between atoms: C8_15  and  N1_7 
REMARK    6  A    between atoms: C2_9  and  C8_15 
REMARK    7  A    between atoms: C3_10  and  C7_14 
ROOT
HETATM    1  O4  UNK     1      18.978   4.657  30.323  1.00  0.00    -0.267 OA
HETATM    2  N1  UNK     1      17.445   4.432  32.066  1.00  0.00    -0.355 N 
HETATM    3  C8  UNK     1      18.404   3.982  31.175  1.00  0.00     0.257 C 
HETATM    4  H7  UNK     1      17.014   3.789  32.722  1.00  0.00     0.162 HD
ENDROOT
BRANCH   3   5
HETATM    5  C2  UNK     1      18.707   2.555  31.336  1.00  0.00     0.108 A 
HETATM    6  C10 UNK     1      18.428   1.830  32.596  1.00  0.00     0.304 A 
HETATM    7  O1  UNK     1      18.759   0.478  32.626  1.00  0.00    -0.274 OA
HETATM    8  O5  UNK     1      17.931   2.387  33.569  1.00  0.00    -0.259 OA
HETATM    9  C4  UNK     1      19.331  -0.172  31.515  1.00  0.00     0.089 A 
HETATM   10  C1  UNK     1      19.585   0.529  30.340  1.00  0.00    -0.001 A 
HETATM   11  C11 UNK     1      19.628  -1.528  31.640  1.00  0.00     0.038 A 
HETATM   12  C5  UNK     1      19.250   1.943  30.277  1.00  0.00     0.037 A 
HETATM   13  C9  UNK     1      20.152  -0.151  29.259  1.00  0.00     0.014 A 
HETATM   14  C14 UNK     1      20.456  -1.511  29.370  1.00  0.00     0.001 A 
HETATM   15  C15 UNK     1      20.193  -2.198  30.558  1.00  0.00     0.003 A 
ENDBRANCH   3   5
BRANCH   2  16
HETATM   16  C3  UNK     1      16.984   5.801  32.101  1.00  0.00     0.149 C 
BRANCH  16  17
HETATM   17  C7  UNK     1      17.117   6.399  33.489  1.00  0.00     0.200 C 
BRANCH  17  18
HETATM   18  O3  UNK     1      18.293   5.895  34.109  1.00  0.00    -0.296 OA
BRANCH  18  19
HETATM   19  C16 UNK     1      19.421   6.653  33.957  1.00  0.00     0.406 C 
HETATM   20  O6  UNK     1      20.394   6.354  33.278  1.00  0.00    -0.229 OA
BRANCH  19  21
HETATM   21  O2  UNK     1      19.273   7.793  34.688  1.00  0.00    -0.293 OA
BRANCH  21  22
HETATM   22  C6  UNK     1      19.553   9.013  33.993  1.00  0.00     0.126 C 
HETATM   23  C12 UNK     1      20.721   9.717  34.669  1.00  0.00     0.040 C 
HETATM   24  C13 UNK     1      18.303   9.878  33.976  1.00  0.00     0.040 C 
ENDBRANCH  21  22
ENDBRANCH  19  21
ENDBRANCH  18  19
ENDBRANCH  17  18
ENDBRANCH  16  17
ENDBRANCH   2  16
TORSDOF 7
ENDMDL
MODEL 10
REMARK VINA RESULT:      -7.8      6.794     10.357
REMARK  7 active torsions:
REMARK  status: ('A' for Active; 'I' for Inactive)
REMARK    1  A    between atoms: C16_23  and  O2_2 
REMARK    2  A    between atoms: C6_13  and  O2_2 
REMARK    3  A    between atoms: C16_23  and  O3_3 
REMARK    4  A    between atoms: C7_14  and  O3_3 
REMARK    5  A    between atoms: C3_10  and  N1_7 
REMARK       I    between atoms: C8_15  and  N1_7 
REMARK    6  A    between atoms: C2_9  and  C8_15 
REMARK    7  A    between atoms: C3_10  and  C7_14 
ROOT
HETATM    1  O4  UNK     1      21.035  -3.946  37.642  1.00  0.00    -0.267 OA
HETATM    2  N1  UNK     1      18.974  -3.878  36.554  1.00  0.00    -0.355 N 
HETATM    3  C8  UNK     1      20.080  -4.502  37.103  1.00  0.00     0.257 C 
HETATM    4  H7  UNK     1      18.243  -4.427  36.112  1.00  0.00     0.162 HD
ENDROOT
BRANCH   3   5
HETATM    5  C2  UNK     1      20.023  -5.964  36.992  1.00  0.00     0.108 A 
HETATM    6  C10 UNK     1      20.151  -6.659  35.692  1.00  0.00     0.304 A 
HETATM    7  O1  UNK     1      20.082  -8.049  35.717  1.00  0.00    -0.274 OA
HETATM    8  O5  UNK     1      20.311  -6.046  34.642  1.00  0.00    -0.259 OA
HETATM    9  C4  UNK     1      19.898  -8.764  36.916  1.00  0.00     0.089 A 
HETATM   10  C1  UNK     1      19.780  -8.090  38.129  1.00  0.00    -0.001 A 
HETATM   11  C11 UNK     1      19.842 -10.154  36.840  1.00  0.00     0.038 A 
HETATM   12  C5  UNK     1      19.849  -6.637  38.136  1.00  0.00     0.037 A 
HETATM   13  C9  UNK     1      19.600  -8.833  39.297  1.00  0.00     0.014 A 
HETATM   14  C14 UNK     1      19.541 -10.229  39.237  1.00  0.00     0.001 A 
HETATM   15  C15 UNK     1      19.662 -10.888  38.011  1.00  0.00     0.003 A 
ENDBRANCH   3   5
BRANCH   2  16
HETATM   16  C3  UNK     1      18.803  -2.443  36.546  1.00  0.00     0.149 C 
BRANCH  16  17
HETATM   17  C7  UNK     1      19.750  -1.774  35.568  1.00  0.00     0.200 C 
BRANCH  17  18
HETATM   18  O3  UNK     1      19.073  -0.714  34.904  1.00  0.00    -0.296 OA
BRANCH  18  19
HETATM   19  C16 UNK     1      18.710  -0.955  33.608  1.00  0.00     0.406 C 
HETATM   20  O6  UNK     1      17.563  -1.044  33.194  1.00  0.00    -0.229 OA
BRANCH  19  21
HETATM   21  O2  UNK     1      19.843  -1.078  32.862  1.00  0.00    -0.293 OA
BRANCH  21  22
HETATM   22  C6  UNK     1      19.645  -1.147  31.446  1.00  0.00     0.126 C 
HETATM   23  C12 UNK     1      20.482  -2.283  30.878  1.00  0.00     0.040 C 
HETATM   24  C13 UNK     1      20.011   0.192  30.823  1.00  0.00     0.040 C 
ENDBRANCH  21  22
ENDBRANCH  19  21
ENDBRANCH  18  19
ENDBRANCH  17  18
ENDBRANCH  16  17
ENDBRANCH   2  16
TORSDOF 7
ENDMDL
