MODEL 1
REMARK VINA RESULT:      -7.4      0.000      0.000
REMARK  3 active torsions:
REMARK  status: ('A' for Active; 'I' for Inactive)
REMARK    1  A    between atoms: C14_19  and  O3_3 
REMARK    2  A    between atoms: C3_8  and  N1_5 
REMARK    3  A    between atoms: C3_8  and  C6_11 
ROOT
HETATM    1  O2  UNK     1      18.830   1.090  33.218  1.00  0.00    -0.275 OA
HETATM    2  O4  UNK     1      18.520   1.590  35.428  1.00  0.00    -0.260 OA
HETATM    3  C6  UNK     1      18.041   3.738  32.610  1.00  0.00    -0.011 A 
HETATM    4  C7  UNK     1      18.408   2.807  31.534  1.00  0.00     0.006 A 
HETATM    5  C8  UNK     1      18.087   3.312  33.881  1.00  0.00     0.092 A 
HETATM    6  C9  UNK     1      18.793   1.509  31.874  1.00  0.00     0.093 A 
HETATM    7  C10 UNK     1      18.397   3.147  30.175  1.00  0.00     0.017 A 
HETATM    8  C11 UNK     1      18.491   1.945  34.255  1.00  0.00     0.288 A 
HETATM    9  C12 UNK     1      19.157   0.563  30.914  1.00  0.00     0.075 A 
HETATM   10  C13 UNK     1      18.760   2.210  29.200  1.00  0.00     0.038 A 
HETATM   11  C14 UNK     1      19.140   0.921  29.570  1.00  0.00     0.070 A 
ENDROOT
BRANCH   3  12
HETATM   12  C3  UNK     1      17.623   5.139  32.278  1.00  0.00     0.312 C 
BRANCH  12  13
HETATM   13  N1  UNK     1      18.050   6.033  33.352  1.00  0.00     0.096 N 
HETATM   14  C1  UNK     1      16.922   6.840  33.838  1.00  0.00     0.299 C 
HETATM   15  C4  UNK     1      17.394   7.774  34.950  1.00  0.00     0.198 C 
HETATM   16  O1  UNK     1      18.445   8.617  34.478  1.00  0.00    -0.388 OA
HETATM   17  C5  UNK     1      19.559   7.841  34.033  1.00  0.00     0.198 C 
HETATM   18  C2  UNK     1      19.139   6.911  32.900  1.00  0.00     0.299 C 
ENDBRANCH  12  13
ENDBRANCH   3  12
BRANCH  11  19
HETATM   19  O3  UNK     1      19.493   0.015  28.618  1.00  0.00    -0.356 OA
HETATM   20  C15 UNK     1      20.557  -0.881  28.936  1.00  0.00     0.210 C 
ENDBRANCH  11  19
TORSDOF 3
ENDMDL
MODEL 2
REMARK VINA RESULT:      -7.3     15.552     16.883
REMARK  3 active torsions:
REMARK  status: ('A' for Active; 'I' for Inactive)
REMARK    1  A    between atoms: C14_19  and  O3_3 
REMARK    2  A    between atoms: C3_8  and  N1_5 
REMARK    3  A    between atoms: C3_8  and  C6_11 
ROOT
HETATM    1  O2  UNK     1      28.727  -5.545  39.562  1.00  0.00    -0.275 OA
HETATM    2  O4  UNK     1      29.496  -3.435  39.991  1.00  0.00    -0.260 OA
HETATM    3  C6  UNK     1      30.145  -5.459  37.116  1.00  0.00    -0.011 A 
HETATM    4  C7  UNK     1      29.369  -6.651  37.482  1.00  0.00     0.006 A 
HETATM    5  C8  UNK     1      30.170  -4.417  37.959  1.00  0.00     0.092 A 
HETATM    6  C9  UNK     1      28.682  -6.656  38.697  1.00  0.00     0.093 A 
HETATM    7  C10 UNK     1      29.275  -7.795  36.678  1.00  0.00     0.017 A 
HETATM    8  C11 UNK     1      29.452  -4.407  39.246  1.00  0.00     0.288 A 
HETATM    9  C12 UNK     1      27.922  -7.748  39.120  1.00  0.00     0.075 A 
HETATM   10  C13 UNK     1      28.517  -8.899  37.088  1.00  0.00     0.038 A 
HETATM   11  C14 UNK     1      27.842  -8.874  38.308  1.00  0.00     0.070 A 
ENDROOT
BRANCH   3  12
HETATM   12  C3  UNK     1      30.893  -5.422  35.816  1.00  0.00     0.312 C 
BRANCH  12  13
HETATM   13  N1  UNK     1      32.277  -5.029  36.072  1.00  0.00     0.096 N 
HETATM   14  C1  UNK     1      32.857  -4.369  34.894  1.00  0.00     0.299 C 
HETATM   15  C4  UNK     1      34.305  -3.979  35.180  1.00  0.00     0.198 C 
HETATM   16  O1  UNK     1      35.070  -5.131  35.534  1.00  0.00    -0.388 OA
HETATM   17  C5  UNK     1      34.531  -5.761  36.697  1.00  0.00     0.198 C 
HETATM   18  C2  UNK     1      33.090  -6.194  36.447  1.00  0.00     0.299 C 
ENDBRANCH  12  13
ENDBRANCH   3  12
BRANCH  11  19
HETATM   19  O3  UNK     1      27.109  -9.950  38.702  1.00  0.00    -0.356 OA
HETATM   20  C15 UNK     1      27.151 -10.294  40.086  1.00  0.00     0.210 C 
ENDBRANCH  11  19
TORSDOF 3
ENDMDL
MODEL 3
REMARK VINA RESULT:      -7.1     23.002     24.632
REMARK  3 active torsions:
REMARK  status: ('A' for Active; 'I' for Inactive)
REMARK    1  A    between atoms: C14_19  and  O3_3 
REMARK    2  A    between atoms: C3_8  and  N1_5 
REMARK    3  A    between atoms: C3_8  and  C6_11 
ROOT
HETATM    1  O2  UNK     1      16.490   5.875   9.859  1.00  0.00    -0.275 OA
HETATM    2  O4  UNK     1      15.682   3.736   9.885  1.00  0.00    -0.260 OA
HETATM    3  C6  UNK     1      13.816   6.778   9.678  1.00  0.00    -0.011 A 
HETATM    4  C7  UNK     1      14.924   7.743   9.709  1.00  0.00     0.006 A 
HETATM    5  C8  UNK     1      14.093   5.468   9.738  1.00  0.00     0.092 A 
HETATM    6  C9  UNK     1      16.230   7.258   9.799  1.00  0.00     0.093 A 
HETATM    7  C10 UNK     1      14.748   9.132   9.654  1.00  0.00     0.017 A 
HETATM    8  C11 UNK     1      15.466   4.942   9.834  1.00  0.00     0.288 A 
HETATM    9  C12 UNK     1      17.339   8.106   9.834  1.00  0.00     0.075 A 
HETATM   10  C13 UNK     1      15.850   9.995   9.689  1.00  0.00     0.038 A 
HETATM   11  C14 UNK     1      17.143   9.481   9.779  1.00  0.00     0.070 A 
ENDROOT
BRANCH   3  12
HETATM   12  C3  UNK     1      12.401   7.267   9.580  1.00  0.00     0.312 C 
BRANCH  12  13
HETATM   13  N1  UNK     1      11.727   6.564   8.490  1.00  0.00     0.096 N 
HETATM   14  C1  UNK     1      12.269   6.979   7.189  1.00  0.00     0.299 C 
HETATM   15  C4  UNK     1      11.543   6.242   6.067  1.00  0.00     0.198 C 
HETATM   16  O1  UNK     1      10.140   6.501   6.128  1.00  0.00    -0.388 OA
HETATM   17  C5  UNK     1       9.598   6.072   7.378  1.00  0.00     0.198 C 
HETATM   18  C2  UNK     1      10.277   6.805   8.531  1.00  0.00     0.299 C 
ENDBRANCH  12  13
ENDBRANCH   3  12
BRANCH  11  19
HETATM   19  O3  UNK     1      18.210  10.325   9.813  1.00  0.00    -0.356 OA
HETATM   20  C15 UNK     1      18.259  11.352   8.824  1.00  0.00     0.210 C 
ENDBRANCH  11  19
TORSDOF 3
ENDMDL
MODEL 4
REMARK VINA RESULT:      -7.0     22.837     24.463
REMARK  3 active torsions:
REMARK  status: ('A' for Active; 'I' for Inactive)
REMARK    1  A    between atoms: C14_19  and  O3_3 
REMARK    2  A    between atoms: C3_8  and  N1_5 
REMARK    3  A    between atoms: C3_8  and  C6_11 
ROOT
HETATM    1  O2  UNK     1      13.993   4.562   8.977  1.00  0.00    -0.275 OA
HETATM    2  O4  UNK     1      16.029   3.956   9.823  1.00  0.00    -0.260 OA
HETATM    3  C6  UNK     1      14.477   7.174   9.950  1.00  0.00    -0.011 A 
HETATM    4  C7  UNK     1      13.228   6.866   9.240  1.00  0.00     0.006 A 
HETATM    5  C8  UNK     1      15.380   6.199  10.127  1.00  0.00     0.092 A 
HETATM    6  C9  UNK     1      13.025   5.566   8.775  1.00  0.00     0.093 A 
HETATM    7  C10 UNK     1      12.219   7.808   8.999  1.00  0.00     0.017 A 
HETATM    8  C11 UNK     1      15.181   4.822   9.641  1.00  0.00     0.288 A 
HETATM    9  C12 UNK     1      11.867   5.190   8.092  1.00  0.00     0.075 A 
HETATM   10  C13 UNK     1      11.052   7.446   8.314  1.00  0.00     0.038 A 
HETATM   11  C14 UNK     1      10.877   6.139   7.862  1.00  0.00     0.070 A 
ENDROOT
BRANCH   3  12
HETATM   12  C3  UNK     1      14.724   8.562  10.463  1.00  0.00     0.312 C 
BRANCH  12  13
HETATM   13  N1  UNK     1      15.534   9.294   9.491  1.00  0.00     0.096 N 
HETATM   14  C1  UNK     1      16.785   9.763  10.103  1.00  0.00     0.299 C 
HETATM   15  C4  UNK     1      17.607  10.534   9.073  1.00  0.00     0.198 C 
HETATM   16  O1  UNK     1      16.857  11.636   8.562  1.00  0.00    -0.388 OA
HETATM   17  C5  UNK     1      15.654  11.185   7.937  1.00  0.00     0.198 C 
HETATM   18  C2  UNK     1      14.786  10.432   8.939  1.00  0.00     0.299 C 
ENDBRANCH  12  13
ENDBRANCH   3  12
BRANCH  11  19
HETATM   19  O3  UNK     1       9.742   5.794   7.196  1.00  0.00    -0.356 OA
HETATM   20  C15 UNK     1       9.654   6.170   5.822  1.00  0.00     0.210 C 
ENDBRANCH  11  19
TORSDOF 3
ENDMDL
MODEL 5
REMARK VINA RESULT:      -6.9      2.173      7.015
REMARK  3 active torsions:
REMARK  status: ('A' for Active; 'I' for Inactive)
REMARK    1  A    between atoms: C14_19  and  O3_3 
REMARK    2  A    between atoms: C3_8  and  N1_5 
REMARK    3  A    between atoms: C3_8  and  C6_11 
ROOT
HETATM    1  O2  UNK     1      20.360   7.064  33.465  1.00  0.00    -0.275 OA
HETATM    2  O4  UNK     1      22.337   6.308  32.600  1.00  0.00    -0.260 OA
HETATM    3  C6  UNK     1      19.030   5.610  31.436  1.00  0.00    -0.011 A 
HETATM    4  C7  UNK     1      18.260   6.388  32.417  1.00  0.00     0.006 A 
HETATM    5  C8  UNK     1      20.367   5.601  31.519  1.00  0.00     0.092 A 
HETATM    6  C9  UNK     1      18.953   7.092  33.403  1.00  0.00     0.093 A 
HETATM    7  C10 UNK     1      16.861   6.465  32.423  1.00  0.00     0.017 A 
HETATM    8  C11 UNK     1      21.112   6.339  32.555  1.00  0.00     0.288 A 
HETATM    9  C12 UNK     1      18.299   7.855  34.373  1.00  0.00     0.075 A 
HETATM   10  C13 UNK     1      16.191   7.226  33.389  1.00  0.00     0.038 A 
HETATM   11  C14 UNK     1      16.910   7.919  34.362  1.00  0.00     0.070 A 
ENDROOT
BRANCH   3  12
HETATM   12  C3  UNK     1      18.315   4.843  30.363  1.00  0.00     0.312 C 
BRANCH  12  13
HETATM   13  N1  UNK     1      18.812   3.469  30.346  1.00  0.00     0.096 N 
HETATM   14  C1  UNK     1      18.377   2.773  29.127  1.00  0.00     0.299 C 
HETATM   15  C4  UNK     1      18.897   1.337  29.137  1.00  0.00     0.198 C 
HETATM   16  O1  UNK     1      18.433   0.649  30.298  1.00  0.00    -0.388 OA
HETATM   17  C5  UNK     1      18.878   1.301  31.489  1.00  0.00     0.198 C 
HETATM   18  C2  UNK     1      18.357   2.734  31.535  1.00  0.00     0.299 C 
ENDBRANCH  12  13
ENDBRANCH   3  12
BRANCH  11  19
HETATM   19  O3  UNK     1      16.253   8.655  35.299  1.00  0.00    -0.356 OA
HETATM   20  C15 UNK     1      15.443   9.732  34.829  1.00  0.00     0.210 C 
ENDBRANCH  11  19
TORSDOF 3
ENDMDL
MODEL 6
REMARK VINA RESULT:      -6.9      2.844      7.966
REMARK  3 active torsions:
REMARK  status: ('A' for Active; 'I' for Inactive)
REMARK    1  A    between atoms: C14_19  and  O3_3 
REMARK    2  A    between atoms: C3_8  and  N1_5 
REMARK    3  A    between atoms: C3_8  and  C6_11 
ROOT
HETATM    1  O2  UNK     1      14.683   8.615  32.781  1.00  0.00    -0.275 OA
HETATM    2  O4  UNK     1      13.539   6.855  31.874  1.00  0.00    -0.260 OA
HETATM    3  C6  UNK     1      17.037   7.059  32.586  1.00  0.00    -0.011 A 
HETATM    4  C7  UNK     1      17.090   8.420  33.137  1.00  0.00     0.006 A 
HETATM    5  C8  UNK     1      15.857   6.569  32.179  1.00  0.00     0.092 A 
HETATM    6  C9  UNK     1      15.908   9.157  33.217  1.00  0.00     0.093 A 
HETATM    7  C10 UNK     1      18.268   9.029  33.591  1.00  0.00     0.017 A 
HETATM    8  C11 UNK     1      14.600   7.335  32.256  1.00  0.00     0.288 A 
HETATM    9  C12 UNK     1      15.872  10.456  33.727  1.00  0.00     0.075 A 
HETATM   10  C13 UNK     1      18.248  10.331  34.104  1.00  0.00     0.038 A 
HETATM   11  C14 UNK     1      17.051  11.043  34.172  1.00  0.00     0.070 A 
ENDROOT
BRANCH   3  12
HETATM   12  C3  UNK     1      18.290   6.240  32.488  1.00  0.00     0.312 C 
BRANCH  12  13
HETATM   13  N1  UNK     1      17.931   4.837  32.296  1.00  0.00     0.096 N 
HETATM   14  C1  UNK     1      18.332   4.032  33.458  1.00  0.00     0.299 C 
HETATM   15  C4  UNK     1      17.959   2.570  33.229  1.00  0.00     0.198 C 
HETATM   16  O1  UNK     1      18.580   2.077  32.042  1.00  0.00    -0.388 OA
HETATM   17  C5  UNK     1      18.170   2.834  30.902  1.00  0.00     0.198 C 
HETATM   18  C2  UNK     1      18.550   4.301  31.075  1.00  0.00     0.299 C 
ENDBRANCH  12  13
ENDBRANCH   3  12
BRANCH  11  19
HETATM   19  O3  UNK     1      17.038  12.308  34.670  1.00  0.00    -0.356 OA
HETATM   20  C15 UNK     1      18.302  12.917  34.933  1.00  0.00     0.210 C 
ENDBRANCH  11  19
TORSDOF 3
ENDMDL
MODEL 7
REMARK VINA RESULT:      -6.9     15.318     16.627
REMARK  3 active torsions:
REMARK  status: ('A' for Active; 'I' for Inactive)
REMARK    1  A    between atoms: C14_19  and  O3_3 
REMARK    2  A    between atoms: C3_8  and  N1_5 
REMARK    3  A    between atoms: C3_8  and  C6_11 
ROOT
HETATM    1  O2  UNK     1      30.746  -3.796  38.289  1.00  0.00    -0.275 OA
HETATM    2  O4  UNK     1      29.424  -3.553  40.139  1.00  0.00    -0.260 OA
HETATM    3  C6  UNK     1      29.061  -5.922  37.486  1.00  0.00    -0.011 A 
HETATM    4  C7  UNK     1      30.210  -5.532  36.657  1.00  0.00     0.006 A 
HETATM    5  C8  UNK     1      28.826  -5.254  38.625  1.00  0.00     0.092 A 
HETATM    6  C9  UNK     1      31.018  -4.478  37.087  1.00  0.00     0.093 A 
HETATM    7  C10 UNK     1      30.546  -6.159  35.450  1.00  0.00     0.017 A 
HETATM    8  C11 UNK     1      29.669  -4.139  39.091  1.00  0.00     0.288 A 
HETATM    9  C12 UNK     1      32.128  -4.045  36.359  1.00  0.00     0.075 A 
HETATM   10  C13 UNK     1      31.656  -5.736  34.709  1.00  0.00     0.038 A 
HETATM   11  C14 UNK     1      32.445  -4.680  35.163  1.00  0.00     0.070 A 
ENDROOT
BRANCH   3  12
HETATM   12  C3  UNK     1      28.174  -7.052  37.053  1.00  0.00     0.312 C 
BRANCH  12  13
HETATM   13  N1  UNK     1      27.895  -7.909  38.203  1.00  0.00     0.096 N 
HETATM   14  C1  UNK     1      28.764  -9.094  38.192  1.00  0.00     0.299 C 
HETATM   15  C4  UNK     1      28.447  -9.979  39.395  1.00  0.00     0.198 C 
HETATM   16  O1  UNK     1      27.073 -10.367  39.378  1.00  0.00    -0.388 OA
HETATM   17  C5  UNK     1      26.221  -9.221  39.421  1.00  0.00     0.198 C 
HETATM   18  C2  UNK     1      26.484  -8.319  38.219  1.00  0.00     0.299 C 
ENDBRANCH  12  13
ENDBRANCH   3  12
BRANCH  11  19
HETATM   19  O3  UNK     1      33.521  -4.272  34.438  1.00  0.00    -0.356 OA
HETATM   20  C15 UNK     1      34.788  -4.831  34.785  1.00  0.00     0.210 C 
ENDBRANCH  11  19
TORSDOF 3
ENDMDL
MODEL 8
REMARK VINA RESULT:      -6.9     15.344     17.554
REMARK  3 active torsions:
REMARK  status: ('A' for Active; 'I' for Inactive)
REMARK    1  A    between atoms: C14_19  and  O3_3 
REMARK    2  A    between atoms: C3_8  and  N1_5 
REMARK    3  A    between atoms: C3_8  and  C6_11 
ROOT
HETATM    1  O2  UNK     1      29.568  -9.373  38.241  1.00  0.00    -0.275 OA
HETATM    2  O4  UNK     1      31.437 -10.676  38.046  1.00  0.00    -0.260 OA
HETATM    3  C6  UNK     1      31.270  -7.115  38.318  1.00  0.00    -0.011 A 
HETATM    4  C7  UNK     1      29.813  -6.949  38.407  1.00  0.00     0.006 A 
HETATM    5  C8  UNK     1      31.777  -8.350  38.200  1.00  0.00     0.092 A 
HETATM    6  C9  UNK     1      29.006  -8.087  38.365  1.00  0.00     0.093 A 
HETATM    7  C10 UNK     1      29.178  -5.706  38.531  1.00  0.00     0.017 A 
HETATM    8  C11 UNK     1      30.938  -9.561  38.154  1.00  0.00     0.288 A 
HETATM    9  C12 UNK     1      27.614  -8.018  38.443  1.00  0.00     0.075 A 
HETATM   10  C13 UNK     1      27.782  -5.620  38.610  1.00  0.00     0.038 A 
HETATM   11  C14 UNK     1      27.003  -6.775  38.565  1.00  0.00     0.070 A 
ENDROOT
BRANCH   3  12
HETATM   12  C3  UNK     1      32.164  -5.911  38.361  1.00  0.00     0.312 C 
BRANCH  12  13
HETATM   13  N1  UNK     1      32.951  -5.856  37.130  1.00  0.00     0.096 N 
HETATM   14  C1  UNK     1      34.388  -5.944  37.427  1.00  0.00     0.299 C 
HETATM   15  C4  UNK     1      35.189  -5.872  36.129  1.00  0.00     0.198 C 
HETATM   16  O1  UNK     1      34.896  -4.663  35.430  1.00  0.00    -0.388 OA
HETATM   17  C5  UNK     1      33.506  -4.585  35.109  1.00  0.00     0.198 C 
HETATM   18  C2  UNK     1      32.666  -4.624  36.382  1.00  0.00     0.299 C 
ENDBRANCH  12  13
ENDBRANCH   3  12
BRANCH  11  19
HETATM   19  O3  UNK     1      25.647  -6.685  38.641  1.00  0.00    -0.356 OA
HETATM   20  C15 UNK     1      24.921  -7.907  38.765  1.00  0.00     0.210 C 
ENDBRANCH  11  19
TORSDOF 3
ENDMDL
MODEL 9
REMARK VINA RESULT:      -6.8     22.832     24.839
REMARK  3 active torsions:
REMARK  status: ('A' for Active; 'I' for Inactive)
REMARK    1  A    between atoms: C14_19  and  O3_3 
REMARK    2  A    between atoms: C3_8  and  N1_5 
REMARK    3  A    between atoms: C3_8  and  C6_11 
ROOT
HETATM    1  O2  UNK     1      15.811   6.187  10.224  1.00  0.00    -0.275 OA
HETATM    2  O4  UNK     1      15.424   3.956   9.906  1.00  0.00    -0.260 OA
HETATM    3  C6  UNK     1      13.919   6.705   8.186  1.00  0.00    -0.011 A 
HETATM    4  C7  UNK     1      14.600   7.816   8.865  1.00  0.00     0.006 A 
HETATM    5  C8  UNK     1      14.209   5.447   8.548  1.00  0.00     0.092 A 
HETATM    6  C9  UNK     1      15.527   7.520   9.866  1.00  0.00     0.093 A 
HETATM    7  C10 UNK     1      14.373   9.166   8.568  1.00  0.00     0.017 A 
HETATM    8  C11 UNK     1      15.184   5.119   9.603  1.00  0.00     0.288 A 
HETATM    9  C12 UNK     1      16.217   8.515  10.561  1.00  0.00     0.075 A 
HETATM   10  C13 UNK     1      15.057  10.175   9.256  1.00  0.00     0.038 A 
HETATM   11  C14 UNK     1      15.977   9.849  10.251  1.00  0.00     0.070 A 
ENDROOT
BRANCH   3  12
HETATM   12  C3  UNK     1      12.919   6.990   7.105  1.00  0.00     0.312 C 
BRANCH  12  13
HETATM   13  N1  UNK     1      11.586   6.617   7.577  1.00  0.00     0.096 N 
HETATM   14  C1  UNK     1      10.698   6.318   6.445  1.00  0.00     0.299 C 
HETATM   15  C4  UNK     1       9.311   5.944   6.961  1.00  0.00     0.198 C 
HETATM   16  O1  UNK     1       8.772   7.004   7.752  1.00  0.00    -0.388 OA
HETATM   17  C5  UNK     1       9.614   7.280   8.873  1.00  0.00     0.198 C 
HETATM   18  C2  UNK     1      11.007   7.687   8.402  1.00  0.00     0.299 C 
ENDBRANCH  12  13
ENDBRANCH   3  12
BRANCH  11  19
HETATM   19  O3  UNK     1      16.638  10.834  10.917  1.00  0.00    -0.356 OA
HETATM   20  C15 UNK     1      17.648  11.542  10.198  1.00  0.00     0.210 C 
ENDBRANCH  11  19
TORSDOF 3
ENDMDL
MODEL 10
REMARK VINA RESULT:      -6.8     15.664     16.998
REMARK  3 active torsions:
REMARK  status: ('A' for Active; 'I' for Inactive)
REMARK    1  A    between atoms: C14_19  and  O3_3 
REMARK    2  A    between atoms: C3_8  and  N1_5 
REMARK    3  A    between atoms: C3_8  and  C6_11 
ROOT
HETATM    1  O2  UNK     1      28.437  -5.375  39.281  1.00  0.00    -0.275 OA
HETATM    2  O4  UNK     1      29.418  -3.403  39.895  1.00  0.00    -0.260 OA
HETATM    3  C6  UNK     1      30.961  -6.218  38.321  1.00  0.00    -0.011 A 
HETATM    4  C7  UNK     1      29.794  -7.105  38.217  1.00  0.00     0.006 A 
HETATM    5  C8  UNK     1      30.809  -5.008  38.877  1.00  0.00     0.092 A 
HETATM    6  C9  UNK     1      28.565  -6.653  38.702  1.00  0.00     0.093 A 
HETATM    7  C10 UNK     1      29.840  -8.388  37.657  1.00  0.00     0.017 A 
HETATM    8  C11 UNK     1      29.519  -4.517  39.394  1.00  0.00     0.288 A 
HETATM    9  C12 UNK     1      27.408  -7.432  38.642  1.00  0.00     0.075 A 
HETATM   10  C13 UNK     1      28.688  -9.182  37.590  1.00  0.00     0.038 A 
HETATM   11  C14 UNK     1      27.475  -8.704  38.083  1.00  0.00     0.070 A 
ENDROOT
BRANCH   3  12
HETATM   12  C3  UNK     1      32.295  -6.673  37.809  1.00  0.00     0.312 C 
BRANCH  12  13
HETATM   13  N1  UNK     1      32.792  -5.699  36.839  1.00  0.00     0.096 N 
HETATM   14  C1  UNK     1      32.100  -5.846  35.551  1.00  0.00     0.299 C 
HETATM   15  C4  UNK     1      32.644  -4.828  34.552  1.00  0.00     0.198 C 
HETATM   16  O1  UNK     1      34.051  -4.998  34.385  1.00  0.00    -0.388 OA
HETATM   17  C5  UNK     1      34.735  -4.825  35.627  1.00  0.00     0.198 C 
HETATM   18  C2  UNK     1      34.243  -5.843  36.650  1.00  0.00     0.299 C 
ENDBRANCH  12  13
ENDBRANCH   3  12
BRANCH  11  19
HETATM   19  O3  UNK     1      26.359  -9.480  38.016  1.00  0.00    -0.356 OA
HETATM   20  C15 UNK     1      26.190 -10.275  36.844  1.00  0.00     0.210 C 
ENDBRANCH  11  19
TORSDOF 3
ENDMDL
