MODEL 1
REMARK VINA RESULT:      -7.5      0.000      0.000
REMARK  3 active torsions:
REMARK  status: ('A' for Active; 'I' for Inactive)
REMARK    1  A    between atoms: C11_15  and  O2_2 
REMARK    2  A    between atoms: C5_9  and  O2_2 
REMARK    3  A    between atoms: C11_15  and  C12_16 
ROOT
HETATM    1  O1  UNK     1      16.449   6.577  33.074  1.00  0.00    -0.275 OA
HETATM    2  O3  UNK     1      15.171   7.767  34.550  1.00  0.00    -0.260 OA
HETATM    3  C1  UNK     1      18.858   6.972  32.991  1.00  0.00     0.004 A 
HETATM    4  C2  UNK     1      17.722   6.302  32.536  1.00  0.00     0.092 A 
HETATM    5  C3  UNK     1      18.705   7.977  34.051  1.00  0.00    -0.043 A 
HETATM    6  C4  UNK     1      20.087   6.641  32.404  1.00  0.00     0.017 A 
HETATM    7  C5  UNK     1      19.009   5.018  30.963  1.00  0.00     0.071 A 
HETATM    8  C6  UNK     1      17.780   5.332  31.532  1.00  0.00     0.075 A 
HETATM    9  C7  UNK     1      20.161   5.670  31.398  1.00  0.00     0.038 A 
HETATM   10  C8  UNK     1      17.482   8.218  34.545  1.00  0.00     0.090 A 
HETATM   11  C9  UNK     1      19.908   8.715  34.563  1.00  0.00     0.049 C 
HETATM   12  C10 UNK     1      16.274   7.519  34.075  1.00  0.00     0.288 A 
ENDROOT
BRANCH   7  13
HETATM   13  O2  UNK     1      19.087   4.077  29.984  1.00  0.00    -0.344 OA
BRANCH  13  14
HETATM   14  C11 UNK     1      18.587   2.776  30.291  1.00  0.00     0.253 C 
BRANCH  14  15
HETATM   15  C12 UNK     1      18.492   1.930  29.039  1.00  0.00     0.146 C 
HETATM   16  O4  UNK     1      17.855   2.287  28.050  1.00  0.00    -0.296 OA
HETATM   17  C13 UNK     1      19.225   0.615  29.067  1.00  0.00     0.093 C 
ENDBRANCH  14  15
ENDBRANCH  13  14
ENDBRANCH   7  13
TORSDOF 3
ENDMDL
MODEL 2
REMARK VINA RESULT:      -7.4     21.663     24.473
REMARK  3 active torsions:
REMARK  status: ('A' for Active; 'I' for Inactive)
REMARK    1  A    between atoms: C11_15  and  O2_2 
REMARK    2  A    between atoms: C5_9  and  O2_2 
REMARK    3  A    between atoms: C11_15  and  C12_16 
ROOT
HETATM    1  O1  UNK     1       9.448   5.559   9.516  1.00  0.00    -0.275 OA
HETATM    2  O3  UNK     1       7.192   5.728   9.183  1.00  0.00    -0.260 OA
HETATM    3  C1  UNK     1      10.964   5.900   7.631  1.00  0.00     0.004 A 
HETATM    4  C2  UNK     1      10.750   5.619   8.981  1.00  0.00     0.092 A 
HETATM    5  C3  UNK     1       9.797   6.136   6.769  1.00  0.00    -0.043 A 
HETATM    6  C4  UNK     1      12.288   5.941   7.176  1.00  0.00     0.017 A 
HETATM    7  C5  UNK     1      13.110   5.428   9.398  1.00  0.00     0.071 A 
HETATM    8  C6  UNK     1      11.802   5.382   9.869  1.00  0.00     0.075 A 
HETATM    9  C7  UNK     1      13.353   5.707   8.054  1.00  0.00     0.038 A 
HETATM   10  C8  UNK     1       8.570   6.073   7.305  1.00  0.00     0.090 A 
HETATM   11  C9  UNK     1       9.993   6.441   5.312  1.00  0.00     0.049 C 
HETATM   12  C10 UNK     1       8.329   5.778   8.728  1.00  0.00     0.288 A 
ENDROOT
BRANCH   7  13
HETATM   13  O2  UNK     1      14.149   5.201  10.246  1.00  0.00    -0.344 OA
BRANCH  13  14
HETATM   14  C11 UNK     1      15.437   5.656   9.832  1.00  0.00     0.253 C 
BRANCH  14  15
HETATM   15  C12 UNK     1      15.827   6.911  10.583  1.00  0.00     0.146 C 
HETATM   16  O4  UNK     1      15.080   7.453  11.395  1.00  0.00    -0.296 OA
HETATM   17  C13 UNK     1      17.194   7.469  10.283  1.00  0.00     0.093 C 
ENDBRANCH  14  15
ENDBRANCH  13  14
ENDBRANCH   7  13
TORSDOF 3
ENDMDL
MODEL 3
REMARK VINA RESULT:      -7.3      2.892      7.134
REMARK  3 active torsions:
REMARK  status: ('A' for Active; 'I' for Inactive)
REMARK    1  A    between atoms: C11_15  and  O2_2 
REMARK    2  A    between atoms: C5_9  and  O2_2 
REMARK    3  A    between atoms: C11_15  and  C12_16 
ROOT
HETATM    1  O1  UNK     1      19.253  -0.148  32.838  1.00  0.00    -0.275 OA
HETATM    2  O3  UNK     1      20.050  -2.229  33.350  1.00  0.00    -0.260 OA
HETATM    3  C1  UNK     1      19.385   0.648  30.532  1.00  0.00     0.004 A 
HETATM    4  C2  UNK     1      19.023   0.846  31.865  1.00  0.00     0.092 A 
HETATM    5  C3  UNK     1      20.016  -0.624  30.155  1.00  0.00    -0.043 A 
HETATM    6  C4  UNK     1      19.123   1.685  29.627  1.00  0.00     0.017 A 
HETATM    7  C5  UNK     1      18.166   3.041  31.393  1.00  0.00     0.071 A 
HETATM    8  C6  UNK     1      18.419   2.024  32.307  1.00  0.00     0.075 A 
HETATM    9  C7  UNK     1      18.517   2.872  30.054  1.00  0.00     0.038 A 
HETATM   10  C8  UNK     1      20.222  -1.551  31.102  1.00  0.00     0.090 A 
HETATM   11  C9  UNK     1      20.418  -0.867  28.730  1.00  0.00     0.049 C 
HETATM   12  C10 UNK     1      19.845  -1.358  32.512  1.00  0.00     0.288 A 
ENDROOT
BRANCH   7  13
HETATM   13  O2  UNK     1      17.579   4.198  31.802  1.00  0.00    -0.344 OA
BRANCH  13  14
HETATM   14  C11 UNK     1      18.276   4.971  32.779  1.00  0.00     0.253 C 
BRANCH  14  15
HETATM   15  C12 UNK     1      19.172   5.992  32.112  1.00  0.00     0.146 C 
HETATM   16  O4  UNK     1      18.982   6.385  30.963  1.00  0.00    -0.296 OA
HETATM   17  C13 UNK     1      20.321   6.509  32.937  1.00  0.00     0.093 C 
ENDBRANCH  14  15
ENDBRANCH  13  14
ENDBRANCH   7  13
TORSDOF 3
ENDMDL
MODEL 4
REMARK VINA RESULT:      -7.2      6.002      7.364
REMARK  3 active torsions:
REMARK  status: ('A' for Active; 'I' for Inactive)
REMARK    1  A    between atoms: C11_15  and  O2_2 
REMARK    2  A    between atoms: C5_9  and  O2_2 
REMARK    3  A    between atoms: C11_15  and  C12_16 
ROOT
HETATM    1  O1  UNK     1      17.378  -0.216  34.032  1.00  0.00    -0.275 OA
HETATM    2  O3  UNK     1      15.947   0.447  35.687  1.00  0.00    -0.260 OA
HETATM    3  C1  UNK     1      19.212  -1.736  34.575  1.00  0.00     0.004 A 
HETATM    4  C2  UNK     1      18.506  -0.969  33.647  1.00  0.00     0.092 A 
HETATM    5  C3  UNK     1      18.757  -1.745  35.972  1.00  0.00    -0.043 A 
HETATM    6  C4  UNK     1      20.321  -2.456  34.113  1.00  0.00     0.017 A 
HETATM    7  C5  UNK     1      19.974  -1.628  31.862  1.00  0.00     0.071 A 
HETATM    8  C6  UNK     1      18.870  -0.905  32.301  1.00  0.00     0.075 A 
HETATM    9  C7  UNK     1      20.699  -2.403  32.766  1.00  0.00     0.038 A 
HETATM   10  C8  UNK     1      17.682  -1.019  36.309  1.00  0.00     0.090 A 
HETATM   11  C9  UNK     1      19.495  -2.559  36.994  1.00  0.00     0.049 C 
HETATM   12  C10 UNK     1      16.926  -0.205  35.342  1.00  0.00     0.288 A 
ENDROOT
BRANCH   7  13
HETATM   13  O2  UNK     1      20.347  -1.580  30.554  1.00  0.00    -0.344 OA
BRANCH  13  14
HETATM   14  C11 UNK     1      20.667  -0.297  30.017  1.00  0.00     0.253 C 
BRANCH  14  15
HETATM   15  C12 UNK     1      19.672   0.098  28.947  1.00  0.00     0.146 C 
HETATM   16  O4  UNK     1      19.500  -0.568  27.928  1.00  0.00    -0.296 OA
HETATM   17  C13 UNK     1      18.893   1.363  29.197  1.00  0.00     0.093 C 
ENDBRANCH  14  15
ENDBRANCH  13  14
ENDBRANCH   7  13
TORSDOF 3
ENDMDL
MODEL 5
REMARK VINA RESULT:      -7.1      2.525      7.163
REMARK  3 active torsions:
REMARK  status: ('A' for Active; 'I' for Inactive)
REMARK    1  A    between atoms: C11_15  and  O2_2 
REMARK    2  A    between atoms: C5_9  and  O2_2 
REMARK    3  A    between atoms: C11_15  and  C12_16 
ROOT
HETATM    1  O1  UNK     1      19.563   0.935  29.460  1.00  0.00    -0.275 OA
HETATM    2  O3  UNK     1      20.516  -0.704  28.182  1.00  0.00    -0.260 OA
HETATM    3  C1  UNK     1      19.087   0.490  31.814  1.00  0.00     0.004 A 
HETATM    4  C2  UNK     1      19.069   1.348  30.714  1.00  0.00     0.092 A 
HETATM    5  C3  UNK     1      19.635  -0.863  31.643  1.00  0.00    -0.043 A 
HETATM    6  C4  UNK     1      18.578   0.975  33.026  1.00  0.00     0.017 A 
HETATM    7  C5  UNK     1      18.067   3.112  32.002  1.00  0.00     0.071 A 
HETATM    8  C6  UNK     1      18.567   2.648  30.790  1.00  0.00     0.075 A 
HETATM    9  C7  UNK     1      18.072   2.277  33.119  1.00  0.00     0.038 A 
HETATM   10  C8  UNK     1      20.097  -1.228  30.439  1.00  0.00     0.090 A 
HETATM   11  C9  UNK     1      19.668  -1.810  32.807  1.00  0.00     0.049 C 
HETATM   12  C10 UNK     1      20.085  -0.334  29.268  1.00  0.00     0.288 A 
ENDROOT
BRANCH   7  13
HETATM   13  O2  UNK     1      17.573   4.376  32.099  1.00  0.00    -0.344 OA
BRANCH  13  14
HETATM   14  C11 UNK     1      18.275   5.285  32.946  1.00  0.00     0.253 C 
BRANCH  14  15
HETATM   15  C12 UNK     1      19.312   6.057  32.158  1.00  0.00     0.146 C 
HETATM   16  O4  UNK     1      19.157   6.349  30.974  1.00  0.00    -0.296 OA
HETATM   17  C13 UNK     1      20.557   6.453  32.906  1.00  0.00     0.093 C 
ENDBRANCH  14  15
ENDBRANCH  13  14
ENDBRANCH   7  13
TORSDOF 3
ENDMDL
MODEL 6
REMARK VINA RESULT:      -7.1     22.700     24.740
REMARK  3 active torsions:
REMARK  status: ('A' for Active; 'I' for Inactive)
REMARK    1  A    between atoms: C11_15  and  O2_2 
REMARK    2  A    between atoms: C5_9  and  O2_2 
REMARK    3  A    between atoms: C11_15  and  C12_16 
ROOT
HETATM    1  O1  UNK     1      14.026   4.677   8.753  1.00  0.00    -0.275 OA
HETATM    2  O3  UNK     1      16.009   4.139   9.755  1.00  0.00    -0.260 OA
HETATM    3  C1  UNK     1      13.354   7.022   8.613  1.00  0.00     0.004 A 
HETATM    4  C2  UNK     1      13.108   5.672   8.358  1.00  0.00     0.092 A 
HETATM    5  C3  UNK     1      14.596   7.393   9.304  1.00  0.00    -0.043 A 
HETATM    6  C4  UNK     1      12.393   7.949   8.189  1.00  0.00     0.017 A 
HETATM    7  C5  UNK     1      11.012   6.170   7.292  1.00  0.00     0.071 A 
HETATM    8  C6  UNK     1      11.954   5.234   7.706  1.00  0.00     0.075 A 
HETATM    9  C7  UNK     1      11.231   7.525   7.533  1.00  0.00     0.038 A 
HETATM   10  C8  UNK     1      15.450   6.425   9.668  1.00  0.00     0.090 A 
HETATM   11  C9  UNK     1      14.889   8.836   9.594  1.00  0.00     0.049 C 
HETATM   12  C10 UNK     1      15.205   4.997   9.406  1.00  0.00     0.288 A 
ENDROOT
BRANCH   7  13
HETATM   13  O2  UNK     1       9.880   5.765   6.655  1.00  0.00    -0.344 OA
BRANCH  13  14
HETATM   14  C11 UNK     1       8.663   6.416   7.016  1.00  0.00     0.253 C 
BRANCH  14  15
HETATM   15  C12 UNK     1       8.016   5.725   8.196  1.00  0.00     0.146 C 
HETATM   16  O4  UNK     1       7.510   4.608   8.109  1.00  0.00    -0.296 OA
HETATM   17  C13 UNK     1       8.023   6.482   9.497  1.00  0.00     0.093 C 
ENDBRANCH  14  15
ENDBRANCH  13  14
ENDBRANCH   7  13
TORSDOF 3
ENDMDL
MODEL 7
REMARK VINA RESULT:      -7.0      5.231      7.824
REMARK  3 active torsions:
REMARK  status: ('A' for Active; 'I' for Inactive)
REMARK    1  A    between atoms: C11_15  and  O2_2 
REMARK    2  A    between atoms: C5_9  and  O2_2 
REMARK    3  A    between atoms: C11_15  and  C12_16 
ROOT
HETATM    1  O1  UNK     1      18.494   1.714  31.329  1.00  0.00    -0.275 OA
HETATM    2  O3  UNK     1      18.531   2.931  29.394  1.00  0.00    -0.260 OA
HETATM    3  C1  UNK     1      19.528  -0.499  31.369  1.00  0.00     0.004 A 
HETATM    4  C2  UNK     1      18.838   0.529  32.012  1.00  0.00     0.092 A 
HETATM    5  C3  UNK     1      19.894  -0.326  29.957  1.00  0.00    -0.043 A 
HETATM    6  C4  UNK     1      19.832  -1.644  32.118  1.00  0.00     0.017 A 
HETATM    7  C5  UNK     1      18.765  -0.698  34.077  1.00  0.00     0.071 A 
HETATM    8  C6  UNK     1      18.453   0.446  33.352  1.00  0.00     0.075 A 
HETATM    9  C7  UNK     1      19.454  -1.742  33.462  1.00  0.00     0.038 A 
HETATM   10  C8  UNK     1      19.554   0.811  29.333  1.00  0.00     0.090 A 
HETATM   11  C9  UNK     1      20.637  -1.414  29.238  1.00  0.00     0.049 C 
HETATM   12  C10 UNK     1      18.826   1.905  29.997  1.00  0.00     0.288 A 
ENDROOT
BRANCH   7  13
HETATM   13  O2  UNK     1      18.399  -0.800  35.383  1.00  0.00    -0.344 OA
BRANCH  13  14
HETATM   14  C11 UNK     1      17.034  -1.121  35.653  1.00  0.00     0.253 C 
BRANCH  14  15
HETATM   15  C12 UNK     1      16.272   0.112  36.090  1.00  0.00     0.146 C 
HETATM   16  O4  UNK     1      15.257   0.498  35.514  1.00  0.00    -0.296 OA
HETATM   17  C13 UNK     1      16.826   0.849  37.280  1.00  0.00     0.093 C 
ENDBRANCH  14  15
ENDBRANCH  13  14
ENDBRANCH   7  13
TORSDOF 3
ENDMDL
MODEL 8
REMARK VINA RESULT:      -7.0      1.753      2.547
REMARK  3 active torsions:
REMARK  status: ('A' for Active; 'I' for Inactive)
REMARK    1  A    between atoms: C11_15  and  O2_2 
REMARK    2  A    between atoms: C5_9  and  O2_2 
REMARK    3  A    between atoms: C11_15  and  C12_16 
ROOT
HETATM    1  O1  UNK     1      20.300   7.689  33.356  1.00  0.00    -0.275 OA
HETATM    2  O3  UNK     1      20.858   9.474  34.672  1.00  0.00    -0.260 OA
HETATM    3  C1  UNK     1      17.969   6.969  33.244  1.00  0.00     0.004 A 
HETATM    4  C2  UNK     1      19.303   6.824  32.862  1.00  0.00     0.092 A 
HETATM    5  C3  UNK     1      17.616   8.049  34.176  1.00  0.00    -0.043 A 
HETATM    6  C4  UNK     1      17.038   6.069  32.708  1.00  0.00     0.017 A 
HETATM    7  C5  UNK     1      18.783   4.942  31.460  1.00  0.00     0.071 A 
HETATM    8  C6  UNK     1      19.723   5.826  31.981  1.00  0.00     0.075 A 
HETATM    9  C7  UNK     1      17.443   5.063  31.823  1.00  0.00     0.038 A 
HETATM   10  C8  UNK     1      18.586   8.856  34.629  1.00  0.00     0.090 A 
HETATM   11  C9  UNK     1      16.190   8.231  34.606  1.00  0.00     0.049 C 
HETATM   12  C10 UNK     1      19.998   8.716  34.236  1.00  0.00     0.288 A 
ENDROOT
BRANCH   7  13
HETATM   13  O2  UNK     1      19.170   3.962  30.599  1.00  0.00    -0.344 OA
BRANCH  13  14
HETATM   14  C11 UNK     1      18.369   2.782  30.556  1.00  0.00     0.253 C 
BRANCH  14  15
HETATM   15  C12 UNK     1      18.479   2.110  29.204  1.00  0.00     0.146 C 
HETATM   16  O4  UNK     1      17.917   2.549  28.202  1.00  0.00    -0.296 OA
HETATM   17  C13 UNK     1      19.323   0.864  29.146  1.00  0.00     0.093 C 
ENDBRANCH  14  15
ENDBRANCH  13  14
ENDBRANCH   7  13
TORSDOF 3
ENDMDL
MODEL 9
REMARK VINA RESULT:      -6.9      5.410      6.792
REMARK  3 active torsions:
REMARK  status: ('A' for Active; 'I' for Inactive)
REMARK    1  A    between atoms: C11_15  and  O2_2 
REMARK    2  A    between atoms: C5_9  and  O2_2 
REMARK    3  A    between atoms: C11_15  and  C12_16 
ROOT
HETATM    1  O1  UNK     1      17.883   1.244  36.181  1.00  0.00    -0.275 OA
HETATM    2  O3  UNK     1      17.524   1.293  38.439  1.00  0.00    -0.260 OA
HETATM    3  C1  UNK     1      18.594  -0.843  35.128  1.00  0.00     0.004 A 
HETATM    4  C2  UNK     1      18.253   0.508  35.038  1.00  0.00     0.092 A 
HETATM    5  C3  UNK     1      18.560  -1.490  36.447  1.00  0.00    -0.043 A 
HETATM    6  C4  UNK     1      18.949  -1.504  33.945  1.00  0.00     0.017 A 
HETATM    7  C5  UNK     1      18.613   0.524  32.661  1.00  0.00     0.071 A 
HETATM    8  C6  UNK     1      18.257   1.198  33.824  1.00  0.00     0.075 A 
HETATM    9  C7  UNK     1      18.958  -0.826  32.721  1.00  0.00     0.038 A 
HETATM   10  C8  UNK     1      18.206  -0.764  37.517  1.00  0.00     0.090 A 
HETATM   11  C9  UNK     1      18.922  -2.941  36.578  1.00  0.00     0.049 C 
HETATM   12  C10 UNK     1      17.843   0.661  37.437  1.00  0.00     0.288 A 
ENDROOT
BRANCH   7  13
HETATM   13  O2  UNK     1      18.624   1.177  31.468  1.00  0.00    -0.344 OA
BRANCH  13  14
HETATM   14  C11 UNK     1      19.531   0.701  30.474  1.00  0.00     0.253 C 
BRANCH  14  15
HETATM   15  C12 UNK     1      18.960   0.904  29.088  1.00  0.00     0.146 C 
HETATM   16  O4  UNK     1      19.255   0.178  28.140  1.00  0.00    -0.296 OA
HETATM   17  C13 UNK     1      18.001   2.054  28.925  1.00  0.00     0.093 C 
ENDBRANCH  14  15
ENDBRANCH  13  14
ENDBRANCH   7  13
TORSDOF 3
ENDMDL
MODEL 10
REMARK VINA RESULT:      -6.9      8.385      9.603
REMARK  3 active torsions:
REMARK  status: ('A' for Active; 'I' for Inactive)
REMARK    1  A    between atoms: C11_15  and  O2_2 
REMARK    2  A    between atoms: C5_9  and  O2_2 
REMARK    3  A    between atoms: C11_15  and  C12_16 
ROOT
HETATM    1  O1  UNK     1      19.103  -0.374  33.935  1.00  0.00    -0.275 OA
HETATM    2  O3  UNK     1      18.260   1.348  32.690  1.00  0.00    -0.260 OA
HETATM    3  C1  UNK     1      18.281  -0.719  36.209  1.00  0.00     0.004 A 
HETATM    4  C2  UNK     1      19.110  -1.089  35.150  1.00  0.00     0.092 A 
HETATM    5  C3  UNK     1      17.391   0.437  36.036  1.00  0.00    -0.043 A 
HETATM    6  C4  UNK     1      18.348  -1.480  37.384  1.00  0.00     0.017 A 
HETATM    7  C5  UNK     1      20.036  -2.918  36.405  1.00  0.00     0.071 A 
HETATM    8  C6  UNK     1      19.985  -2.174  35.231  1.00  0.00     0.075 A 
HETATM    9  C7  UNK     1      19.219  -2.572  37.480  1.00  0.00     0.038 A 
HETATM   10  C8  UNK     1      17.405   1.098  34.869  1.00  0.00     0.090 A 
HETATM   11  C9  UNK     1      16.486   0.861  37.157  1.00  0.00     0.049 C 
HETATM   12  C10 UNK     1      18.274   0.720  33.742  1.00  0.00     0.288 A 
ENDROOT
BRANCH   7  13
HETATM   13  O2  UNK     1      20.881  -3.979  36.506  1.00  0.00    -0.344 OA
BRANCH  13  14
HETATM   14  C11 UNK     1      20.351  -5.181  37.065  1.00  0.00     0.253 C 
BRANCH  14  15
HETATM   15  C12 UNK     1      21.270  -5.720  38.140  1.00  0.00     0.146 C 
HETATM   16  O4  UNK     1      22.474  -5.472  38.164  1.00  0.00    -0.296 OA
HETATM   17  C13 UNK     1      20.628  -6.586  39.191  1.00  0.00     0.093 C 
ENDBRANCH  14  15
ENDBRANCH  13  14
ENDBRANCH   7  13
TORSDOF 3
ENDMDL
