MODEL 1
REMARK VINA RESULT:      -8.5      0.000      0.000
REMARK  6 active torsions:
REMARK  status: ('A' for Active; 'I' for Inactive)
REMARK    1  A    between atoms: C17_22  and  O1_3 
REMARK    2  A    between atoms: C2_7  and  O1_3 
REMARK    3  A    between atoms: C1_6  and  C5_10 
REMARK    4  A    between atoms: C5_10  and  C9_14 
REMARK    5  A    between atoms: C10_15  and  C8_13 
REMARK    6  A    between atoms: C15_20  and  C17_22 
ROOT
HETATM    1  C1  UNK     1      17.437   6.206  31.532  1.00  0.00     0.014 A 
HETATM    2  C2  UNK     1      18.900   4.024  30.596  1.00  0.00     0.079 A 
HETATM    3  C3  UNK     1      17.394   4.993  32.217  1.00  0.00     0.018 A 
HETATM    4  C4  UNK     1      18.211   6.329  30.379  1.00  0.00     0.018 A 
HETATM    5  C6  UNK     1      18.125   3.901  31.749  1.00  0.00     0.038 A 
HETATM    6  C7  UNK     1      18.942   5.238  29.911  1.00  0.00     0.038 A 
ENDROOT
BRANCH   1   7
HETATM    7  C5  UNK     1      16.672   7.344  32.020  1.00  0.00     0.182 C 
HETATM    8  O2  UNK     1      16.571   8.379  31.345  1.00  0.00    -0.288 OA
BRANCH   7   9
HETATM    9  C9  UNK     1      16.030   7.251  33.376  1.00  0.00     0.056 C 
HETATM   10  C10 UNK     1      16.555   7.900  34.425  1.00  0.00     0.015 C 
BRANCH  10  11
HETATM   11  C8  UNK     1      17.766   8.737  34.370  1.00  0.00    -0.035 A 
HETATM   12  C11 UNK     1      17.662  10.097  34.074  1.00  0.00     0.035 A 
HETATM   13  C13 UNK     1      18.808  10.890  34.022  1.00  0.00     0.034 A 
HETATM   14 Cl1  UNK     1      18.680  12.566  33.657  1.00  0.00    -0.084 Cl
HETATM   15  C16 UNK     1      20.060  10.323  34.265  1.00  0.00     0.024 A 
HETATM   16  C14 UNK     1      20.164   8.963  34.560  1.00  0.00     0.003 A 
HETATM   17  C12 UNK     1      19.017   8.171  34.613  1.00  0.00     0.011 A 
ENDBRANCH  10  11
ENDBRANCH   7   9
ENDBRANCH   1   7
BRANCH   2  18
HETATM   18  O1  UNK     1      19.614   2.959  30.138  1.00  0.00    -0.275 OA
BRANCH  18  19
HETATM   19  C17 UNK     1      18.837   1.955  29.554  1.00  0.00     0.305 C 
HETATM   20  O3  UNK     1      17.794   2.128  28.942  1.00  0.00    -0.258 OA
BRANCH  19  21
HETATM   21  C15 UNK     1      19.436   0.615  29.779  1.00  0.00     0.080 A 
HETATM   22  S1  UNK     1      19.456  -0.033  31.364  1.00  0.00    -0.096 SA
HETATM   23  C20 UNK     1      20.236  -1.461  30.829  1.00  0.00     0.050 A 
HETATM   24  C19 UNK     1      20.474  -1.442  29.473  1.00  0.00     0.009 A 
HETATM   25  C18 UNK     1      20.012  -0.240  28.864  1.00  0.00     0.025 A 
ENDBRANCH  19  21
ENDBRANCH  18  19
ENDBRANCH   2  18
TORSDOF 6
ENDMDL
MODEL 2
REMARK VINA RESULT:      -8.0     14.901     17.441
REMARK  6 active torsions:
REMARK  status: ('A' for Active; 'I' for Inactive)
REMARK    1  A    between atoms: C17_22  and  O1_3 
REMARK    2  A    between atoms: C2_7  and  O1_3 
REMARK    3  A    between atoms: C1_6  and  C5_10 
REMARK    4  A    between atoms: C5_10  and  C9_14 
REMARK    5  A    between atoms: C10_15  and  C8_13 
REMARK    6  A    between atoms: C15_20  and  C17_22 
ROOT
HETATM    1  C1  UNK     1      23.130 -10.275  36.172  1.00  0.00     0.014 A 
HETATM    2  C2  UNK     1      25.828 -10.147  36.865  1.00  0.00     0.079 A 
HETATM    3  C3  UNK     1      23.632  -9.142  36.811  1.00  0.00     0.018 A 
HETATM    4  C4  UNK     1      23.977 -11.344  35.878  1.00  0.00     0.018 A 
HETATM    5  C6  UNK     1      24.981  -9.078  37.158  1.00  0.00     0.038 A 
HETATM    6  C7  UNK     1      25.326 -11.280  36.226  1.00  0.00     0.038 A 
ENDROOT
BRANCH   1   7
HETATM    7  C5  UNK     1      21.722 -10.342  35.812  1.00  0.00     0.182 C 
HETATM    8  O2  UNK     1      21.258  -9.615  34.921  1.00  0.00    -0.288 OA
BRANCH   7   9
HETATM    9  C9  UNK     1      20.831 -11.292  36.564  1.00  0.00     0.056 C 
HETATM   10  C10 UNK     1      20.024 -10.845  37.536  1.00  0.00     0.015 C 
BRANCH  10  11
HETATM   11  C8  UNK     1      19.924  -9.436  37.959  1.00  0.00    -0.035 A 
HETATM   12  C11 UNK     1      19.038  -8.574  37.311  1.00  0.00     0.035 A 
HETATM   13  C13 UNK     1      18.944  -7.241  37.711  1.00  0.00     0.034 A 
HETATM   14 Cl1  UNK     1      17.852  -6.178  36.912  1.00  0.00    -0.084 Cl
HETATM   15  C16 UNK     1      19.736  -6.770  38.758  1.00  0.00     0.024 A 
HETATM   16  C14 UNK     1      20.622  -7.632  39.406  1.00  0.00     0.003 A 
HETATM   17  C12 UNK     1      20.715  -8.965  39.006  1.00  0.00     0.011 A 
ENDBRANCH  10  11
ENDBRANCH   7   9
ENDBRANCH   1   7
BRANCH   2  18
HETATM   18  O1  UNK     1      27.145 -10.085  37.204  1.00  0.00    -0.275 OA
BRANCH  18  19
HETATM   19  C17 UNK     1      27.379  -9.761  38.543  1.00  0.00     0.305 C 
HETATM   20  O3  UNK     1      27.038 -10.430  39.507  1.00  0.00    -0.258 OA
BRANCH  19  21
HETATM   21  C15 UNK     1      28.101  -8.468  38.664  1.00  0.00     0.080 A 
HETATM   22  S1  UNK     1      29.602  -8.275  37.863  1.00  0.00    -0.096 SA
HETATM   23  C20 UNK     1      29.767  -6.672  38.443  1.00  0.00     0.050 A 
HETATM   24  C19 UNK     1      28.700  -6.295  39.229  1.00  0.00     0.009 A 
HETATM   25  C18 UNK     1      27.735  -7.335  39.357  1.00  0.00     0.025 A 
ENDBRANCH  19  21
ENDBRANCH  18  19
ENDBRANCH   2  18
TORSDOF 6
ENDMDL
MODEL 3
REMARK VINA RESULT:      -8.0     10.110     15.272
REMARK  6 active torsions:
REMARK  status: ('A' for Active; 'I' for Inactive)
REMARK    1  A    between atoms: C17_22  and  O1_3 
REMARK    2  A    between atoms: C2_7  and  O1_3 
REMARK    3  A    between atoms: C1_6  and  C5_10 
REMARK    4  A    between atoms: C5_10  and  C9_14 
REMARK    5  A    between atoms: C10_15  and  C8_13 
REMARK    6  A    between atoms: C15_20  and  C17_22 
ROOT
HETATM    1  C1  UNK     1      21.041  -7.348  39.074  1.00  0.00     0.014 A 
HETATM    2  C2  UNK     1      20.996  -4.787  37.971  1.00  0.00     0.079 A 
HETATM    3  C3  UNK     1      19.828  -6.680  38.912  1.00  0.00     0.018 A 
HETATM    4  C4  UNK     1      22.233  -6.735  38.685  1.00  0.00     0.018 A 
HETATM    5  C6  UNK     1      19.805  -5.399  38.360  1.00  0.00     0.038 A 
HETATM    6  C7  UNK     1      22.210  -5.455  38.134  1.00  0.00     0.038 A 
ENDROOT
BRANCH   1   7
HETATM    7  C5  UNK     1      21.065  -8.683  39.652  1.00  0.00     0.182 C 
HETATM    8  O2  UNK     1      22.078  -9.111  40.224  1.00  0.00    -0.288 OA
BRANCH   7   9
HETATM    9  C9  UNK     1      19.843  -9.548  39.514  1.00  0.00     0.056 C 
HETATM   10  C10 UNK     1      19.556 -10.143  38.347  1.00  0.00     0.015 C 
BRANCH  10  11
HETATM   11  C8  UNK     1      20.368 -10.020  37.124  1.00  0.00    -0.035 A 
HETATM   12  C11 UNK     1      20.187  -8.929  36.273  1.00  0.00     0.035 A 
HETATM   13  C13 UNK     1      20.956  -8.813  35.115  1.00  0.00     0.034 A 
HETATM   14 Cl1  UNK     1      20.733  -7.468  34.065  1.00  0.00    -0.084 Cl
HETATM   15  C16 UNK     1      21.906  -9.787  34.808  1.00  0.00     0.024 A 
HETATM   16  C14 UNK     1      22.088 -10.878  35.659  1.00  0.00     0.003 A 
HETATM   17  C12 UNK     1      21.319 -10.993  36.817  1.00  0.00     0.011 A 
ENDBRANCH  10  11
ENDBRANCH   7   9
ENDBRANCH   1   7
BRANCH   2  18
HETATM   18  O1  UNK     1      20.975  -3.537  37.433  1.00  0.00    -0.275 OA
BRANCH  18  19
HETATM   19  C17 UNK     1      20.143  -3.405  36.318  1.00  0.00     0.305 C 
HETATM   20  O3  UNK     1      20.175  -4.109  35.319  1.00  0.00    -0.258 OA
BRANCH  19  21
HETATM   21  C15 UNK     1      19.196  -2.273  36.485  1.00  0.00     0.080 A 
HETATM   22  S1  UNK     1      18.908  -1.225  35.162  1.00  0.00    -0.096 SA
HETATM   23  C20 UNK     1      17.810  -0.282  36.078  1.00  0.00     0.050 A 
HETATM   24  C19 UNK     1      17.667  -0.758  37.363  1.00  0.00     0.009 A 
HETATM   25  C18 UNK     1      18.470  -1.911  37.599  1.00  0.00     0.025 A 
ENDBRANCH  19  21
ENDBRANCH  18  19
ENDBRANCH   2  18
TORSDOF 6
ENDMDL
MODEL 4
REMARK VINA RESULT:      -7.8     16.012     17.213
REMARK  6 active torsions:
REMARK  status: ('A' for Active; 'I' for Inactive)
REMARK    1  A    between atoms: C17_22  and  O1_3 
REMARK    2  A    between atoms: C2_7  and  O1_3 
REMARK    3  A    between atoms: C1_6  and  C5_10 
REMARK    4  A    between atoms: C5_10  and  C9_14 
REMARK    5  A    between atoms: C10_15  and  C8_13 
REMARK    6  A    between atoms: C15_20  and  C17_22 
ROOT
HETATM    1  C1  UNK     1      28.300  -7.949  35.133  1.00  0.00     0.014 A 
HETATM    2  C2  UNK     1      29.186  -7.283  32.574  1.00  0.00     0.079 A 
HETATM    3  C3  UNK     1      28.252  -6.624  34.702  1.00  0.00     0.018 A 
HETATM    4  C4  UNK     1      28.791  -8.942  34.285  1.00  0.00     0.018 A 
HETATM    5  C6  UNK     1      28.695  -6.290  33.423  1.00  0.00     0.038 A 
HETATM    6  C7  UNK     1      29.235  -8.608  33.006  1.00  0.00     0.038 A 
ENDROOT
BRANCH   1   7
HETATM    7  C5  UNK     1      27.840  -8.297  36.469  1.00  0.00     0.182 C 
HETATM    8  O2  UNK     1      26.696  -7.998  36.845  1.00  0.00    -0.288 OA
BRANCH   7   9
HETATM    9  C9  UNK     1      28.790  -9.000  37.398  1.00  0.00     0.056 C 
HETATM   10  C10 UNK     1      29.665  -8.302  38.135  1.00  0.00     0.015 C 
BRANCH  10  11
HETATM   11  C8  UNK     1      29.789  -6.833  38.118  1.00  0.00    -0.035 A 
HETATM   12  C11 UNK     1      30.748  -6.224  37.307  1.00  0.00     0.035 A 
HETATM   13  C13 UNK     1      30.865  -4.834  37.290  1.00  0.00     0.034 A 
HETATM   14 Cl1  UNK     1      32.047  -4.081  36.291  1.00  0.00    -0.084 Cl
HETATM   15  C16 UNK     1      30.024  -4.054  38.085  1.00  0.00     0.024 A 
HETATM   16  C14 UNK     1      29.066  -4.663  38.895  1.00  0.00     0.003 A 
HETATM   17  C12 UNK     1      28.949  -6.053  38.910  1.00  0.00     0.011 A 
ENDBRANCH  10  11
ENDBRANCH   7   9
ENDBRANCH   1   7
BRANCH   2  18
HETATM   18  O1  UNK     1      29.620  -6.957  31.325  1.00  0.00    -0.275 OA
BRANCH  18  19
HETATM   19  C17 UNK     1      28.638  -7.047  30.335  1.00  0.00     0.305 C 
HETATM   20  O3  UNK     1      27.708  -6.269  30.181  1.00  0.00    -0.258 OA
BRANCH  19  21
HETATM   21  C15 UNK     1      28.852  -8.238  29.473  1.00  0.00     0.080 A 
HETATM   22  S1  UNK     1      30.361  -8.435  28.686  1.00  0.00    -0.096 SA
HETATM   23  C20 UNK     1      29.852  -9.901  27.961  1.00  0.00     0.050 A 
HETATM   24  C19 UNK     1      28.562 -10.231  28.313  1.00  0.00     0.009 A 
HETATM   25  C18 UNK     1      27.982  -9.267  29.188  1.00  0.00     0.025 A 
ENDBRANCH  19  21
ENDBRANCH  18  19
ENDBRANCH   2  18
TORSDOF 6
ENDMDL
MODEL 5
REMARK VINA RESULT:      -7.7     23.273     25.519
REMARK  6 active torsions:
REMARK  status: ('A' for Active; 'I' for Inactive)
REMARK    1  A    between atoms: C17_22  and  O1_3 
REMARK    2  A    between atoms: C2_7  and  O1_3 
REMARK    3  A    between atoms: C1_6  and  C5_10 
REMARK    4  A    between atoms: C5_10  and  C9_14 
REMARK    5  A    between atoms: C10_15  and  C8_13 
REMARK    6  A    between atoms: C15_20  and  C17_22 
ROOT
HETATM    1  C1  UNK     1      14.474   8.148   9.642  1.00  0.00     0.014 A 
HETATM    2  C2  UNK     1      15.992  10.444   9.193  1.00  0.00     0.079 A 
HETATM    3  C3  UNK     1      15.488   8.499  10.533  1.00  0.00     0.018 A 
HETATM    4  C4  UNK     1      14.219   8.946   8.526  1.00  0.00     0.018 A 
HETATM    5  C6  UNK     1      16.247   9.646  10.309  1.00  0.00     0.038 A 
HETATM    6  C7  UNK     1      14.979  10.093   8.302  1.00  0.00     0.038 A 
ENDROOT
BRANCH   1   7
HETATM    7  C5  UNK     1      13.684   6.950   9.875  1.00  0.00     0.182 C 
HETATM    8  O2  UNK     1      12.675   6.982  10.596  1.00  0.00    -0.288 OA
BRANCH   7   9
HETATM    9  C9  UNK     1      14.131   5.659   9.247  1.00  0.00     0.056 C 
HETATM   10  C10 UNK     1      13.409   5.087   8.272  1.00  0.00     0.015 C 
BRANCH  10  11
HETATM   11  C8  UNK     1      12.153   5.635   7.732  1.00  0.00    -0.035 A 
HETATM   12  C11 UNK     1      10.948   5.405   8.397  1.00  0.00     0.035 A 
HETATM   13  C13 UNK     1       9.758   5.923   7.885  1.00  0.00     0.034 A 
HETATM   14 Cl1  UNK     1       8.272   5.640   8.705  1.00  0.00    -0.084 Cl
HETATM   15  C16 UNK     1       9.774   6.672   6.708  1.00  0.00     0.024 A 
HETATM   16  C14 UNK     1      10.979   6.903   6.043  1.00  0.00     0.003 A 
HETATM   17  C12 UNK     1      12.168   6.384   6.556  1.00  0.00     0.011 A 
ENDBRANCH  10  11
ENDBRANCH   7   9
ENDBRANCH   1   7
BRANCH   2  18
HETATM   18  O1  UNK     1      16.734  11.565   8.974  1.00  0.00    -0.275 OA
BRANCH  18  19
HETATM   19  C17 UNK     1      17.872  11.356   8.191  1.00  0.00     0.305 C 
HETATM   20  O3  UNK     1      18.684  10.456   8.341  1.00  0.00    -0.258 OA
BRANCH  19  21
HETATM   21  C15 UNK     1      17.991  12.391   7.132  1.00  0.00     0.080 A 
HETATM   22  S1  UNK     1      16.893  13.705   7.124  1.00  0.00    -0.096 SA
HETATM   23  C20 UNK     1      17.627  14.380   5.730  1.00  0.00     0.050 A 
HETATM   24  C19 UNK     1      18.685  13.619   5.284  1.00  0.00     0.009 A 
HETATM   25  C18 UNK     1      18.896  12.466   6.095  1.00  0.00     0.025 A 
ENDBRANCH  19  21
ENDBRANCH  18  19
ENDBRANCH   2  18
TORSDOF 6
ENDMDL
MODEL 6
REMARK VINA RESULT:      -7.7     22.647     24.441
REMARK  6 active torsions:
REMARK  status: ('A' for Active; 'I' for Inactive)
REMARK    1  A    between atoms: C17_22  and  O1_3 
REMARK    2  A    between atoms: C2_7  and  O1_3 
REMARK    3  A    between atoms: C1_6  and  C5_10 
REMARK    4  A    between atoms: C5_10  and  C9_14 
REMARK    5  A    between atoms: C10_15  and  C8_13 
REMARK    6  A    between atoms: C15_20  and  C17_22 
ROOT
HETATM    1  C1  UNK     1      15.378   7.169   9.515  1.00  0.00     0.014 A 
HETATM    2  C2  UNK     1      13.311   5.774   8.268  1.00  0.00     0.079 A 
HETATM    3  C3  UNK     1      14.377   7.864   8.838  1.00  0.00     0.018 A 
HETATM    4  C4  UNK     1      15.345   5.775   9.569  1.00  0.00     0.018 A 
HETATM    5  C6  UNK     1      13.343   7.167   8.214  1.00  0.00     0.038 A 
HETATM    6  C7  UNK     1      14.312   5.078   8.945  1.00  0.00     0.038 A 
ENDROOT
BRANCH   1   7
HETATM    7  C5  UNK     1      16.457   7.897  10.165  1.00  0.00     0.182 C 
HETATM    8  O2  UNK     1      17.641   7.680   9.866  1.00  0.00    -0.288 OA
BRANCH   7   9
HETATM    9  C9  UNK     1      16.110   8.899  11.230  1.00  0.00     0.056 C 
HETATM   10  C10 UNK     1      16.139  10.213  10.967  1.00  0.00     0.015 C 
BRANCH  10  11
HETATM   11  C8  UNK     1      16.498  10.797   9.662  1.00  0.00    -0.035 A 
HETATM   12  C11 UNK     1      17.838  11.015   9.340  1.00  0.00     0.035 A 
HETATM   13  C13 UNK     1      18.179  11.567   8.105  1.00  0.00     0.034 A 
HETATM   14 Cl1  UNK     1      19.831  11.837   7.708  1.00  0.00    -0.084 Cl
HETATM   15  C16 UNK     1      17.178  11.901   7.192  1.00  0.00     0.024 A 
HETATM   16  C14 UNK     1      15.838  11.682   7.513  1.00  0.00     0.003 A 
HETATM   17  C12 UNK     1      15.499  11.129   8.748  1.00  0.00     0.011 A 
ENDBRANCH  10  11
ENDBRANCH   7   9
ENDBRANCH   1   7
BRANCH   2  18
HETATM   18  O1  UNK     1      12.302   5.092   7.658  1.00  0.00    -0.275 OA
BRANCH  18  19
HETATM   19  C17 UNK     1      11.598   5.836   6.708  1.00  0.00     0.305 C 
HETATM   20  O3  UNK     1      12.045   6.237   5.643  1.00  0.00    -0.258 OA
BRANCH  19  21
HETATM   21  C15 UNK     1      10.207   6.102   7.158  1.00  0.00     0.080 A 
HETATM   22  S1  UNK     1       9.806   5.868   8.806  1.00  0.00    -0.096 SA
HETATM   23  C20 UNK     1       8.182   6.341   8.534  1.00  0.00     0.050 A 
HETATM   24  C19 UNK     1       7.954   6.669   7.216  1.00  0.00     0.009 A 
HETATM   25  C18 UNK     1       9.126   6.531   6.418  1.00  0.00     0.025 A 
ENDBRANCH  19  21
ENDBRANCH  18  19
ENDBRANCH   2  18
TORSDOF 6
ENDMDL
MODEL 7
REMARK VINA RESULT:      -7.6     22.720     24.748
REMARK  6 active torsions:
REMARK  status: ('A' for Active; 'I' for Inactive)
REMARK    1  A    between atoms: C17_22  and  O1_3 
REMARK    2  A    between atoms: C2_7  and  O1_3 
REMARK    3  A    between atoms: C1_6  and  C5_10 
REMARK    4  A    between atoms: C5_10  and  C9_14 
REMARK    5  A    between atoms: C10_15  and  C8_13 
REMARK    6  A    between atoms: C15_20  and  C17_22 
ROOT
HETATM    1  C1  UNK     1      14.597   7.945   9.574  1.00  0.00     0.014 A 
HETATM    2  C2  UNK     1      16.311  10.041   8.904  1.00  0.00     0.079 A 
HETATM    3  C3  UNK     1      14.148   8.976   8.750  1.00  0.00     0.018 A 
HETATM    4  C4  UNK     1      15.904   7.961  10.063  1.00  0.00     0.018 A 
HETATM    5  C6  UNK     1      15.004  10.025   8.415  1.00  0.00     0.038 A 
HETATM    6  C7  UNK     1      16.760   9.009   9.728  1.00  0.00     0.038 A 
ENDROOT
BRANCH   1   7
HETATM    7  C5  UNK     1      13.703   6.852   9.925  1.00  0.00     0.182 C 
HETATM    8  O2  UNK     1      12.716   7.046  10.651  1.00  0.00    -0.288 OA
BRANCH   7   9
HETATM    9  C9  UNK     1      14.015   5.473   9.414  1.00  0.00     0.056 C 
HETATM   10  C10 UNK     1      13.249   4.904   8.472  1.00  0.00     0.015 C 
BRANCH  10  11
HETATM   11  C8  UNK     1      12.067   5.538   7.861  1.00  0.00    -0.035 A 
HETATM   12  C11 UNK     1      10.812   5.388   8.452  1.00  0.00     0.035 A 
HETATM   13  C13 UNK     1       9.693   5.987   7.873  1.00  0.00     0.034 A 
HETATM   14 Cl1  UNK     1       8.144   5.803   8.600  1.00  0.00    -0.084 Cl
HETATM   15  C16 UNK     1       9.829   6.736   6.704  1.00  0.00     0.024 A 
HETATM   16  C14 UNK     1      11.085   6.886   6.114  1.00  0.00     0.003 A 
HETATM   17  C12 UNK     1      12.203   6.287   6.694  1.00  0.00     0.011 A 
ENDBRANCH  10  11
ENDBRANCH   7   9
ENDBRANCH   1   7
BRANCH   2  18
HETATM   18  O1  UNK     1      17.147  11.064   8.578  1.00  0.00    -0.275 OA
BRANCH  18  19
HETATM   19  C17 UNK     1      17.702  11.725   9.676  1.00  0.00     0.305 C 
HETATM   20  O3  UNK     1      17.081  12.148  10.641  1.00  0.00    -0.258 OA
BRANCH  19  21
HETATM   21  C15 UNK     1      19.173  11.870   9.529  1.00  0.00     0.080 A 
HETATM   22  S1  UNK     1      19.850  11.928   7.957  1.00  0.00    -0.096 SA
HETATM   23  C20 UNK     1      21.435  12.088   8.587  1.00  0.00     0.050 A 
HETATM   24  C19 UNK     1      21.445  12.096   9.965  1.00  0.00     0.009 A 
HETATM   25  C18 UNK     1      20.135  11.970  10.510  1.00  0.00     0.025 A 
ENDBRANCH  19  21
ENDBRANCH  18  19
ENDBRANCH   2  18
TORSDOF 6
ENDMDL
MODEL 8
REMARK VINA RESULT:      -7.6     14.472     19.670
REMARK  6 active torsions:
REMARK  status: ('A' for Active; 'I' for Inactive)
REMARK    1  A    between atoms: C17_22  and  O1_3 
REMARK    2  A    between atoms: C2_7  and  O1_3 
REMARK    3  A    between atoms: C1_6  and  C5_10 
REMARK    4  A    between atoms: C5_10  and  C9_14 
REMARK    5  A    between atoms: C10_15  and  C8_13 
REMARK    6  A    between atoms: C15_20  and  C17_22 
ROOT
HETATM    1  C1  UNK     1      19.531  -3.442  14.430  1.00  0.00     0.014 A 
HETATM    2  C2  UNK     1      18.644  -1.771  16.480  1.00  0.00     0.079 A 
HETATM    3  C3  UNK     1      20.369  -3.153  15.507  1.00  0.00     0.018 A 
HETATM    4  C4  UNK     1      18.248  -2.894  14.379  1.00  0.00     0.018 A 
HETATM    5  C6  UNK     1      19.926  -2.318  16.532  1.00  0.00     0.038 A 
HETATM    6  C7  UNK     1      17.806  -2.059  15.403  1.00  0.00     0.038 A 
ENDROOT
BRANCH   1   7
HETATM    7  C5  UNK     1      19.994  -4.312  13.361  1.00  0.00     0.182 C 
HETATM    8  O2  UNK     1      19.711  -4.071  12.178  1.00  0.00    -0.288 OA
BRANCH   7   9
HETATM    9  C9  UNK     1      20.799  -5.529  13.721  1.00  0.00     0.056 C 
HETATM   10  C10 UNK     1      20.203  -6.613  14.239  1.00  0.00     0.015 C 
BRANCH  10  11
HETATM   11  C8  UNK     1      18.757  -6.726  14.503  1.00  0.00    -0.035 A 
HETATM   12  C11 UNK     1      18.259  -6.468  15.781  1.00  0.00     0.035 A 
HETATM   13  C13 UNK     1      16.891  -6.575  16.031  1.00  0.00     0.034 A 
HETATM   14 Cl1  UNK     1      16.276  -6.258  17.606  1.00  0.00    -0.084 Cl
HETATM   15  C16 UNK     1      16.021  -6.940  15.003  1.00  0.00     0.024 A 
HETATM   16  C14 UNK     1      16.519  -7.198  13.725  1.00  0.00     0.003 A 
HETATM   17  C12 UNK     1      17.887  -7.090  13.476  1.00  0.00     0.011 A 
ENDBRANCH  10  11
ENDBRANCH   7   9
ENDBRANCH   1   7
BRANCH   2  18
HETATM   18  O1  UNK     1      18.211  -0.954  17.480  1.00  0.00    -0.275 OA
BRANCH  18  19
HETATM   19  C17 UNK     1      18.842   0.292  17.518  1.00  0.00     0.305 C 
HETATM   20  O3  UNK     1      19.148   0.965  16.544  1.00  0.00    -0.258 OA
BRANCH  19  21
HETATM   21  C15 UNK     1      19.114   0.713  18.916  1.00  0.00     0.080 A 
HETATM   22  S1  UNK     1      19.291   2.380  19.264  1.00  0.00    -0.096 SA
HETATM   23  C20 UNK     1      19.559   2.060  20.925  1.00  0.00     0.050 A 
HETATM   24  C19 UNK     1      19.513   0.712  21.206  1.00  0.00     0.009 A 
HETATM   25  C18 UNK     1      19.257  -0.068  20.042  1.00  0.00     0.025 A 
ENDBRANCH  19  21
ENDBRANCH  18  19
ENDBRANCH   2  18
TORSDOF 6
ENDMDL
MODEL 9
REMARK VINA RESULT:      -7.6     16.664     18.555
REMARK  6 active torsions:
REMARK  status: ('A' for Active; 'I' for Inactive)
REMARK    1  A    between atoms: C17_22  and  O1_3 
REMARK    2  A    between atoms: C2_7  and  O1_3 
REMARK    3  A    between atoms: C1_6  and  C5_10 
REMARK    4  A    between atoms: C5_10  and  C9_14 
REMARK    5  A    between atoms: C10_15  and  C8_13 
REMARK    6  A    between atoms: C15_20  and  C17_22 
ROOT
HETATM    1  C1  UNK     1      31.604  -5.238  37.605  1.00  0.00     0.014 A 
HETATM    2  C2  UNK     1      29.185  -5.686  38.919  1.00  0.00     0.079 A 
HETATM    3  C3  UNK     1      30.707  -4.187  37.791  1.00  0.00     0.018 A 
HETATM    4  C4  UNK     1      31.292  -6.513  38.076  1.00  0.00     0.018 A 
HETATM    5  C6  UNK     1      29.497  -4.411  38.447  1.00  0.00     0.038 A 
HETATM    6  C7  UNK     1      30.083  -6.737  38.732  1.00  0.00     0.038 A 
ENDROOT
BRANCH   1   7
HETATM    7  C5  UNK     1      32.865  -5.004  36.917  1.00  0.00     0.182 C 
HETATM    8  O2  UNK     1      33.929  -5.450  37.372  1.00  0.00    -0.288 OA
BRANCH   7   9
HETATM    9  C9  UNK     1      32.857  -4.184  35.658  1.00  0.00     0.056 C 
HETATM   10  C10 UNK     1      32.355  -4.685  34.520  1.00  0.00     0.015 C 
BRANCH  10  11
HETATM   11  C8  UNK     1      31.782  -6.035  34.382  1.00  0.00    -0.035 A 
HETATM   12  C11 UNK     1      32.624  -7.143  34.273  1.00  0.00     0.035 A 
HETATM   13  C13 UNK     1      32.081  -8.421  34.143  1.00  0.00     0.034 A 
HETATM   14 Cl1  UNK     1      33.119  -9.788  34.009  1.00  0.00    -0.084 Cl
HETATM   15  C16 UNK     1      30.697  -8.592  34.122  1.00  0.00     0.024 A 
HETATM   16  C14 UNK     1      29.855  -7.485  34.230  1.00  0.00     0.003 A 
HETATM   17  C12 UNK     1      30.398  -6.207  34.361  1.00  0.00     0.011 A 
ENDBRANCH  10  11
ENDBRANCH   7   9
ENDBRANCH   1   7
BRANCH   2  18
HETATM   18  O1  UNK     1      28.004  -5.905  39.560  1.00  0.00    -0.275 OA
BRANCH  18  19
HETATM   19  C17 UNK     1      26.913  -6.089  38.707  1.00  0.00     0.305 C 
HETATM   20  O3  UNK     1      26.049  -5.258  38.467  1.00  0.00    -0.258 OA
BRANCH  19  21
HETATM   21  C15 UNK     1      26.917  -7.452  38.117  1.00  0.00     0.080 A 
HETATM   22  S1  UNK     1      26.519  -8.790  39.109  1.00  0.00    -0.096 SA
HETATM   23  C20 UNK     1      26.733  -9.886  37.810  1.00  0.00     0.050 A 
HETATM   24  C19 UNK     1      27.099  -9.243  36.647  1.00  0.00     0.009 A 
HETATM   25  C18 UNK     1      27.206  -7.834  36.825  1.00  0.00     0.025 A 
ENDBRANCH  19  21
ENDBRANCH  18  19
ENDBRANCH   2  18
TORSDOF 6
ENDMDL
MODEL 10
REMARK VINA RESULT:      -7.6     16.783     19.104
REMARK  6 active torsions:
REMARK  status: ('A' for Active; 'I' for Inactive)
REMARK    1  A    between atoms: C17_22  and  O1_3 
REMARK    2  A    between atoms: C2_7  and  O1_3 
REMARK    3  A    between atoms: C1_6  and  C5_10 
REMARK    4  A    between atoms: C5_10  and  C9_14 
REMARK    5  A    between atoms: C10_15  and  C8_13 
REMARK    6  A    between atoms: C15_20  and  C17_22 
ROOT
HETATM    1  C1  UNK     1      31.227  -5.099  36.617  1.00  0.00     0.014 A 
HETATM    2  C2  UNK     1      29.124  -5.395  38.425  1.00  0.00     0.079 A 
HETATM    3  C3  UNK     1      30.159  -5.943  36.313  1.00  0.00     0.018 A 
HETATM    4  C4  UNK     1      31.243  -4.403  37.826  1.00  0.00     0.018 A 
HETATM    5  C6  UNK     1      29.108  -6.091  37.216  1.00  0.00     0.038 A 
HETATM    6  C7  UNK     1      30.192  -4.552  38.730  1.00  0.00     0.038 A 
ENDROOT
BRANCH   1   7
HETATM    7  C5  UNK     1      32.325  -4.946  35.675  1.00  0.00     0.182 C 
HETATM    8  O2  UNK     1      32.109  -4.671  34.486  1.00  0.00    -0.288 OA
BRANCH   7   9
HETATM    9  C9  UNK     1      33.730  -5.160  36.166  1.00  0.00     0.056 C 
HETATM   10  C10 UNK     1      34.099  -6.338  36.689  1.00  0.00     0.015 C 
BRANCH  10  11
HETATM   11  C8  UNK     1      33.209  -7.503  36.835  1.00  0.00    -0.035 A 
HETATM   12  C11 UNK     1      32.969  -8.340  35.744  1.00  0.00     0.035 A 
HETATM   13  C13 UNK     1      32.126  -9.442  35.883  1.00  0.00     0.034 A 
HETATM   14 Cl1  UNK     1      31.830 -10.474  34.538  1.00  0.00    -0.084 Cl
HETATM   15  C16 UNK     1      31.523  -9.709  37.112  1.00  0.00     0.024 A 
HETATM   16  C14 UNK     1      31.762  -8.872  38.203  1.00  0.00     0.003 A 
HETATM   17  C12 UNK     1      32.606  -7.770  38.064  1.00  0.00     0.011 A 
ENDBRANCH  10  11
ENDBRANCH   7   9
ENDBRANCH   1   7
BRANCH   2  18
HETATM   18  O1  UNK     1      28.098  -5.540  39.308  1.00  0.00    -0.275 OA
BRANCH  18  19
HETATM   19  C17 UNK     1      26.967  -6.167  38.777  1.00  0.00     0.305 C 
HETATM   20  O3  UNK     1      25.985  -5.599  38.323  1.00  0.00    -0.258 OA
BRANCH  19  21
HETATM   21  C15 UNK     1      27.095  -7.646  38.840  1.00  0.00     0.080 A 
HETATM   22  S1  UNK     1      26.398  -8.596  37.598  1.00  0.00    -0.096 SA
HETATM   23  C20 UNK     1      26.932 -10.047  38.333  1.00  0.00     0.050 A 
HETATM   24  C19 UNK     1      27.626  -9.810  39.500  1.00  0.00     0.009 A 
HETATM   25  C18 UNK     1      27.720  -8.419  39.794  1.00  0.00     0.025 A 
ENDBRANCH  19  21
ENDBRANCH  18  19
ENDBRANCH   2  18
TORSDOF 6
ENDMDL
