MODEL 1
REMARK VINA RESULT:      -8.6      0.000      0.000
REMARK  1 active torsions:
REMARK  status: ('A' for Active; 'I' for Inactive)
REMARK       I    between atoms: C5_11  and  N1_6 
REMARK    1  A    between atoms: C5_11  and  C6_12 
ROOT
HETATM    1 Br1  UNK     1      19.038   2.111  21.081  1.00  0.00    -0.051 Br
HETATM    2  O2  UNK     1      19.227   0.792  15.162  1.00  0.00    -0.274 OA
HETATM    3  O4  UNK     1      19.139  -0.736  13.466  1.00  0.00    -0.259 OA
HETATM    4  C6  UNK     1      18.905  -1.579  15.668  1.00  0.00     0.108 A 
HETATM    5  C7  UNK     1      18.860  -1.320  16.981  1.00  0.00     0.037 A 
HETATM    6  C8  UNK     1      18.999   0.045  17.464  1.00  0.00     0.000 A 
HETATM    7  C9  UNK     1      19.179   1.070  16.542  1.00  0.00     0.089 A 
HETATM    8  C10 UNK     1      19.097  -0.503  14.670  1.00  0.00     0.304 A 
HETATM    9  C11 UNK     1      18.956   0.361  18.825  1.00  0.00     0.033 A 
HETATM   10  C12 UNK     1      19.318   2.398  16.940  1.00  0.00     0.039 A 
HETATM   11  C13 UNK     1      19.095   1.689  19.239  1.00  0.00     0.011 A 
HETATM   12  C14 UNK     1      19.275   2.706  18.298  1.00  0.00     0.022 A 
ENDROOT
BRANCH   4  13
HETATM   13  C5  UNK     1      18.755  -2.993  15.276  1.00  0.00     0.260 C 
HETATM   14  O3  UNK     1      17.729  -3.310  14.670  1.00  0.00    -0.267 OA
HETATM   15  N1  UNK     1      19.775  -3.877  15.614  1.00  0.00    -0.344 N 
HETATM   16  C1  UNK     1      20.948  -3.590  16.450  1.00  0.00     0.152 C 
HETATM   17  C2  UNK     1      19.654  -5.288  15.241  1.00  0.00     0.152 C 
HETATM   18  C3  UNK     1      22.204  -4.152  15.800  1.00  0.00     0.187 C 
HETATM   19  O1  UNK     1      22.045  -5.550  15.538  1.00  0.00    -0.388 OA
HETATM   20  C4  UNK     1      20.961  -5.786  14.637  1.00  0.00     0.187 C 
ENDBRANCH   4  13
TORSDOF 1
ENDMDL
MODEL 2
REMARK VINA RESULT:      -8.1     12.114     14.102
REMARK  1 active torsions:
REMARK  status: ('A' for Active; 'I' for Inactive)
REMARK       I    between atoms: C5_11  and  N1_6 
REMARK    1  A    between atoms: C5_11  and  C6_12 
ROOT
HETATM    1 Br1  UNK     1      17.110  10.855  10.202  1.00  0.00    -0.051 Br
HETATM    2  O2  UNK     1      14.326   5.525   9.397  1.00  0.00    -0.274 OA
HETATM    3  O4  UNK     1      12.706   4.264   8.395  1.00  0.00    -0.259 OA
HETATM    4  C6  UNK     1      12.786   6.556   7.801  1.00  0.00     0.108 A 
HETATM    5  C7  UNK     1      13.379   7.747   7.958  1.00  0.00     0.037 A 
HETATM    6  C8  UNK     1      14.507   7.890   8.866  1.00  0.00     0.000 A 
HETATM    7  C9  UNK     1      14.955   6.774   9.565  1.00  0.00     0.089 A 
HETATM    8  C10 UNK     1      13.247   5.356   8.535  1.00  0.00     0.304 A 
HETATM    9  C11 UNK     1      15.156   9.112   9.059  1.00  0.00     0.033 A 
HETATM   10  C12 UNK     1      16.030   6.844  10.448  1.00  0.00     0.039 A 
HETATM   11  C13 UNK     1      16.236   9.198   9.943  1.00  0.00     0.011 A 
HETATM   12  C14 UNK     1      16.672   8.067  10.636  1.00  0.00     0.022 A 
ENDROOT
BRANCH   4  13
HETATM   13  C5  UNK     1      11.652   6.511   6.859  1.00  0.00     0.260 C 
HETATM   14  O3  UNK     1      11.909   6.333   5.667  1.00  0.00    -0.267 OA
HETATM   15  N1  UNK     1      10.369   6.673   7.373  1.00  0.00    -0.344 N 
HETATM   16  C1  UNK     1      10.011   7.025   8.754  1.00  0.00     0.152 C 
HETATM   17  C2  UNK     1       9.222   6.635   6.464  1.00  0.00     0.152 C 
HETATM   18  C3  UNK     1       8.880   6.131   9.245  1.00  0.00     0.187 C 
HETATM   19  O1  UNK     1       7.764   6.207   8.352  1.00  0.00    -0.388 OA
HETATM   20  C4  UNK     1       8.120   5.758   7.043  1.00  0.00     0.187 C 
ENDBRANCH   4  13
TORSDOF 1
ENDMDL
MODEL 3
REMARK VINA RESULT:      -8.0     12.517     14.356
REMARK  1 active torsions:
REMARK  status: ('A' for Active; 'I' for Inactive)
REMARK       I    between atoms: C5_11  and  N1_6 
REMARK    1  A    between atoms: C5_11  and  C6_12 
ROOT
HETATM    1 Br1  UNK     1      17.304  11.931   8.434  1.00  0.00    -0.051 Br
HETATM    2  O2  UNK     1      14.509   6.898  10.345  1.00  0.00    -0.274 OA
HETATM    3  O4  UNK     1      12.625   5.615  10.510  1.00  0.00    -0.259 OA
HETATM    4  C6  UNK     1      12.410   7.673   9.358  1.00  0.00     0.108 A 
HETATM    5  C7  UNK     1      12.998   8.795   8.923  1.00  0.00     0.037 A 
HETATM    6  C8  UNK     1      14.410   9.031   9.184  1.00  0.00     0.000 A 
HETATM    7  C9  UNK     1      15.133   8.075   9.890  1.00  0.00     0.089 A 
HETATM    8  C10 UNK     1      13.161   6.643  10.110  1.00  0.00     0.304 A 
HETATM    9  C11 UNK     1      15.064  10.186   8.748  1.00  0.00     0.033 A 
HETATM   10  C12 UNK     1      16.487   8.240  10.171  1.00  0.00     0.039 A 
HETATM   11  C13 UNK     1      16.423  10.366   9.024  1.00  0.00     0.011 A 
HETATM   12  C14 UNK     1      17.133   9.395   9.734  1.00  0.00     0.022 A 
ENDROOT
BRANCH   4  13
HETATM   13  C5  UNK     1      10.976   7.525   9.044  1.00  0.00     0.260 C 
HETATM   14  O3  UNK     1      10.173   8.137   9.751  1.00  0.00    -0.267 OA
HETATM   15  N1  UNK     1      10.621   6.706   7.977  1.00  0.00    -0.344 N 
HETATM   16  C1  UNK     1      11.517   5.846   7.191  1.00  0.00     0.152 C 
HETATM   17  C2  UNK     1       9.206   6.536   7.641  1.00  0.00     0.152 C 
HETATM   18  C3  UNK     1      11.225   6.006   5.705  1.00  0.00     0.187 C 
HETATM   19  O1  UNK     1       9.843   5.747   5.440  1.00  0.00    -0.388 OA
HETATM   20  C4  UNK     1       9.002   6.668   6.138  1.00  0.00     0.187 C 
ENDBRANCH   4  13
TORSDOF 1
ENDMDL
MODEL 4
REMARK VINA RESULT:      -8.0     11.906     13.938
REMARK  1 active torsions:
REMARK  status: ('A' for Active; 'I' for Inactive)
REMARK       I    between atoms: C5_11  and  N1_6 
REMARK    1  A    between atoms: C5_11  and  C6_12 
ROOT
HETATM    1 Br1  UNK     1       6.837   4.844   9.953  1.00  0.00    -0.051 Br
HETATM    2  O2  UNK     1      11.620   6.621   6.670  1.00  0.00    -0.274 OA
HETATM    3  O4  UNK     1      13.874   6.918   6.448  1.00  0.00    -0.259 OA
HETATM    4  C6  UNK     1      13.120   6.013   8.503  1.00  0.00     0.108 A 
HETATM    5  C7  UNK     1      12.085   5.614   9.253  1.00  0.00     0.037 A 
HETATM    6  C8  UNK     1      10.728   5.699   8.735  1.00  0.00     0.000 A 
HETATM    7  C9  UNK     1      10.527   6.201   7.453  1.00  0.00     0.089 A 
HETATM    8  C10 UNK     1      12.929   6.551   7.137  1.00  0.00     0.304 A 
HETATM    9  C11 UNK     1       9.619   5.292   9.482  1.00  0.00     0.033 A 
HETATM   10  C12 UNK     1       9.254   6.308   6.899  1.00  0.00     0.039 A 
HETATM   11  C13 UNK     1       8.335   5.394   8.938  1.00  0.00     0.011 A 
HETATM   12  C14 UNK     1       8.153   5.901   7.649  1.00  0.00     0.022 A 
ENDROOT
BRANCH   4  13
HETATM   13  C5  UNK     1      14.456   5.888   9.116  1.00  0.00     0.260 C 
HETATM   14  O3  UNK     1      15.025   4.798   9.022  1.00  0.00    -0.267 OA
HETATM   15  N1  UNK     1      14.988   7.002   9.758  1.00  0.00    -0.344 N 
HETATM   16  C1  UNK     1      14.305   8.276  10.022  1.00  0.00     0.152 C 
HETATM   17  C2  UNK     1      16.311   6.909  10.378  1.00  0.00     0.152 C 
HETATM   18  C3  UNK     1      15.220   9.442   9.670  1.00  0.00     0.187 C 
HETATM   19  O1  UNK     1      16.461   9.328  10.373  1.00  0.00    -0.388 OA
HETATM   20  C4  UNK     1      17.149   8.127  10.015  1.00  0.00     0.187 C 
ENDBRANCH   4  13
TORSDOF 1
ENDMDL
MODEL 5
REMARK VINA RESULT:      -7.7     14.922     16.970
REMARK  1 active torsions:
REMARK  status: ('A' for Active; 'I' for Inactive)
REMARK       I    between atoms: C5_11  and  N1_6 
REMARK    1  A    between atoms: C5_11  and  C6_12 
ROOT
HETATM    1 Br1  UNK     1      15.273   0.917  36.637  1.00  0.00    -0.051 Br
HETATM    2  O2  UNK     1      20.248  -2.048  34.828  1.00  0.00    -0.274 OA
HETATM    3  O4  UNK     1      21.604  -2.811  33.156  1.00  0.00    -0.259 OA
HETATM    4  C6  UNK     1      19.673  -1.611  32.492  1.00  0.00     0.108 A 
HETATM    5  C7  UNK     1      18.567  -0.951  32.859  1.00  0.00     0.037 A 
HETATM    6  C8  UNK     1      18.237  -0.802  34.268  1.00  0.00     0.000 A 
HETATM    7  C9  UNK     1      19.086  -1.354  35.221  1.00  0.00     0.089 A 
HETATM    8  C10 UNK     1      20.591  -2.206  33.489  1.00  0.00     0.304 A 
HETATM    9  C11 UNK     1      17.094  -0.121  34.696  1.00  0.00     0.033 A 
HETATM   10  C12 UNK     1      18.827  -1.245  36.585  1.00  0.00     0.039 A 
HETATM   11  C13 UNK     1      16.821  -0.004  36.062  1.00  0.00     0.011 A 
HETATM   12  C14 UNK     1      17.686  -0.565  37.005  1.00  0.00     0.022 A 
ENDROOT
BRANCH   4  13
HETATM   13  C5  UNK     1      19.923  -1.710  31.041  1.00  0.00     0.260 C 
HETATM   14  O3  UNK     1      20.240  -2.813  30.592  1.00  0.00    -0.267 OA
HETATM   15  N1  UNK     1      19.785  -0.557  30.274  1.00  0.00    -0.344 N 
HETATM   16  C1  UNK     1      19.547   0.806  30.768  1.00  0.00     0.152 C 
HETATM   17  C2  UNK     1      20.028  -0.621  28.832  1.00  0.00     0.152 C 
HETATM   18  C3  UNK     1      18.459   1.479  29.942  1.00  0.00     0.187 C 
HETATM   19  O1  UNK     1      18.801   1.451  28.553  1.00  0.00    -0.388 OA
HETATM   20  C4  UNK     1      18.923   0.108  28.079  1.00  0.00     0.187 C 
ENDBRANCH   4  13
TORSDOF 1
ENDMDL
MODEL 6
REMARK VINA RESULT:      -7.6     13.467     16.337
REMARK  1 active torsions:
REMARK  status: ('A' for Active; 'I' for Inactive)
REMARK       I    between atoms: C5_11  and  N1_6 
REMARK    1  A    between atoms: C5_11  and  C6_12 
ROOT
HETATM    1 Br1  UNK     1      20.878  -2.984  31.871  1.00  0.00    -0.051 Br
HETATM    2  O2  UNK     1      18.994   1.861  28.744  1.00  0.00    -0.274 OA
HETATM    3  O4  UNK     1      18.220   4.010  28.690  1.00  0.00    -0.259 OA
HETATM    4  C6  UNK     1      18.649   3.090  30.830  1.00  0.00     0.108 A 
HETATM    5  C7  UNK     1      19.060   2.037  31.549  1.00  0.00     0.037 A 
HETATM    6  C8  UNK     1      19.470   0.810  30.883  1.00  0.00     0.000 A 
HETATM    7  C9  UNK     1      19.427   0.751  29.494  1.00  0.00     0.089 A 
HETATM    8  C10 UNK     1      18.596   3.048  29.351  1.00  0.00     0.304 A 
HETATM    9  C11 UNK     1      19.906  -0.312  31.593  1.00  0.00     0.033 A 
HETATM   10  C12 UNK     1      19.807  -0.394  28.797  1.00  0.00     0.039 A 
HETATM   11  C13 UNK     1      20.290  -1.468  30.906  1.00  0.00     0.011 A 
HETATM   12  C14 UNK     1      20.240  -1.509  29.511  1.00  0.00     0.022 A 
ENDROOT
BRANCH   4  13
HETATM   13  C5  UNK     1      18.254   4.288  31.595  1.00  0.00     0.260 C 
HETATM   14  O3  UNK     1      17.115   4.313  32.065  1.00  0.00    -0.267 OA
HETATM   15  N1  UNK     1      19.187   5.310  31.736  1.00  0.00    -0.344 N 
HETATM   16  C1  UNK     1      20.502   5.398  31.087  1.00  0.00     0.152 C 
HETATM   17  C2  UNK     1      18.825   6.513  32.488  1.00  0.00     0.152 C 
HETATM   18  C3  UNK     1      21.559   5.818  32.100  1.00  0.00     0.187 C 
HETATM   19  O1  UNK     1      21.177   7.042  32.737  1.00  0.00    -0.388 OA
HETATM   20  C4  UNK     1      19.946   6.892  33.447  1.00  0.00     0.187 C 
ENDBRANCH   4  13
TORSDOF 1
ENDMDL
MODEL 7
REMARK VINA RESULT:      -7.4     22.433     23.858
REMARK  1 active torsions:
REMARK  status: ('A' for Active; 'I' for Inactive)
REMARK       I    between atoms: C5_11  and  N1_6 
REMARK    1  A    between atoms: C5_11  and  C6_12 
ROOT
HETATM    1 Br1  UNK     1      30.363  -9.187  38.273  1.00  0.00    -0.051 Br
HETATM    2  O2  UNK     1      25.461  -5.631  38.637  1.00  0.00    -0.274 OA
HETATM    3  O4  UNK     1      23.210  -5.380  38.934  1.00  0.00    -0.259 OA
HETATM    4  C6  UNK     1      24.051  -7.593  39.019  1.00  0.00     0.108 A 
HETATM    5  C7  UNK     1      25.114  -8.404  38.943  1.00  0.00     0.037 A 
HETATM    6  C8  UNK     1      26.440  -7.855  38.705  1.00  0.00     0.000 A 
HETATM    7  C9  UNK     1      26.582  -6.479  38.557  1.00  0.00     0.089 A 
HETATM    8  C10 UNK     1      24.181  -6.126  38.865  1.00  0.00     0.304 A 
HETATM    9  C11 UNK     1      27.576  -8.664  38.620  1.00  0.00     0.033 A 
HETATM   10  C12 UNK     1      27.824  -5.891  38.328  1.00  0.00     0.039 A 
HETATM   11  C13 UNK     1      28.829  -8.088  38.389  1.00  0.00     0.011 A 
HETATM   12  C14 UNK     1      28.953  -6.704  38.244  1.00  0.00     0.022 A 
ENDROOT
BRANCH   4  13
HETATM   13  C5  UNK     1      22.750  -8.243  39.263  1.00  0.00     0.260 C 
HETATM   14  O3  UNK     1      22.402  -8.398  40.436  1.00  0.00    -0.267 OA
HETATM   15  N1  UNK     1      22.000  -8.639  38.161  1.00  0.00    -0.344 N 
HETATM   16  C1  UNK     1      22.419  -8.608  36.753  1.00  0.00     0.152 C 
HETATM   17  C2  UNK     1      20.705  -9.289  38.369  1.00  0.00     0.152 C 
HETATM   18  C3  UNK     1      21.307  -8.030  35.888  1.00  0.00     0.187 C 
HETATM   19  O1  UNK     1      20.094  -8.764  36.084  1.00  0.00    -0.388 OA
HETATM   20  C4  UNK     1      19.658  -8.687  37.442  1.00  0.00     0.187 C 
ENDBRANCH   4  13
TORSDOF 1
ENDMDL
MODEL 8
REMARK VINA RESULT:      -7.4     11.853     13.367
REMARK  1 active torsions:
REMARK  status: ('A' for Active; 'I' for Inactive)
REMARK       I    between atoms: C5_11  and  N1_6 
REMARK    1  A    between atoms: C5_11  and  C6_12 
ROOT
HETATM    1 Br1  UNK     1      19.677  12.335   9.624  1.00  0.00    -0.051 Br
HETATM    2  O2  UNK     1      14.278  10.143  11.314  1.00  0.00    -0.274 OA
HETATM    3  O4  UNK     1      12.773   8.427  11.402  1.00  0.00    -0.259 OA
HETATM    4  C6  UNK     1      14.829   7.981  10.312  1.00  0.00     0.108 A 
HETATM    5  C7  UNK     1      16.027   8.435   9.925  1.00  0.00     0.037 A 
HETATM    6  C8  UNK     1      16.423   9.803  10.222  1.00  0.00     0.000 A 
HETATM    7  C9  UNK     1      15.538  10.626  10.910  1.00  0.00     0.089 A 
HETATM    8  C10 UNK     1      13.872   8.839  11.046  1.00  0.00     0.304 A 
HETATM    9  C11 UNK     1      17.664  10.319   9.838  1.00  0.00     0.033 A 
HETATM   10  C12 UNK     1      15.857  11.945  11.226  1.00  0.00     0.039 A 
HETATM   11  C13 UNK     1      17.997  11.641  10.147  1.00  0.00     0.011 A 
HETATM   12  C14 UNK     1      17.096  12.453  10.839  1.00  0.00     0.022 A 
ENDROOT
BRANCH   4  13
HETATM   13  C5  UNK     1      14.519   6.580   9.966  1.00  0.00     0.260 C 
HETATM   14  O3  UNK     1      14.917   5.703  10.734  1.00  0.00    -0.267 OA
HETATM   15  N1  UNK     1      13.801   6.340   8.799  1.00  0.00    -0.344 N 
HETATM   16  C1  UNK     1      13.423   7.326   7.778  1.00  0.00     0.152 C 
HETATM   17  C2  UNK     1      13.479   4.961   8.426  1.00  0.00     0.152 C 
HETATM   18  C3  UNK     1      11.966   7.133   7.378  1.00  0.00     0.187 C 
HETATM   19  O1  UNK     1      11.744   5.786   6.949  1.00  0.00    -0.388 OA
HETATM   20  C4  UNK     1      12.021   4.857   8.000  1.00  0.00     0.187 C 
ENDBRANCH   4  13
TORSDOF 1
ENDMDL
MODEL 9
REMARK VINA RESULT:      -7.3     12.455     14.199
REMARK  1 active torsions:
REMARK  status: ('A' for Active; 'I' for Inactive)
REMARK       I    between atoms: C5_11  and  N1_6 
REMARK    1  A    between atoms: C5_11  and  C6_12 
ROOT
HETATM    1 Br1  UNK     1      16.444  13.936   6.932  1.00  0.00    -0.051 Br
HETATM    2  O2  UNK     1      16.879   8.595   9.778  1.00  0.00    -0.274 OA
HETATM    3  O4  UNK     1      15.897   6.729  10.656  1.00  0.00    -0.259 OA
HETATM    4  C6  UNK     1      14.451   8.327   9.672  1.00  0.00     0.108 A 
HETATM    5  C7  UNK     1      14.322   9.503   9.043  1.00  0.00     0.037 A 
HETATM    6  C8  UNK     1      15.497  10.305   8.741  1.00  0.00     0.000 A 
HETATM    7  C9  UNK     1      16.750   9.832   9.116  1.00  0.00     0.089 A 
HETATM    8  C10 UNK     1      15.775   7.805  10.079  1.00  0.00     0.304 A 
HETATM    9  C11 UNK     1      15.409  11.537   8.086  1.00  0.00     0.033 A 
HETATM   10  C12 UNK     1      17.914  10.552   8.855  1.00  0.00     0.039 A 
HETATM   11  C13 UNK     1      16.569  12.270   7.818  1.00  0.00     0.011 A 
HETATM   12  C14 UNK     1      17.818  11.779   8.202  1.00  0.00     0.022 A 
ENDROOT
BRANCH   4  13
HETATM   13  C5  UNK     1      13.202   7.587   9.934  1.00  0.00     0.260 C 
HETATM   14  O3  UNK     1      12.651   7.768  11.022  1.00  0.00    -0.267 OA
HETATM   15  N1  UNK     1      12.727   6.734   8.943  1.00  0.00    -0.344 N 
HETATM   16  C1  UNK     1      13.408   6.373   7.692  1.00  0.00     0.152 C 
HETATM   17  C2  UNK     1      11.492   5.983   9.173  1.00  0.00     0.152 C 
HETATM   18  C3  UNK     1      12.431   6.445   6.525  1.00  0.00     0.187 C 
HETATM   19  O1  UNK     1      11.287   5.625   6.785  1.00  0.00    -0.388 OA
HETATM   20  C4  UNK     1      10.588   6.068   7.950  1.00  0.00     0.187 C 
ENDBRANCH   4  13
TORSDOF 1
ENDMDL
MODEL 10
REMARK VINA RESULT:      -7.3     14.193     15.687
REMARK  1 active torsions:
REMARK  status: ('A' for Active; 'I' for Inactive)
REMARK       I    between atoms: C5_11  and  N1_6 
REMARK    1  A    between atoms: C5_11  and  C6_12 
ROOT
HETATM    1 Br1  UNK     1       6.204  10.589  13.011  1.00  0.00    -0.051 Br
HETATM    2  O2  UNK     1       6.527   5.460   9.787  1.00  0.00    -0.274 OA
HETATM    3  O4  UNK     1       7.459   4.231   8.101  1.00  0.00    -0.259 OA
HETATM    4  C6  UNK     1       8.310   6.420   8.415  1.00  0.00     0.108 A 
HETATM    5  C7  UNK     1       8.262   7.565   9.108  1.00  0.00     0.037 A 
HETATM    6  C8  UNK     1       7.320   7.719  10.205  1.00  0.00     0.000 A 
HETATM    7  C9  UNK     1       6.473   6.661  10.519  1.00  0.00     0.089 A 
HETATM    8  C10 UNK     1       7.419   5.282   8.733  1.00  0.00     0.304 A 
HETATM    9  C11 UNK     1       7.237   8.896  10.955  1.00  0.00     0.033 A 
HETATM   10  C12 UNK     1       5.549   6.745  11.559  1.00  0.00     0.039 A 
HETATM   11  C13 UNK     1       6.314   8.994  12.000  1.00  0.00     0.011 A 
HETATM   12  C14 UNK     1       5.472   7.921  12.301  1.00  0.00     0.022 A 
ENDROOT
BRANCH   4  13
HETATM   13  C5  UNK     1       9.299   6.359   7.321  1.00  0.00     0.260 C 
HETATM   14  O3  UNK     1       8.908   6.636   6.186  1.00  0.00    -0.267 OA
HETATM   15  N1  UNK     1      10.603   5.994   7.639  1.00  0.00    -0.344 N 
HETATM   16  C1  UNK     1      11.093   5.521   8.941  1.00  0.00     0.152 C 
HETATM   17  C2  UNK     1      11.607   5.922   6.576  1.00  0.00     0.152 C 
HETATM   18  C3  UNK     1      12.398   6.221   9.294  1.00  0.00     0.187 C 
HETATM   19  O1  UNK     1      13.357   6.041   8.248  1.00  0.00    -0.388 OA
HETATM   20  C4  UNK     1      12.893   6.606   7.019  1.00  0.00     0.187 C 
ENDBRANCH   4  13
TORSDOF 1
ENDMDL
