MODEL 1
REMARK VINA RESULT:      -8.7      0.000      0.000
REMARK  6 active torsions:
REMARK  status: ('A' for Active; 'I' for Inactive)
REMARK    1  A    between atoms: C9_18  and  O2_5 
REMARK    2  A    between atoms: C18_27  and  O4_7 
REMARK    3  A    between atoms: C5_14  and  N1_8 
REMARK    4  A    between atoms: C5_14  and  C6_15 
REMARK    5  A    between atoms: C14_23  and  C16_25 
REMARK    6  A    between atoms: C15_24  and  C17_26 
ROOT
HETATM    1  O1  UNK     1      10.828   8.365   9.509  1.00  0.00    -0.303 OA
HETATM    2  O3  UNK     1      13.755   6.875   7.103  1.00  0.00    -0.286 OA
HETATM    3  C6  UNK     1       9.153   7.356   8.189  1.00  0.00     0.038 A 
HETATM    4  C8  UNK     1      10.504   7.597   8.423  1.00  0.00     0.101 A 
HETATM    5  C9  UNK     1       8.750   6.585   7.106  1.00  0.00     0.076 A 
HETATM    6  C10 UNK     1      11.457   7.060   7.564  1.00  0.00     0.050 A 
HETATM    7  C11 UNK     1       9.707   6.047   6.245  1.00  0.00     0.038 A 
HETATM    8  C12 UNK     1      11.063   6.283   6.472  1.00  0.00     0.021 A 
HETATM    9  C13 UNK     1      12.878   7.326   7.828  1.00  0.00     0.198 A 
HETATM   10  C14 UNK     1      13.185   8.167   9.019  1.00  0.00     0.067 A 
HETATM   11  C15 UNK     1      12.167   8.629   9.774  1.00  0.00     0.174 A 
ENDROOT
BRANCH   3  12
HETATM   12  C5  UNK     1       8.113   7.935   9.111  1.00  0.00     0.317 C 
BRANCH  12  13
HETATM   13  N1  UNK     1       7.271   6.896   9.701  1.00  0.00     0.096 N 
HETATM   14  C1  UNK     1       6.373   7.466  10.714  1.00  0.00     0.303 C 
HETATM   15  C3  UNK     1       5.490   6.377  11.333  1.00  0.00     0.302 C 
HETATM   16  N2  UNK     1       6.311   5.309  11.919  1.00  0.00     0.087 N 
HETATM   17  C4  UNK     1       7.210   4.740  10.907  1.00  0.00     0.302 C 
HETATM   18  C7  UNK     1       5.467   4.271  12.507  1.00  0.00     0.310 C 
HETATM   19  C2  UNK     1       8.091   5.830  10.286  1.00  0.00     0.303 C 
ENDBRANCH  12  13
ENDBRANCH   3  12
BRANCH   5  20
HETATM   20  O2  UNK     1       7.431   6.341   6.865  1.00  0.00    -0.360 OA
HETATM   21  H16 UNK     1       7.150   5.513   7.288  1.00  0.00     0.217 HD
ENDBRANCH   5  20
BRANCH  11  22
HETATM   22  C17 UNK     1      12.324   9.487  10.999  1.00  0.00     0.440 C 
HETATM   23  F1  UNK     1      11.125   9.762  11.545  1.00  0.00    -0.164 F 
HETATM   24  F2  UNK     1      13.075   8.863  11.927  1.00  0.00    -0.164 F 
HETATM   25  F3  UNK     1      12.923  10.655  10.694  1.00  0.00    -0.164 F 
ENDBRANCH  11  22
BRANCH  10  26
HETATM   26  C16 UNK     1      14.575   8.468   9.333  1.00  0.00     0.014 A 
HETATM   27  C18 UNK     1      15.333   7.613  10.133  1.00  0.00     0.079 A 
HETATM   28  C20 UNK     1      16.662   7.922  10.421  1.00  0.00     0.037 A 
HETATM   29  C22 UNK     1      17.234   9.087   9.908  1.00  0.00     0.003 A 
HETATM   30  C21 UNK     1      16.476   9.942   9.107  1.00  0.00     0.001 A 
HETATM   31  C19 UNK     1      15.146   9.632   8.819  1.00  0.00     0.015 A 
BRANCH  27  32
HETATM   32  O4  UNK     1      14.798   6.469  10.648  1.00  0.00    -0.355 OA
HETATM   33  C23 UNK     1      15.221   5.239  10.066  1.00  0.00     0.210 C 
ENDBRANCH  27  32
ENDBRANCH  10  26
TORSDOF 6
ENDMDL
MODEL 2
REMARK VINA RESULT:      -8.3     32.235     35.207
REMARK  6 active torsions:
REMARK  status: ('A' for Active; 'I' for Inactive)
REMARK    1  A    between atoms: C9_18  and  O2_5 
REMARK    2  A    between atoms: C18_27  and  O4_7 
REMARK    3  A    between atoms: C5_14  and  N1_8 
REMARK    4  A    between atoms: C5_14  and  C6_15 
REMARK    5  A    between atoms: C14_23  and  C16_25 
REMARK    6  A    between atoms: C15_24  and  C17_26 
ROOT
HETATM    1  O1  UNK     1      24.006  -7.815  38.224  1.00  0.00    -0.303 OA
HETATM    2  O3  UNK     1      22.275 -10.212  35.426  1.00  0.00    -0.286 OA
HETATM    3  C6  UNK     1      26.010  -9.056  38.128  1.00  0.00     0.038 A 
HETATM    4  C8  UNK     1      24.706  -8.860  37.684  1.00  0.00     0.101 A 
HETATM    5  C9  UNK     1      26.780 -10.097  37.623  1.00  0.00     0.076 A 
HETATM    6  C10 UNK     1      24.171  -9.713  36.725  1.00  0.00     0.050 A 
HETATM    7  C11 UNK     1      26.241 -10.952  36.662  1.00  0.00     0.038 A 
HETATM    8  C12 UNK     1      24.935 -10.763  36.210  1.00  0.00     0.021 A 
HETATM    9  C13 UNK     1      22.792  -9.489  36.268  1.00  0.00     0.198 A 
HETATM   10  C14 UNK     1      22.068  -8.343  36.885  1.00  0.00     0.067 A 
HETATM   11  C15 UNK     1      22.700  -7.588  37.807  1.00  0.00     0.174 A 
ENDROOT
BRANCH   3  12
HETATM   12  C5  UNK     1      26.599  -8.139  39.168  1.00  0.00     0.317 C 
BRANCH  12  13
HETATM   13  N1  UNK     1      27.473  -7.131  38.571  1.00  0.00     0.096 N 
HETATM   14  C1  UNK     1      28.851  -7.286  39.053  1.00  0.00     0.303 C 
HETATM   15  C3  UNK     1      29.768  -6.229  38.428  1.00  0.00     0.302 C 
HETATM   16  N2  UNK     1      29.276  -4.875  38.714  1.00  0.00     0.087 N 
HETATM   17  C4  UNK     1      27.897  -4.720  38.234  1.00  0.00     0.302 C 
HETATM   18  C7  UNK     1      30.150  -3.869  38.115  1.00  0.00     0.310 C 
HETATM   19  C2  UNK     1      26.980  -5.779  38.857  1.00  0.00     0.303 C 
ENDBRANCH  12  13
ENDBRANCH   3  12
BRANCH   5  20
HETATM   20  O2  UNK     1      28.058 -10.301  38.049  1.00  0.00    -0.360 OA
HETATM   21  H16 UNK     1      28.248  -9.769  38.839  1.00  0.00     0.217 HD
ENDBRANCH   5  20
BRANCH  11  22
HETATM   22  C17 UNK     1      22.097  -6.405  38.512  1.00  0.00     0.440 C 
HETATM   23  F1  UNK     1      22.997  -5.826  39.328  1.00  0.00    -0.164 F 
HETATM   24  F2  UNK     1      21.680  -5.481  37.625  1.00  0.00    -0.164 F 
HETATM   25  F3  UNK     1      21.037  -6.778  39.256  1.00  0.00    -0.164 F 
ENDBRANCH  11  22
BRANCH  10  26
HETATM   26  C16 UNK     1      20.696  -8.069  36.476  1.00  0.00     0.014 A 
HETATM   27  C18 UNK     1      19.618  -8.656  37.138  1.00  0.00     0.079 A 
HETATM   28  C20 UNK     1      18.313  -8.379  36.729  1.00  0.00     0.037 A 
HETATM   29  C22 UNK     1      18.087  -7.515  35.658  1.00  0.00     0.003 A 
HETATM   30  C21 UNK     1      19.166  -6.928  34.995  1.00  0.00     0.001 A 
HETATM   31  C19 UNK     1      20.470  -7.205  35.405  1.00  0.00     0.015 A 
BRANCH  27  32
HETATM   32  O4  UNK     1      19.811  -9.505  38.188  1.00  0.00    -0.355 OA
HETATM   33  C23 UNK     1      19.631 -10.897  37.934  1.00  0.00     0.210 C 
ENDBRANCH  27  32
ENDBRANCH  10  26
TORSDOF 6
ENDMDL
MODEL 3
REMARK VINA RESULT:      -8.1     32.159     35.565
REMARK  6 active torsions:
REMARK  status: ('A' for Active; 'I' for Inactive)
REMARK    1  A    between atoms: C9_18  and  O2_5 
REMARK    2  A    between atoms: C18_27  and  O4_7 
REMARK    3  A    between atoms: C5_14  and  N1_8 
REMARK    4  A    between atoms: C5_14  and  C6_15 
REMARK    5  A    between atoms: C14_23  and  C16_25 
REMARK    6  A    between atoms: C15_24  and  C17_26 
ROOT
HETATM    1  O1  UNK     1      31.463  -8.855  34.147  1.00  0.00    -0.303 OA
HETATM    2  O3  UNK     1      33.032  -8.541  30.403  1.00  0.00    -0.286 OA
HETATM    3  C6  UNK     1      33.460  -8.052  35.111  1.00  0.00     0.038 A 
HETATM    4  C8  UNK     1      32.740  -8.398  33.972  1.00  0.00     0.101 A 
HETATM    5  C9  UNK     1      34.762  -7.578  35.009  1.00  0.00     0.076 A 
HETATM    6  C10 UNK     1      33.332  -8.267  32.720  1.00  0.00     0.050 A 
HETATM    7  C11 UNK     1      35.354  -7.449  33.753  1.00  0.00     0.038 A 
HETATM    8  C12 UNK     1      34.641  -7.793  32.604  1.00  0.00     0.021 A 
HETATM    9  C13 UNK     1      32.557  -8.638  31.528  1.00  0.00     0.198 A 
HETATM   10  C14 UNK     1      31.172  -9.133  31.766  1.00  0.00     0.067 A 
HETATM   11  C15 UNK     1      30.714  -9.213  33.032  1.00  0.00     0.174 A 
ENDROOT
BRANCH   3  12
HETATM   12  C5  UNK     1      32.829  -8.191  36.472  1.00  0.00     0.317 C 
BRANCH  12  13
HETATM   13  N1  UNK     1      32.045  -7.011  36.831  1.00  0.00     0.096 N 
HETATM   14  C1  UNK     1      32.665  -6.295  37.953  1.00  0.00     0.303 C 
HETATM   15  C3  UNK     1      31.842  -5.057  38.330  1.00  0.00     0.302 C 
HETATM   16  N2  UNK     1      30.461  -5.430  38.662  1.00  0.00     0.087 N 
HETATM   17  C4  UNK     1      29.841  -6.148  37.541  1.00  0.00     0.302 C 
HETATM   18  C7  UNK     1      29.678  -4.249  39.019  1.00  0.00     0.310 C 
HETATM   19  C2  UNK     1      30.665  -7.383  37.162  1.00  0.00     0.303 C 
ENDBRANCH  12  13
ENDBRANCH   3  12
BRANCH   5  20
HETATM   20  O2  UNK     1      35.478  -7.236  36.117  1.00  0.00    -0.360 OA
HETATM   21  H16 UNK     1      34.918  -6.770  36.760  1.00  0.00     0.217 HD
ENDBRANCH   5  20
BRANCH  11  22
HETATM   22  C17 UNK     1      29.344  -9.693  33.422  1.00  0.00     0.440 C 
HETATM   23  F1  UNK     1      29.217  -9.735  34.762  1.00  0.00    -0.164 F 
HETATM   24  F2  UNK     1      28.392  -8.873  32.937  1.00  0.00    -0.164 F 
HETATM   25  F3  UNK     1      29.113 -10.930  32.942  1.00  0.00    -0.164 F 
ENDBRANCH  11  22
BRANCH  10  26
HETATM   26  C16 UNK     1      30.352  -9.518  30.624  1.00  0.00     0.014 A 
HETATM   27  C18 UNK     1      29.510  -8.598  30.001  1.00  0.00     0.079 A 
HETATM   28  C20 UNK     1      28.734  -8.990  28.910  1.00  0.00     0.037 A 
HETATM   29  C22 UNK     1      28.801 -10.302  28.442  1.00  0.00     0.003 A 
HETATM   30  C21 UNK     1      29.644 -11.222  29.065  1.00  0.00     0.001 A 
HETATM   31  C19 UNK     1      30.420 -10.830  30.157  1.00  0.00     0.015 A 
BRANCH  27  32
HETATM   32  O4  UNK     1      29.424  -7.309  30.439  1.00  0.00    -0.355 OA
HETATM   33  C23 UNK     1      28.195  -6.626  30.202  1.00  0.00     0.210 C 
ENDBRANCH  27  32
ENDBRANCH  10  26
TORSDOF 6
ENDMDL
MODEL 4
REMARK VINA RESULT:      -8.1      3.302      7.954
REMARK  6 active torsions:
REMARK  status: ('A' for Active; 'I' for Inactive)
REMARK    1  A    between atoms: C9_18  and  O2_5 
REMARK    2  A    between atoms: C18_27  and  O4_7 
REMARK    3  A    between atoms: C5_14  and  N1_8 
REMARK    4  A    between atoms: C5_14  and  C6_15 
REMARK    5  A    between atoms: C14_23  and  C16_25 
REMARK    6  A    between atoms: C15_24  and  C17_26 
ROOT
HETATM    1  O1  UNK     1      13.445   8.298   9.715  1.00  0.00    -0.303 OA
HETATM    2  O3  UNK     1      12.594   4.456   8.670  1.00  0.00    -0.286 OA
HETATM    3  C6  UNK     1      15.725   7.771  10.010  1.00  0.00     0.038 A 
HETATM    4  C8  UNK     1      14.438   7.358   9.680  1.00  0.00     0.101 A 
HETATM    5  C9  UNK     1      16.783   6.870   9.995  1.00  0.00     0.076 A 
HETATM    6  C10 UNK     1      14.212   6.030   9.331  1.00  0.00     0.050 A 
HETATM    7  C11 UNK     1      16.554   5.540   9.645  1.00  0.00     0.038 A 
HETATM    8  C12 UNK     1      15.267   5.116   9.312  1.00  0.00     0.021 A 
HETATM    9  C13 UNK     1      12.846   5.613   8.985  1.00  0.00     0.198 A 
HETATM   10  C14 UNK     1      11.796   6.669   9.039  1.00  0.00     0.067 A 
HETATM   11  C15 UNK     1      12.146   7.923   9.393  1.00  0.00     0.174 A 
ENDROOT
BRANCH   3  12
HETATM   12  C5  UNK     1      15.982   9.205  10.392  1.00  0.00     0.317 C 
BRANCH  12  13
HETATM   13  N1  UNK     1      16.435   9.999   9.251  1.00  0.00     0.096 N 
HETATM   14  C1  UNK     1      17.677  10.712   9.573  1.00  0.00     0.303 C 
HETATM   15  C3  UNK     1      18.152  11.545   8.377  1.00  0.00     0.302 C 
HETATM   16  N2  UNK     1      17.113  12.493   7.955  1.00  0.00     0.087 N 
HETATM   17  C4  UNK     1      15.869  11.780   7.634  1.00  0.00     0.302 C 
HETATM   18  C7  UNK     1      17.566  13.284   6.813  1.00  0.00     0.310 C 
HETATM   19  C2  UNK     1      15.396  10.945   8.829  1.00  0.00     0.303 C 
ENDBRANCH  12  13
ENDBRANCH   3  12
BRANCH   5  20
HETATM   20  O2  UNK     1      18.049   7.262  10.317  1.00  0.00    -0.360 OA
HETATM   21  H16 UNK     1      18.583   6.503  10.601  1.00  0.00     0.217 HD
ENDBRANCH   5  20
BRANCH  11  22
HETATM   22  C17 UNK     1      11.198   9.085   9.492  1.00  0.00     0.440 C 
HETATM   23  F1  UNK     1      11.817  10.162  10.011  1.00  0.00    -0.164 F 
HETATM   24  F2  UNK     1      10.723   9.420   8.277  1.00  0.00    -0.164 F 
HETATM   25  F3  UNK     1      10.150   8.785  10.282  1.00  0.00    -0.164 F 
ENDBRANCH  11  22
BRANCH  10  26
HETATM   26  C16 UNK     1      10.421   6.318   8.709  1.00  0.00     0.014 A 
HETATM   27  C18 UNK     1       9.920   6.506   7.420  1.00  0.00     0.079 A 
HETATM   28  C20 UNK     1       8.601   6.162   7.128  1.00  0.00     0.037 A 
HETATM   29  C22 UNK     1       7.782   5.630   8.123  1.00  0.00     0.003 A 
HETATM   30  C21 UNK     1       8.283   5.441   9.412  1.00  0.00     0.001 A 
HETATM   31  C19 UNK     1       9.603   5.785   9.704  1.00  0.00     0.015 A 
BRANCH  27  32
HETATM   32  O4  UNK     1      10.700   7.026   6.429  1.00  0.00    -0.355 OA
HETATM   33  C23 UNK     1      11.450   6.101   5.645  1.00  0.00     0.210 C 
ENDBRANCH  27  32
ENDBRANCH  10  26
TORSDOF 6
ENDMDL
MODEL 5
REMARK VINA RESULT:      -8.1     31.822     35.191
REMARK  6 active torsions:
REMARK  status: ('A' for Active; 'I' for Inactive)
REMARK    1  A    between atoms: C9_18  and  O2_5 
REMARK    2  A    between atoms: C18_27  and  O4_7 
REMARK    3  A    between atoms: C5_14  and  N1_8 
REMARK    4  A    between atoms: C5_14  and  C6_15 
REMARK    5  A    between atoms: C14_23  and  C16_25 
REMARK    6  A    between atoms: C15_24  and  C17_26 
ROOT
HETATM    1  O1  UNK     1      31.301  -7.535  34.755  1.00  0.00    -0.303 OA
HETATM    2  O3  UNK     1      31.917  -7.417  30.732  1.00  0.00    -0.286 OA
HETATM    3  C6  UNK     1      33.623  -7.505  35.167  1.00  0.00     0.038 A 
HETATM    4  C8  UNK     1      32.574  -7.500  34.254  1.00  0.00     0.101 A 
HETATM    5  C9  UNK     1      34.941  -7.469  34.730  1.00  0.00     0.076 A 
HETATM    6  C10 UNK     1      32.849  -7.458  32.891  1.00  0.00     0.050 A 
HETATM    7  C11 UNK     1      35.216  -7.428  33.363  1.00  0.00     0.038 A 
HETATM    8  C12 UNK     1      34.171  -7.423  32.440  1.00  0.00     0.021 A 
HETATM    9  C13 UNK     1      31.728  -7.453  31.942  1.00  0.00     0.198 A 
HETATM   10  C14 UNK     1      30.360  -7.495  32.531  1.00  0.00     0.067 A 
HETATM   11  C15 UNK     1      30.226  -7.533  33.873  1.00  0.00     0.174 A 
ENDROOT
BRANCH   3  12
HETATM   12  C5  UNK     1      33.336  -7.551  36.645  1.00  0.00     0.317 C 
BRANCH  12  13
HETATM   13  N1  UNK     1      32.203  -6.701  37.006  1.00  0.00     0.096 N 
HETATM   14  C1  UNK     1      32.633  -5.309  37.185  1.00  0.00     0.303 C 
HETATM   15  C3  UNK     1      31.446  -4.416  37.564  1.00  0.00     0.302 C 
HETATM   16  N2  UNK     1      30.790  -4.909  38.782  1.00  0.00     0.087 N 
HETATM   17  C4  UNK     1      30.361  -6.303  38.605  1.00  0.00     0.302 C 
HETATM   18  C7  UNK     1      29.657  -4.059  39.140  1.00  0.00     0.310 C 
HETATM   19  C2  UNK     1      31.548  -7.194  38.223  1.00  0.00     0.303 C 
ENDBRANCH  12  13
ENDBRANCH   3  12
BRANCH   5  20
HETATM   20  O2  UNK     1      35.979  -7.473  35.614  1.00  0.00    -0.360 OA
HETATM   21  H16 UNK     1      35.705  -7.104  36.470  1.00  0.00     0.217 HD
ENDBRANCH   5  20
BRANCH  11  22
HETATM   22  C17 UNK     1      28.915  -7.579  34.606  1.00  0.00     0.440 C 
HETATM   23  F1  UNK     1      28.189  -6.473  34.355  1.00  0.00    -0.164 F 
HETATM   24  F2  UNK     1      28.191  -8.650  34.226  1.00  0.00    -0.164 F 
HETATM   25  F3  UNK     1      29.110  -7.657  35.937  1.00  0.00    -0.164 F 
ENDBRANCH  11  22
BRANCH  10  26
HETATM   26  C16 UNK     1      29.205  -7.495  31.642  1.00  0.00     0.014 A 
HETATM   27  C18 UNK     1      28.622  -6.299  31.222  1.00  0.00     0.079 A 
HETATM   28  C20 UNK     1      27.517  -6.324  30.370  1.00  0.00     0.037 A 
HETATM   29  C22 UNK     1      26.997  -7.544  29.939  1.00  0.00     0.003 A 
HETATM   30  C21 UNK     1      27.581  -8.739  30.359  1.00  0.00     0.001 A 
HETATM   31  C19 UNK     1      28.686  -8.715  31.210  1.00  0.00     0.015 A 
BRANCH  27  32
HETATM   32  O4  UNK     1      29.111  -5.094  31.630  1.00  0.00    -0.355 OA
HETATM   33  C23 UNK     1      29.876  -4.352  30.682  1.00  0.00     0.210 C 
ENDBRANCH  27  32
ENDBRANCH  10  26
TORSDOF 6
ENDMDL
MODEL 6
REMARK VINA RESULT:      -8.1     32.095     35.064
REMARK  6 active torsions:
REMARK  status: ('A' for Active; 'I' for Inactive)
REMARK    1  A    between atoms: C9_18  and  O2_5 
REMARK    2  A    between atoms: C18_27  and  O4_7 
REMARK    3  A    between atoms: C5_14  and  N1_8 
REMARK    4  A    between atoms: C5_14  and  C6_15 
REMARK    5  A    between atoms: C14_23  and  C16_25 
REMARK    6  A    between atoms: C15_24  and  C17_26 
ROOT
HETATM    1  O1  UNK     1      30.028  -5.942  34.984  1.00  0.00    -0.303 OA
HETATM    2  O3  UNK     1      33.364  -7.116  32.967  1.00  0.00    -0.286 OA
HETATM    3  C6  UNK     1      31.293  -5.477  36.919  1.00  0.00     0.038 A 
HETATM    4  C8  UNK     1      31.249  -5.916  35.599  1.00  0.00     0.101 A 
HETATM    5  C9  UNK     1      32.500  -5.423  37.606  1.00  0.00     0.076 A 
HETATM    6  C10 UNK     1      32.425  -6.304  34.965  1.00  0.00     0.050 A 
HETATM    7  C11 UNK     1      33.677  -5.813  36.969  1.00  0.00     0.038 A 
HETATM    8  C12 UNK     1      33.643  -6.254  35.646  1.00  0.00     0.021 A 
HETATM    9  C13 UNK     1      32.358  -6.764  33.571  1.00  0.00     0.198 A 
HETATM   10  C14 UNK     1      31.008  -6.778  32.941  1.00  0.00     0.067 A 
HETATM   11  C15 UNK     1      29.943  -6.377  33.666  1.00  0.00     0.174 A 
ENDROOT
BRANCH   3  12
HETATM   12  C5  UNK     1      30.026  -5.057  37.617  1.00  0.00     0.317 C 
BRANCH  12  13
HETATM   13  N1  UNK     1      29.088  -6.169  37.756  1.00  0.00     0.096 N 
HETATM   14  C1  UNK     1      27.857  -5.731  38.425  1.00  0.00     0.303 C 
HETATM   15  C3  UNK     1      26.873  -6.897  38.573  1.00  0.00     0.302 C 
HETATM   16  N2  UNK     1      27.487  -8.009  39.309  1.00  0.00     0.087 N 
HETATM   17  C4  UNK     1      28.720  -8.447  38.642  1.00  0.00     0.302 C 
HETATM   18  C7  UNK     1      26.549  -9.121  39.447  1.00  0.00     0.310 C 
HETATM   19  C2  UNK     1      29.702  -7.280  38.492  1.00  0.00     0.303 C 
ENDBRANCH  12  13
ENDBRANCH   3  12
BRANCH   5  20
HETATM   20  O2  UNK     1      32.557  -4.995  38.899  1.00  0.00    -0.360 OA
HETATM   21  H16 UNK     1      33.477  -4.848  39.174  1.00  0.00     0.217 HD
ENDBRANCH   5  20
BRANCH  11  22
HETATM   22  C17 UNK     1      28.526  -6.339  33.166  1.00  0.00     0.440 C 
HETATM   23  F1  UNK     1      27.662  -6.208  34.189  1.00  0.00    -0.164 F 
HETATM   24  F2  UNK     1      28.342  -5.301  32.327  1.00  0.00    -0.164 F 
HETATM   25  F3  UNK     1      28.220  -7.471  32.503  1.00  0.00    -0.164 F 
ENDBRANCH  11  22
BRANCH  10  26
HETATM   26  C16 UNK     1      30.875  -7.227  31.561  1.00  0.00     0.014 A 
HETATM   27  C18 UNK     1      30.770  -8.583  31.253  1.00  0.00     0.079 A 
HETATM   28  C20 UNK     1      30.643  -8.989  29.924  1.00  0.00     0.037 A 
HETATM   29  C22 UNK     1      30.620  -8.038  28.905  1.00  0.00     0.003 A 
HETATM   30  C21 UNK     1      30.724  -6.681  29.213  1.00  0.00     0.001 A 
HETATM   31  C19 UNK     1      30.851  -6.275  30.542  1.00  0.00     0.015 A 
BRANCH  27  32
HETATM   32  O4  UNK     1      30.791  -9.533  32.231  1.00  0.00    -0.355 OA
HETATM   33  C23 UNK     1      29.652 -10.384  32.331  1.00  0.00     0.210 C 
ENDBRANCH  27  32
ENDBRANCH  10  26
TORSDOF 6
ENDMDL
MODEL 7
REMARK VINA RESULT:      -8.1     32.372     35.750
REMARK  6 active torsions:
REMARK  status: ('A' for Active; 'I' for Inactive)
REMARK    1  A    between atoms: C9_18  and  O2_5 
REMARK    2  A    between atoms: C18_27  and  O4_7 
REMARK    3  A    between atoms: C5_14  and  N1_8 
REMARK    4  A    between atoms: C5_14  and  C6_15 
REMARK    5  A    between atoms: C14_23  and  C16_25 
REMARK    6  A    between atoms: C15_24  and  C17_26 
ROOT
HETATM    1  O1  UNK     1      31.451  -8.888  34.106  1.00  0.00    -0.303 OA
HETATM    2  O3  UNK     1      32.963  -8.578  30.338  1.00  0.00    -0.286 OA
HETATM    3  C6  UNK     1      33.463  -8.084  35.039  1.00  0.00     0.038 A 
HETATM    4  C8  UNK     1      32.726  -8.431  33.911  1.00  0.00     0.101 A 
HETATM    5  C9  UNK     1      34.764  -7.611  34.916  1.00  0.00     0.076 A 
HETATM    6  C10 UNK     1      33.299  -8.302  32.650  1.00  0.00     0.050 A 
HETATM    7  C11 UNK     1      35.337  -7.483  33.651  1.00  0.00     0.038 A 
HETATM    8  C12 UNK     1      34.606  -7.829  32.514  1.00  0.00     0.021 A 
HETATM    9  C13 UNK     1      32.505  -8.673  31.470  1.00  0.00     0.198 A 
HETATM   10  C14 UNK     1      31.124  -9.168  31.730  1.00  0.00     0.067 A 
HETATM   11  C15 UNK     1      30.685  -9.246  33.003  1.00  0.00     0.174 A 
ENDROOT
BRANCH   3  12
HETATM   12  C5  UNK     1      32.853  -8.221  36.409  1.00  0.00     0.317 C 
BRANCH  12  13
HETATM   13  N1  UNK     1      32.083  -7.037  36.783  1.00  0.00     0.096 N 
HETATM   14  C1  UNK     1      32.712  -6.340  37.912  1.00  0.00     0.303 C 
HETATM   15  C3  UNK     1      31.904  -5.098  38.304  1.00  0.00     0.302 C 
HETATM   16  N2  UNK     1      30.520  -5.458  38.634  1.00  0.00     0.087 N 
HETATM   17  C4  UNK     1      29.890  -6.157  37.506  1.00  0.00     0.302 C 
HETATM   18  C7  UNK     1      29.750  -4.273  39.005  1.00  0.00     0.310 C 
HETATM   19  C2  UNK     1      30.699  -7.397  37.112  1.00  0.00     0.303 C 
ENDBRANCH  12  13
ENDBRANCH   3  12
BRANCH   5  20
HETATM   20  O2  UNK     1      35.496  -7.268  36.013  1.00  0.00    -0.360 OA
HETATM   21  H16 UNK     1      35.308  -6.354  36.281  1.00  0.00     0.217 HD
ENDBRANCH   5  20
BRANCH  11  22
HETATM   22  C17 UNK     1      29.321  -9.725  33.415  1.00  0.00     0.440 C 
HETATM   23  F1  UNK     1      29.209  -9.751  34.757  1.00  0.00    -0.164 F 
HETATM   24  F2  UNK     1      28.361  -8.914  32.931  1.00  0.00    -0.164 F 
HETATM   25  F3  UNK     1      29.088 -10.969  32.953  1.00  0.00    -0.164 F 
ENDBRANCH  11  22
BRANCH  10  26
HETATM   26  C16 UNK     1      30.286  -9.554  30.602  1.00  0.00     0.014 A 
HETATM   27  C18 UNK     1      30.337 -10.846  30.077  1.00  0.00     0.079 A 
HETATM   28  C20 UNK     1      29.526 -11.193  28.997  1.00  0.00     0.037 A 
HETATM   29  C22 UNK     1      28.662 -10.248  28.442  1.00  0.00     0.003 A 
HETATM   30  C21 UNK     1      28.611  -8.957  28.967  1.00  0.00     0.001 A 
HETATM   31  C19 UNK     1      29.422  -8.610  30.048  1.00  0.00     0.015 A 
BRANCH  27  32
HETATM   32  O4  UNK     1      31.174 -11.787  30.601  1.00  0.00    -0.355 OA
HETATM   33  C23 UNK     1      30.617 -13.075  30.858  1.00  0.00     0.210 C 
ENDBRANCH  27  32
ENDBRANCH  10  26
TORSDOF 6
ENDMDL
MODEL 8
REMARK VINA RESULT:      -8.0     32.468     35.777
REMARK  6 active torsions:
REMARK  status: ('A' for Active; 'I' for Inactive)
REMARK    1  A    between atoms: C9_18  and  O2_5 
REMARK    2  A    between atoms: C18_27  and  O4_7 
REMARK    3  A    between atoms: C5_14  and  N1_8 
REMARK    4  A    between atoms: C5_14  and  C6_15 
REMARK    5  A    between atoms: C14_23  and  C16_25 
REMARK    6  A    between atoms: C15_24  and  C17_26 
ROOT
HETATM    1  O1  UNK     1      30.489  -7.330  35.183  1.00  0.00    -0.303 OA
HETATM    2  O3  UNK     1      30.065  -6.132  39.051  1.00  0.00    -0.286 OA
HETATM    3  C6  UNK     1      32.103  -5.657  34.783  1.00  0.00     0.038 A 
HETATM    4  C8  UNK     1      31.223  -6.280  35.663  1.00  0.00     0.101 A 
HETATM    5  C9  UNK     1      32.881  -4.585  35.202  1.00  0.00     0.076 A 
HETATM    6  C10 UNK     1      31.124  -5.823  36.973  1.00  0.00     0.050 A 
HETATM    7  C11 UNK     1      32.780  -4.128  36.516  1.00  0.00     0.038 A 
HETATM    8  C12 UNK     1      31.900  -4.746  37.406  1.00  0.00     0.021 A 
HETATM    9  C13 UNK     1      30.189  -6.495  37.888  1.00  0.00     0.198 A 
HETATM   10  C14 UNK     1      29.410  -7.631  37.322  1.00  0.00     0.067 A 
HETATM   11  C15 UNK     1      29.598  -7.977  36.032  1.00  0.00     0.174 A 
ENDROOT
BRANCH   3  12
HETATM   12  C5  UNK     1      32.217  -6.141  33.362  1.00  0.00     0.317 C 
BRANCH  12  13
HETATM   13  N1  UNK     1      30.906  -6.376  32.761  1.00  0.00     0.096 N 
HETATM   14  C1  UNK     1      31.019  -7.258  31.592  1.00  0.00     0.303 C 
HETATM   15  C3  UNK     1      29.644  -7.504  30.960  1.00  0.00     0.302 C 
HETATM   16  N2  UNK     1      29.008  -6.236  30.584  1.00  0.00     0.087 N 
HETATM   17  C4  UNK     1      28.896  -5.352  31.752  1.00  0.00     0.302 C 
HETATM   18  C7  UNK     1      27.696  -6.472  29.984  1.00  0.00     0.310 C 
HETATM   19  C2  UNK     1      30.270  -5.108  32.385  1.00  0.00     0.303 C 
ENDBRANCH  12  13
ENDBRANCH   3  12
BRANCH   5  20
HETATM   20  O2  UNK     1      33.747  -3.965  34.351  1.00  0.00    -0.360 OA
HETATM   21  H16 UNK     1      33.565  -4.217  33.431  1.00  0.00     0.217 HD
ENDBRANCH   5  20
BRANCH  11  22
HETATM   22  C17 UNK     1      28.884  -9.097  35.328  1.00  0.00     0.440 C 
HETATM   23  F1  UNK     1      29.390 -10.289  35.693  1.00  0.00    -0.164 F 
HETATM   24  F2  UNK     1      27.571  -9.089  35.626  1.00  0.00    -0.164 F 
HETATM   25  F3  UNK     1      29.009  -8.982  33.991  1.00  0.00    -0.164 F 
ENDBRANCH  11  22
BRANCH  10  26
HETATM   26  C16 UNK     1      28.464  -8.337  38.178  1.00  0.00     0.014 A 
HETATM   27  C18 UNK     1      27.170  -7.853  38.371  1.00  0.00     0.079 A 
HETATM   28  C20 UNK     1      26.282  -8.546  39.194  1.00  0.00     0.037 A 
HETATM   29  C22 UNK     1      26.689  -9.722  39.823  1.00  0.00     0.003 A 
HETATM   30  C21 UNK     1      27.983 -10.206  39.630  1.00  0.00     0.001 A 
HETATM   31  C19 UNK     1      28.871  -9.513  38.806  1.00  0.00     0.015 A 
BRANCH  27  32
HETATM   32  O4  UNK     1      26.748  -6.705  37.768  1.00  0.00    -0.355 OA
HETATM   33  C23 UNK     1      26.592  -5.558  38.601  1.00  0.00     0.210 C 
ENDBRANCH  27  32
ENDBRANCH  10  26
TORSDOF 6
ENDMDL
MODEL 9
REMARK VINA RESULT:      -7.9     31.722     34.953
REMARK  6 active torsions:
REMARK  status: ('A' for Active; 'I' for Inactive)
REMARK    1  A    between atoms: C9_18  and  O2_5 
REMARK    2  A    between atoms: C18_27  and  O4_7 
REMARK    3  A    between atoms: C5_14  and  N1_8 
REMARK    4  A    between atoms: C5_14  and  C6_15 
REMARK    5  A    between atoms: C14_23  and  C16_25 
REMARK    6  A    between atoms: C15_24  and  C17_26 
ROOT
HETATM    1  O1  UNK     1      30.638  -8.389  34.483  1.00  0.00    -0.303 OA
HETATM    2  O3  UNK     1      30.763  -6.142  31.091  1.00  0.00    -0.286 OA
HETATM    3  C6  UNK     1      31.550  -6.623  35.754  1.00  0.00     0.038 A 
HETATM    4  C8  UNK     1      31.118  -7.108  34.523  1.00  0.00     0.101 A 
HETATM    5  C9  UNK     1      32.048  -5.331  35.869  1.00  0.00     0.076 A 
HETATM    6  C10 UNK     1      31.186  -6.291  33.400  1.00  0.00     0.050 A 
HETATM    7  C11 UNK     1      32.116  -4.513  34.741  1.00  0.00     0.038 A 
HETATM    8  C12 UNK     1      31.685  -4.990  33.503  1.00  0.00     0.021 A 
HETATM    9  C13 UNK     1      30.725  -6.821  32.109  1.00  0.00     0.198 A 
HETATM   10  C14 UNK     1      30.213  -8.220  32.112  1.00  0.00     0.067 A 
HETATM   11  C15 UNK     1      30.199  -8.910  33.272  1.00  0.00     0.174 A 
ENDROOT
BRANCH   3  12
HETATM   12  C5  UNK     1      31.482  -7.500  36.976  1.00  0.00     0.317 C 
BRANCH  12  13
HETATM   13  N1  UNK     1      30.103  -7.816  37.343  1.00  0.00     0.096 N 
HETATM   14  C1  UNK     1      29.623  -6.908  38.393  1.00  0.00     0.303 C 
HETATM   15  C3  UNK     1      28.177  -7.239  38.779  1.00  0.00     0.302 C 
HETATM   16  N2  UNK     1      28.060  -8.635  39.218  1.00  0.00     0.087 N 
HETATM   17  C4  UNK     1      28.542  -9.543  38.170  1.00  0.00     0.302 C 
HETATM   18  C7  UNK     1      26.680  -8.949  39.583  1.00  0.00     0.310 C 
HETATM   19  C2  UNK     1      29.987  -9.211  37.782  1.00  0.00     0.303 C 
ENDBRANCH  12  13
ENDBRANCH   3  12
BRANCH   5  20
HETATM   20  O2  UNK     1      32.474  -4.843  37.068  1.00  0.00    -0.360 OA
HETATM   21  H16 UNK     1      32.067  -3.981  37.254  1.00  0.00     0.217 HD
ENDBRANCH   5  20
BRANCH  11  22
HETATM   22  C17 UNK     1      29.714 -10.324  33.426  1.00  0.00     0.440 C 
HETATM   23  F1  UNK     1      28.412 -10.421  33.097  1.00  0.00    -0.164 F 
HETATM   24  F2  UNK     1      30.411 -11.159  32.630  1.00  0.00    -0.164 F 
HETATM   25  F3  UNK     1      29.855 -10.745  34.698  1.00  0.00    -0.164 F 
ENDBRANCH  11  22
BRANCH  10  26
HETATM   26  C16 UNK     1      29.743  -8.805  30.863  1.00  0.00     0.014 A 
HETATM   27  C18 UNK     1      28.414  -8.669  30.461  1.00  0.00     0.079 A 
HETATM   28  C20 UNK     1      27.987  -9.238  29.261  1.00  0.00     0.037 A 
HETATM   29  C22 UNK     1      28.889  -9.941  28.463  1.00  0.00     0.003 A 
HETATM   30  C21 UNK     1      30.218 -10.077  28.865  1.00  0.00     0.001 A 
HETATM   31  C19 UNK     1      30.645  -9.508  30.065  1.00  0.00     0.015 A 
BRANCH  27  32
HETATM   32  O4  UNK     1      27.512  -7.988  31.223  1.00  0.00    -0.355 OA
HETATM   33  C23 UNK     1      26.739  -6.984  30.568  1.00  0.00     0.210 C 
ENDBRANCH  27  32
ENDBRANCH  10  26
TORSDOF 6
ENDMDL
MODEL 10
REMARK VINA RESULT:      -7.9     35.357     37.173
REMARK  6 active torsions:
REMARK  status: ('A' for Active; 'I' for Inactive)
REMARK    1  A    between atoms: C9_18  and  O2_5 
REMARK    2  A    between atoms: C18_27  and  O4_7 
REMARK    3  A    between atoms: C5_14  and  N1_8 
REMARK    4  A    between atoms: C5_14  and  C6_15 
REMARK    5  A    between atoms: C14_23  and  C16_25 
REMARK    6  A    between atoms: C15_24  and  C17_26 
ROOT
HETATM    1  O1  UNK     1      30.994  -7.414  35.368  1.00  0.00    -0.303 OA
HETATM    2  O3  UNK     1      29.937  -5.877  38.987  1.00  0.00    -0.286 OA
HETATM    3  C6  UNK     1      32.457  -5.607  34.966  1.00  0.00     0.038 A 
HETATM    4  C8  UNK     1      31.541  -6.237  35.803  1.00  0.00     0.101 A 
HETATM    5  C9  UNK     1      33.053  -4.410  35.343  1.00  0.00     0.076 A 
HETATM    6  C10 UNK     1      31.221  -5.662  37.028  1.00  0.00     0.050 A 
HETATM    7  C11 UNK     1      32.731  -3.834  36.572  1.00  0.00     0.038 A 
HETATM    8  C12 UNK     1      31.814  -4.458  37.418  1.00  0.00     0.021 A 
HETATM    9  C13 UNK     1      30.252  -6.342  37.898  1.00  0.00     0.198 A 
HETATM   10  C14 UNK     1      29.681  -7.618  37.384  1.00  0.00     0.067 A 
HETATM   11  C15 UNK     1      30.074  -8.072  36.175  1.00  0.00     0.174 A 
ENDROOT
BRANCH   3  12
HETATM   12  C5  UNK     1      32.809  -6.220  33.636  1.00  0.00     0.317 C 
BRANCH  12  13
HETATM   13  N1  UNK     1      34.005  -7.056  33.722  1.00  0.00     0.096 N 
HETATM   14  C1  UNK     1      35.091  -6.496  32.909  1.00  0.00     0.303 C 
HETATM   15  C3  UNK     1      36.346  -7.372  32.998  1.00  0.00     0.302 C 
HETATM   16  N2  UNK     1      36.052  -8.749  32.580  1.00  0.00     0.087 N 
HETATM   17  C4  UNK     1      34.964  -9.309  33.392  1.00  0.00     0.302 C 
HETATM   18  C7  UNK     1      37.248  -9.583  32.668  1.00  0.00     0.310 C 
HETATM   19  C2  UNK     1      33.711  -8.432  33.304  1.00  0.00     0.303 C 
ENDBRANCH  12  13
ENDBRANCH   3  12
BRANCH   5  20
HETATM   20  O2  UNK     1      33.951  -3.783  34.533  1.00  0.00    -0.360 OA
HETATM   21  H16 UNK     1      33.684  -3.851  33.602  1.00  0.00     0.217 HD
ENDBRANCH   5  20
BRANCH  11  22
HETATM   22  C17 UNK     1      29.584  -9.338  35.530  1.00  0.00     0.440 C 
HETATM   23  F1  UNK     1      29.813  -9.317  34.204  1.00  0.00    -0.164 F 
HETATM   24  F2  UNK     1      30.210 -10.412  36.046  1.00  0.00    -0.164 F 
HETATM   25  F3  UNK     1      28.259  -9.494  35.722  1.00  0.00    -0.164 F 
ENDBRANCH  11  22
BRANCH  10  26
HETATM   26  C16 UNK     1      28.712  -8.340  38.199  1.00  0.00     0.014 A 
HETATM   27  C18 UNK     1      27.396  -7.895  38.315  1.00  0.00     0.079 A 
HETATM   28  C20 UNK     1      26.487  -8.602  39.101  1.00  0.00     0.037 A 
HETATM   29  C22 UNK     1      26.894  -9.756  39.770  1.00  0.00     0.003 A 
HETATM   30  C21 UNK     1      28.211 -10.203  39.653  1.00  0.00     0.001 A 
HETATM   31  C19 UNK     1      29.120  -9.495  38.867  1.00  0.00     0.015 A 
BRANCH  27  32
HETATM   32  O4  UNK     1      26.973  -6.769  37.672  1.00  0.00    -0.355 OA
HETATM   33  C23 UNK     1      26.583  -5.667  38.489  1.00  0.00     0.210 C 
ENDBRANCH  27  32
ENDBRANCH  10  26
TORSDOF 6
ENDMDL
