MODEL 1
REMARK VINA RESULT:      -8.6      0.000      0.000
REMARK  3 active torsions:
REMARK  status: ('A' for Active; 'I' for Inactive)
REMARK    1  A    between atoms: C5_10  and  N1_5 
REMARK       I    between atoms: C6_11  and  N1_5 
REMARK    2  A    between atoms: C2_7  and  C6_11 
REMARK    3  A    between atoms: C5_10  and  C7_12 
ROOT
HETATM    1  O1  UNK     1      18.755   0.664  32.248  1.00  0.00    -0.274 OA
HETATM    2  O4  UNK     1      17.875   2.737  32.636  1.00  0.00    -0.259 OA
HETATM    3  C1  UNK     1      19.799   0.185  30.105  1.00  0.00    -0.001 A 
HETATM    4  C2  UNK     1      18.868   2.385  30.514  1.00  0.00     0.108 A 
HETATM    5  C3  UNK     1      19.419  -0.224  31.379  1.00  0.00     0.089 A 
HETATM    6  C4  UNK     1      19.499   1.545  29.685  1.00  0.00     0.037 A 
HETATM    7  C8  UNK     1      20.456  -0.725  29.273  1.00  0.00     0.014 A 
HETATM    8  C9  UNK     1      18.455   1.971  31.874  1.00  0.00     0.304 A 
HETATM    9  C10 UNK     1      19.676  -1.513  31.843  1.00  0.00     0.038 A 
HETATM   10  C11 UNK     1      20.720  -2.021  29.724  1.00  0.00     0.001 A 
HETATM   11  C12 UNK     1      20.331  -2.413  31.007  1.00  0.00     0.003 A 
ENDROOT
BRANCH   4  12
HETATM   12  C6  UNK     1      18.611   3.734  29.999  1.00  0.00     0.258 C 
HETATM   13  O3  UNK     1      18.215   3.906  28.847  1.00  0.00    -0.267 OA
HETATM   14  N1  UNK     1      18.862   4.724  30.932  1.00  0.00    -0.351 N 
HETATM   15  H4  UNK     1      19.203   4.480  31.857  1.00  0.00     0.163 HD
BRANCH  14  16
HETATM   16  C5  UNK     1      18.684   6.131  30.655  1.00  0.00     0.187 C 
BRANCH  16  17
HETATM   17  C7  UNK     1      17.520   6.708  31.408  1.00  0.00     0.070 A 
HETATM   18  C13 UNK     1      16.935   6.363  32.579  1.00  0.00     0.036 A 
HETATM   19  C14 UNK     1      15.880   7.291  32.753  1.00  0.00     0.027 A 
HETATM   20  C15 UNK     1      15.920   8.124  31.659  1.00  0.00     0.142 A 
HETATM   21  O2  UNK     1      16.932   7.767  30.825  1.00  0.00    -0.325 OA
ENDBRANCH  16  17
ENDBRANCH  14  16
ENDBRANCH   4  12
TORSDOF 3
ENDMDL
MODEL 2
REMARK VINA RESULT:      -8.6      1.913      2.826
REMARK  3 active torsions:
REMARK  status: ('A' for Active; 'I' for Inactive)
REMARK    1  A    between atoms: C5_10  and  N1_5 
REMARK       I    between atoms: C6_11  and  N1_5 
REMARK    2  A    between atoms: C2_7  and  C6_11 
REMARK    3  A    between atoms: C5_10  and  C7_12 
ROOT
HETATM    1  O1  UNK     1      19.232   0.119  28.643  1.00  0.00    -0.274 OA
HETATM    2  O4  UNK     1      18.290   2.104  28.014  1.00  0.00    -0.259 OA
HETATM    3  C1  UNK     1      19.814  -0.248  30.974  1.00  0.00    -0.001 A 
HETATM    4  C2  UNK     1      18.815   1.857  30.311  1.00  0.00     0.108 A 
HETATM    5  C3  UNK     1      19.760  -0.699  29.660  1.00  0.00     0.089 A 
HETATM    6  C4  UNK     1      19.316   1.083  31.282  1.00  0.00     0.037 A 
HETATM    7  C8  UNK     1      20.346  -1.090  31.955  1.00  0.00     0.014 A 
HETATM    8  C9  UNK     1      18.747   1.398  28.907  1.00  0.00     0.304 A 
HETATM    9  C10 UNK     1      20.222  -1.964  29.298  1.00  0.00     0.038 A 
HETATM   10  C11 UNK     1      20.813  -2.360  31.608  1.00  0.00     0.001 A 
HETATM   11  C12 UNK     1      20.750  -2.796  30.282  1.00  0.00     0.003 A 
ENDROOT
BRANCH   4  12
HETATM   12  C6  UNK     1      18.337   3.183  30.721  1.00  0.00     0.258 C 
HETATM   13  O3  UNK     1      17.427   3.301  31.540  1.00  0.00    -0.267 OA
HETATM   14  N1  UNK     1      19.010   4.215  30.093  1.00  0.00    -0.351 N 
HETATM   15  H4  UNK     1      19.740   4.013  29.416  1.00  0.00     0.163 HD
BRANCH  14  16
HETATM   16  C5  UNK     1      18.714   5.609  30.332  1.00  0.00     0.187 C 
BRANCH  16  17
HETATM   17  C7  UNK     1      19.441   6.138  31.535  1.00  0.00     0.070 A 
HETATM   18  C13 UNK     1      19.019   6.834  32.617  1.00  0.00     0.036 A 
HETATM   19  C14 UNK     1      20.181   7.038  33.400  1.00  0.00     0.027 A 
HETATM   20  C15 UNK     1      21.214   6.443  32.714  1.00  0.00     0.142 A 
HETATM   21  O2  UNK     1      20.762   5.886  31.561  1.00  0.00    -0.325 OA
ENDBRANCH  16  17
ENDBRANCH  14  16
ENDBRANCH   4  12
TORSDOF 3
ENDMDL
MODEL 3
REMARK VINA RESULT:      -8.3      1.928      7.286
REMARK  3 active torsions:
REMARK  status: ('A' for Active; 'I' for Inactive)
REMARK    1  A    between atoms: C5_10  and  N1_5 
REMARK       I    between atoms: C6_11  and  N1_5 
REMARK    2  A    between atoms: C2_7  and  C6_11 
REMARK    3  A    between atoms: C5_10  and  C7_12 
ROOT
HETATM    1  O1  UNK     1      19.690   6.607  31.761  1.00  0.00    -0.274 OA
HETATM    2  O4  UNK     1      20.210   5.145  30.083  1.00  0.00    -0.259 OA
HETATM    3  C1  UNK     1      17.880   6.077  33.295  1.00  0.00    -0.001 A 
HETATM    4  C2  UNK     1      18.430   4.525  31.518  1.00  0.00     0.108 A 
HETATM    5  C3  UNK     1      18.888   6.936  32.871  1.00  0.00     0.089 A 
HETATM    6  C4  UNK     1      17.665   4.833  32.573  1.00  0.00     0.037 A 
HETATM    7  C8  UNK     1      17.106   6.440  34.401  1.00  0.00     0.014 A 
HETATM    8  C9  UNK     1      19.508   5.423  31.050  1.00  0.00     0.304 A 
HETATM    9  C10 UNK     1      19.145   8.143  33.519  1.00  0.00     0.038 A 
HETATM   10  C11 UNK     1      17.351   7.647  35.061  1.00  0.00     0.001 A 
HETATM   11  C12 UNK     1      18.369   8.497  34.620  1.00  0.00     0.003 A 
ENDROOT
BRANCH   4  12
HETATM   12  C6  UNK     1      18.137   3.248  30.856  1.00  0.00     0.258 C 
HETATM   13  O3  UNK     1      16.988   2.813  30.804  1.00  0.00    -0.267 OA
HETATM   14  N1  UNK     1      19.265   2.642  30.334  1.00  0.00    -0.351 N 
HETATM   15  H4  UNK     1      20.176   3.076  30.442  1.00  0.00     0.163 HD
BRANCH  14  16
HETATM   16  C5  UNK     1      19.227   1.376  29.638  1.00  0.00     0.187 C 
BRANCH  16  17
HETATM   17  C7  UNK     1      19.590   0.230  30.539  1.00  0.00     0.070 A 
HETATM   18  C13 UNK     1      20.613  -0.657  30.513  1.00  0.00     0.036 A 
HETATM   19  C14 UNK     1      20.403  -1.495  31.634  1.00  0.00     0.027 A 
HETATM   20  C15 UNK     1      19.259  -1.037  32.246  1.00  0.00     0.142 A 
HETATM   21  O2  UNK     1      18.753   0.029  31.572  1.00  0.00    -0.325 OA
ENDBRANCH  16  17
ENDBRANCH  14  16
ENDBRANCH   4  12
TORSDOF 3
ENDMDL
MODEL 4
REMARK VINA RESULT:      -8.3     14.835     16.765
REMARK  3 active torsions:
REMARK  status: ('A' for Active; 'I' for Inactive)
REMARK    1  A    between atoms: C5_10  and  N1_5 
REMARK       I    between atoms: C6_11  and  N1_5 
REMARK    2  A    between atoms: C2_7  and  C6_11 
REMARK    3  A    between atoms: C5_10  and  C7_12 
ROOT
HETATM    1  O1  UNK     1      19.398  -2.114  12.817  1.00  0.00    -0.274 OA
HETATM    2  O4  UNK     1      19.325  -0.291  14.194  1.00  0.00    -0.259 OA
HETATM    3  C1  UNK     1      18.610  -4.265  13.631  1.00  0.00    -0.001 A 
HETATM    4  C2  UNK     1      18.530  -2.334  15.093  1.00  0.00     0.108 A 
HETATM    5  C3  UNK     1      19.154  -3.487  12.615  1.00  0.00     0.089 A 
HETATM    6  C4  UNK     1      18.297  -3.639  14.906  1.00  0.00     0.037 A 
HETATM    7  C8  UNK     1      18.384  -5.623  13.392  1.00  0.00     0.014 A 
HETATM    8  C9  UNK     1      19.108  -1.487  14.026  1.00  0.00     0.304 A 
HETATM    9  C10 UNK     1      19.478  -4.025  11.371  1.00  0.00     0.038 A 
HETATM   10  C11 UNK     1      18.703  -6.178  12.150  1.00  0.00     0.001 A 
HETATM   11  C12 UNK     1      19.249  -5.380  11.141  1.00  0.00     0.003 A 
ENDROOT
BRANCH   4  12
HETATM   12  C6  UNK     1      18.181  -1.795  16.412  1.00  0.00     0.258 C 
HETATM   13  O3  UNK     1      17.054  -1.952  16.880  1.00  0.00    -0.267 OA
HETATM   14  N1  UNK     1      19.230  -1.125  17.015  1.00  0.00    -0.351 N 
HETATM   15  H4  UNK     1      20.121  -1.035  16.538  1.00  0.00     0.163 HD
BRANCH  14  16
HETATM   16  C5  UNK     1      19.125  -0.505  18.316  1.00  0.00     0.187 C 
BRANCH  16  17
HETATM   17  C7  UNK     1      19.160   0.993  18.228  1.00  0.00     0.070 A 
HETATM   18  C13 UNK     1      19.211   1.957  19.178  1.00  0.00     0.036 A 
HETATM   19  C14 UNK     1      19.222   3.179  18.463  1.00  0.00     0.027 A 
HETATM   20  C15 UNK     1      19.174   2.843  17.130  1.00  0.00     0.142 A 
HETATM   21  O2  UNK     1      19.136   1.493  16.980  1.00  0.00    -0.325 OA
ENDBRANCH  16  17
ENDBRANCH  14  16
ENDBRANCH   4  12
TORSDOF 3
ENDMDL
MODEL 5
REMARK VINA RESULT:      -8.2      1.837      7.147
REMARK  3 active torsions:
REMARK  status: ('A' for Active; 'I' for Inactive)
REMARK    1  A    between atoms: C5_10  and  N1_5 
REMARK       I    between atoms: C6_11  and  N1_5 
REMARK    2  A    between atoms: C2_7  and  C6_11 
REMARK    3  A    between atoms: C5_10  and  C7_12 
ROOT
HETATM    1  O1  UNK     1      18.090   3.954  33.736  1.00  0.00    -0.274 OA
HETATM    2  O4  UNK     1      18.370   1.736  33.258  1.00  0.00    -0.259 OA
HETATM    3  C1  UNK     1      17.968   5.566  31.921  1.00  0.00    -0.001 A 
HETATM    4  C2  UNK     1      18.264   3.216  31.411  1.00  0.00     0.108 A 
HETATM    5  C3  UNK     1      17.951   5.279  33.282  1.00  0.00     0.089 A 
HETATM    6  C4  UNK     1      18.132   4.475  30.974  1.00  0.00     0.037 A 
HETATM    7  C8  UNK     1      17.827   6.895  31.511  1.00  0.00     0.014 A 
HETATM    8  C9  UNK     1      18.248   2.888  32.853  1.00  0.00     0.304 A 
HETATM    9  C10 UNK     1      17.798   6.279  34.242  1.00  0.00     0.038 A 
HETATM   10  C11 UNK     1      17.672   7.908  32.461  1.00  0.00     0.001 A 
HETATM   11  C12 UNK     1      17.658   7.600  33.824  1.00  0.00     0.003 A 
ENDROOT
BRANCH   4  12
HETATM   12  C6  UNK     1      18.424   2.185  30.379  1.00  0.00     0.258 C 
HETATM   13  O3  UNK     1      17.514   1.934  29.591  1.00  0.00    -0.267 OA
HETATM   14  N1  UNK     1      19.663   1.573  30.418  1.00  0.00    -0.351 N 
HETATM   15  H4  UNK     1      20.345   1.841  31.121  1.00  0.00     0.163 HD
BRANCH  14  16
HETATM   16  C5  UNK     1      20.053   0.524  29.503  1.00  0.00     0.187 C 
BRANCH  16  17
HETATM   17  C7  UNK     1      20.366  -0.758  30.219  1.00  0.00     0.070 A 
HETATM   18  C13 UNK     1      20.278  -2.054  29.839  1.00  0.00     0.036 A 
HETATM   19  C14 UNK     1      20.718  -2.798  30.961  1.00  0.00     0.027 A 
HETATM   20  C15 UNK     1      21.036  -1.876  31.930  1.00  0.00     0.142 A 
HETATM   21  O2  UNK     1      20.820  -0.613  31.476  1.00  0.00    -0.325 OA
ENDBRANCH  16  17
ENDBRANCH  14  16
ENDBRANCH   4  12
TORSDOF 3
ENDMDL
MODEL 6
REMARK VINA RESULT:      -7.9     13.639     16.508
REMARK  3 active torsions:
REMARK  status: ('A' for Active; 'I' for Inactive)
REMARK    1  A    between atoms: C5_10  and  N1_5 
REMARK       I    between atoms: C6_11  and  N1_5 
REMARK    2  A    between atoms: C2_7  and  C6_11 
REMARK    3  A    between atoms: C5_10  and  C7_12 
ROOT
HETATM    1  O1  UNK     1      19.292   1.004  15.457  1.00  0.00    -0.274 OA
HETATM    2  O4  UNK     1      19.432  -0.621  13.855  1.00  0.00    -0.259 OA
HETATM    3  C1  UNK     1      18.999   0.370  17.785  1.00  0.00    -0.001 A 
HETATM    4  C2  UNK     1      19.149  -1.354  16.090  1.00  0.00     0.108 A 
HETATM    5  C3  UNK     1      19.143   1.354  16.812  1.00  0.00     0.089 A 
HETATM    6  C4  UNK     1      19.006  -1.026  17.380  1.00  0.00     0.037 A 
HETATM    7  C8  UNK     1      18.853   0.758  19.120  1.00  0.00     0.014 A 
HETATM    8  C9  UNK     1      19.303  -0.325  15.038  1.00  0.00     0.304 A 
HETATM    9  C10 UNK     1      19.143   2.710  17.134  1.00  0.00     0.038 A 
HETATM   10  C11 UNK     1      18.852   2.114  19.458  1.00  0.00     0.001 A 
HETATM   11  C12 UNK     1      18.997   3.088  18.467  1.00  0.00     0.003 A 
ENDROOT
BRANCH   4  12
HETATM   12  C6  UNK     1      19.144  -2.789  15.781  1.00  0.00     0.258 C 
HETATM   13  O3  UNK     1      20.165  -3.463  15.897  1.00  0.00    -0.267 OA
HETATM   14  N1  UNK     1      17.906  -3.245  15.363  1.00  0.00    -0.351 N 
HETATM   15  H4  UNK     1      17.124  -2.602  15.284  1.00  0.00     0.163 HD
BRANCH  14  16
HETATM   16  C5  UNK     1      17.656  -4.621  15.000  1.00  0.00     0.187 C 
BRANCH  16  17
HETATM   17  C7  UNK     1      16.889  -5.351  16.065  1.00  0.00     0.070 A 
HETATM   18  C13 UNK     1      16.773  -6.668  16.357  1.00  0.00     0.036 A 
HETATM   19  C14 UNK     1      15.907  -6.722  17.476  1.00  0.00     0.027 A 
HETATM   20  C15 UNK     1      15.572  -5.420  17.764  1.00  0.00     0.142 A 
HETATM   21  O2  UNK     1      16.177  -4.569  16.894  1.00  0.00    -0.325 OA
ENDBRANCH  16  17
ENDBRANCH  14  16
ENDBRANCH   4  12
TORSDOF 3
ENDMDL
MODEL 7
REMARK VINA RESULT:      -7.9      4.402      8.252
REMARK  3 active torsions:
REMARK  status: ('A' for Active; 'I' for Inactive)
REMARK    1  A    between atoms: C5_10  and  N1_5 
REMARK       I    between atoms: C6_11  and  N1_5 
REMARK    2  A    between atoms: C2_7  and  C6_11 
REMARK    3  A    between atoms: C5_10  and  C7_12 
ROOT
HETATM    1  O1  UNK     1      18.656   1.012  32.093  1.00  0.00    -0.274 OA
HETATM    2  O4  UNK     1      17.776   1.377  34.171  1.00  0.00    -0.259 OA
HETATM    3  C1  UNK     1      19.603  -1.162  31.557  1.00  0.00    -0.001 A 
HETATM    4  C2  UNK     1      18.670  -0.778  33.760  1.00  0.00     0.108 A 
HETATM    5  C3  UNK     1      19.287   0.140  31.184  1.00  0.00     0.089 A 
HETATM    6  C4  UNK     1      19.271  -1.610  32.900  1.00  0.00     0.037 A 
HETATM    7  C8  UNK     1      20.230  -1.996  30.626  1.00  0.00     0.014 A 
HETATM    8  C9  UNK     1      18.325   0.611  33.385  1.00  0.00     0.304 A 
HETATM    9  C10 UNK     1      19.579   0.632  29.913  1.00  0.00     0.038 A 
HETATM   10  C11 UNK     1      20.528  -1.517  29.348  1.00  0.00     0.001 A 
HETATM   11  C12 UNK     1      20.203  -0.206  28.992  1.00  0.00     0.003 A 
ENDROOT
BRANCH   4  12
HETATM   12  C6  UNK     1      18.376  -1.322  35.090  1.00  0.00     0.258 C 
HETATM   13  O3  UNK     1      17.269  -1.169  35.604  1.00  0.00    -0.267 OA
HETATM   14  N1  UNK     1      19.452  -1.986  35.651  1.00  0.00    -0.351 N 
HETATM   15  H4  UNK     1      20.333  -2.045  35.151  1.00  0.00     0.163 HD
BRANCH  14  16
HETATM   16  C5  UNK     1      19.403  -2.604  36.956  1.00  0.00     0.187 C 
BRANCH  16  17
HETATM   17  C7  UNK     1      19.951  -4.001  36.937  1.00  0.00     0.070 A 
HETATM   18  C13 UNK     1      19.641  -5.088  36.190  1.00  0.00     0.036 A 
HETATM   19  C14 UNK     1      20.511  -6.108  36.643  1.00  0.00     0.027 A 
HETATM   20  C15 UNK     1      21.279  -5.543  37.636  1.00  0.00     0.142 A 
HETATM   21  O2  UNK     1      20.936  -4.241  37.820  1.00  0.00    -0.325 OA
ENDBRANCH  16  17
ENDBRANCH  14  16
ENDBRANCH   4  12
TORSDOF 3
ENDMDL
MODEL 8
REMARK VINA RESULT:      -7.8      6.319     10.961
REMARK  3 active torsions:
REMARK  status: ('A' for Active; 'I' for Inactive)
REMARK    1  A    between atoms: C5_10  and  N1_5 
REMARK       I    between atoms: C6_11  and  N1_5 
REMARK    2  A    between atoms: C2_7  and  C6_11 
REMARK    3  A    between atoms: C5_10  and  C7_12 
ROOT
HETATM    1  O1  UNK     1      19.551  -0.901  34.795  1.00  0.00    -0.274 OA
HETATM    2  O4  UNK     1      20.571  -2.874  34.255  1.00  0.00    -0.259 OA
HETATM    3  C1  UNK     1      18.409  -0.687  36.930  1.00  0.00    -0.001 A 
HETATM    4  C2  UNK     1      19.490  -2.779  36.361  1.00  0.00     0.108 A 
HETATM    5  C3  UNK     1      18.804  -0.140  35.714  1.00  0.00     0.089 A 
HETATM    6  C4  UNK     1      18.779  -2.059  37.238  1.00  0.00     0.037 A 
HETATM    7  C8  UNK     1      17.668   0.101  37.816  1.00  0.00     0.014 A 
HETATM    8  C9  UNK     1      19.921  -2.217  35.062  1.00  0.00     0.304 A 
HETATM    9  C10 UNK     1      18.481   1.169  35.359  1.00  0.00     0.038 A 
HETATM   10  C11 UNK     1      17.336   1.415  37.473  1.00  0.00     0.001 A 
HETATM   11  C12 UNK     1      17.742   1.947  36.247  1.00  0.00     0.003 A 
ENDROOT
BRANCH   4  12
HETATM   12  C6  UNK     1      19.815  -4.153  36.761  1.00  0.00     0.258 C 
HETATM   13  O3  UNK     1      20.949  -4.450  37.133  1.00  0.00    -0.267 OA
HETATM   14  N1  UNK     1      18.735  -5.011  36.666  1.00  0.00    -0.351 N 
HETATM   15  H4  UNK     1      17.839  -4.671  36.332  1.00  0.00     0.163 HD
BRANCH  14  16
HETATM   16  C5  UNK     1      18.812  -6.415  37.003  1.00  0.00     0.187 C 
BRANCH  16  17
HETATM   17  C7  UNK     1      19.777  -7.152  36.120  1.00  0.00     0.070 A 
HETATM   18  C13 UNK     1      19.954  -7.161  34.777  1.00  0.00     0.036 A 
HETATM   19  C14 UNK     1      21.025  -8.059  34.552  1.00  0.00     0.027 A 
HETATM   20  C15 UNK     1      21.405  -8.519  35.791  1.00  0.00     0.142 A 
HETATM   21  O2  UNK     1      20.636  -7.961  36.763  1.00  0.00    -0.325 OA
ENDBRANCH  16  17
ENDBRANCH  14  16
ENDBRANCH   4  12
TORSDOF 3
ENDMDL
MODEL 9
REMARK VINA RESULT:      -7.7      2.949      7.309
REMARK  3 active torsions:
REMARK  status: ('A' for Active; 'I' for Inactive)
REMARK    1  A    between atoms: C5_10  and  N1_5 
REMARK       I    between atoms: C6_11  and  N1_5 
REMARK    2  A    between atoms: C2_7  and  C6_11 
REMARK    3  A    between atoms: C5_10  and  C7_12 
ROOT
HETATM    1  O1  UNK     1      18.944   2.528  30.724  1.00  0.00    -0.274 OA
HETATM    2  O4  UNK     1      18.739   0.398  31.528  1.00  0.00    -0.259 OA
HETATM    3  C1  UNK     1      18.358   4.409  32.148  1.00  0.00    -0.001 A 
HETATM    4  C2  UNK     1      18.141   2.152  33.003  1.00  0.00     0.108 A 
HETATM    5  C3  UNK     1      18.815   3.915  30.931  1.00  0.00     0.089 A 
HETATM    6  C4  UNK     1      18.016   3.470  33.205  1.00  0.00     0.037 A 
HETATM    7  C8  UNK     1      18.244   5.792  32.314  1.00  0.00     0.014 A 
HETATM    8  C9  UNK     1      18.625   1.605  31.717  1.00  0.00     0.304 A 
HETATM    9  C10 UNK     1      19.159   4.761  29.878  1.00  0.00     0.038 A 
HETATM   10  C11 UNK     1      18.585   6.653  31.268  1.00  0.00     0.001 A 
HETATM   11  C12 UNK     1      19.041   6.138  30.052  1.00  0.00     0.003 A 
ENDROOT
BRANCH   4  12
HETATM   12  C6  UNK     1      17.772   1.286  34.129  1.00  0.00     0.258 C 
HETATM   13  O3  UNK     1      16.636   0.824  34.223  1.00  0.00    -0.267 OA
HETATM   14  N1  UNK     1      18.814   1.078  35.013  1.00  0.00    -0.351 N 
HETATM   15  H4  UNK     1      19.715   1.519  34.855  1.00  0.00     0.163 HD
BRANCH  14  16
HETATM   16  C5  UNK     1      18.690   0.262  36.199  1.00  0.00     0.187 C 
BRANCH  16  17
HETATM   17  C7  UNK     1      19.225  -1.124  35.985  1.00  0.00     0.070 A 
HETATM   18  C13 UNK     1      19.151  -2.251  36.733  1.00  0.00     0.036 A 
HETATM   19  C14 UNK     1      19.854  -3.232  35.992  1.00  0.00     0.027 A 
HETATM   20  C15 UNK     1      20.297  -2.604  34.851  1.00  0.00     0.142 A 
HETATM   21  O2  UNK     1      19.910  -1.302  34.842  1.00  0.00    -0.325 OA
ENDBRANCH  16  17
ENDBRANCH  14  16
ENDBRANCH   4  12
TORSDOF 3
ENDMDL
MODEL 10
REMARK VINA RESULT:      -7.7     22.311     23.805
REMARK  3 active torsions:
REMARK  status: ('A' for Active; 'I' for Inactive)
REMARK    1  A    between atoms: C5_10  and  N1_5 
REMARK       I    between atoms: C6_11  and  N1_5 
REMARK    2  A    between atoms: C2_7  and  C6_11 
REMARK    3  A    between atoms: C5_10  and  C7_12 
ROOT
HETATM    1  O1  UNK     1      11.189   7.188   9.493  1.00  0.00    -0.274 OA
HETATM    2  O4  UNK     1      12.885   7.540  10.984  1.00  0.00    -0.259 OA
HETATM    3  C1  UNK     1      11.708   6.421   7.245  1.00  0.00    -0.001 A 
HETATM    4  C2  UNK     1      13.508   6.792   8.824  1.00  0.00     0.108 A 
HETATM    5  C3  UNK     1      10.775   6.803   8.204  1.00  0.00     0.089 A 
HETATM    6  C4  UNK     1      13.119   6.426   7.597  1.00  0.00     0.037 A 
HETATM    7  C8  UNK     1      11.257   6.047   5.977  1.00  0.00     0.014 A 
HETATM    8  C9  UNK     1      12.533   7.202   9.859  1.00  0.00     0.304 A 
HETATM    9  C10 UNK     1       9.408   6.821   7.931  1.00  0.00     0.038 A 
HETATM   10  C11 UNK     1       9.890   6.060   5.688  1.00  0.00     0.001 A 
HETATM   11  C12 UNK     1       8.967   6.446   6.664  1.00  0.00     0.003 A 
ENDROOT
BRANCH   4  12
HETATM   12  C6  UNK     1      14.952   6.764   9.083  1.00  0.00     0.258 C 
HETATM   13  O3  UNK     1      15.614   5.751   8.860  1.00  0.00    -0.267 OA
HETATM   14  N1  UNK     1      15.433   7.961   9.582  1.00  0.00    -0.351 N 
HETATM   15  H4  UNK     1      14.800   8.737   9.747  1.00  0.00     0.163 HD
BRANCH  14  16
HETATM   16  C5  UNK     1      16.823   8.173   9.917  1.00  0.00     0.187 C 
BRANCH  16  17
HETATM   17  C7  UNK     1      17.198   9.626   9.859  1.00  0.00     0.070 A 
HETATM   18  C13 UNK     1      16.793  10.697  10.580  1.00  0.00     0.036 A 
HETATM   19  C14 UNK     1      17.512  11.794  10.048  1.00  0.00     0.027 A 
HETATM   20  C15 UNK     1      18.297  11.284   9.040  1.00  0.00     0.142 A 
HETATM   21  O2  UNK     1      18.106   9.944   8.920  1.00  0.00    -0.325 OA
ENDBRANCH  16  17
ENDBRANCH  14  16
ENDBRANCH   4  12
TORSDOF 3
ENDMDL
