MODEL 1
REMARK VINA RESULT:      -8.4      0.000      0.000
REMARK  2 active torsions:
REMARK  status: ('A' for Active; 'I' for Inactive)
REMARK    1  A    between atoms: C8_13  and  N1_4 
REMARK    2  A    between atoms: C1_6  and  C4_9 
ROOT
HETATM    1  O1  UNK     1      31.762  -4.948  36.026  1.00  0.00    -0.291 OA
HETATM    2  O2  UNK     1      32.792  -8.988  36.348  1.00  0.00    -0.274 OA
HETATM    3  O3  UNK     1      31.568  -9.152  38.265  1.00  0.00    -0.259 OA
HETATM    4  N2  UNK     1      29.367  -3.596  39.981  1.00  0.00    -0.191 NA
HETATM    5  C1  UNK     1      30.617  -6.436  38.205  1.00  0.00     0.108 C 
HETATM    6  C2  UNK     1      31.567  -7.036  37.180  1.00  0.00     0.066 A 
HETATM    7  C3  UNK     1      32.056  -6.290  36.177  1.00  0.00     0.104 A 
HETATM    8  C5  UNK     1      30.546  -4.912  38.085  1.00  0.00     0.086 C 
HETATM    9  C6  UNK     1      32.941  -6.866  35.168  1.00  0.00     0.033 A 
HETATM   10  C7  UNK     1      31.958  -8.462  37.329  1.00  0.00     0.298 A 
HETATM   11  C8  UNK     1      31.090  -4.258  37.034  1.00  0.00     0.159 C 
HETATM   12  C9  UNK     1      33.281  -8.211  35.282  1.00  0.00     0.092 A 
HETATM   13  C12 UNK     1      33.463  -6.142  34.091  1.00  0.00     0.017 A 
HETATM   14  C13 UNK     1      34.117  -8.844  34.362  1.00  0.00     0.038 A 
HETATM   15  C16 UNK     1      34.301  -6.763  33.158  1.00  0.00     0.001 A 
HETATM   16  C17 UNK     1      29.895  -4.186  39.132  1.00  0.00     0.100 C 
HETATM   17  C18 UNK     1      34.628  -8.112  33.294  1.00  0.00     0.003 A 
ENDROOT
BRANCH   5  18
HETATM   18  C4  UNK     1      29.247  -7.032  38.068  1.00  0.00    -0.044 A 
HETATM   19  C10 UNK     1      28.667  -7.142  36.810  1.00  0.00     0.008 A 
HETATM   20  C14 UNK     1      27.393  -7.697  36.683  1.00  0.00     0.001 A 
HETATM   21  C19 UNK     1      26.708  -8.137  37.814  1.00  0.00     0.000 A 
HETATM   22  C15 UNK     1      27.296  -8.023  39.075  1.00  0.00     0.001 A 
HETATM   23  C11 UNK     1      28.569  -7.468  39.202  1.00  0.00     0.008 A 
ENDBRANCH   5  18
BRANCH  11  24
HETATM   24  N1  UNK     1      31.052  -2.904  36.843  1.00  0.00    -0.379 N 
HETATM   25  H10 UNK     1      31.892  -2.345  36.909  1.00  0.00     0.158 HD
HETATM   26  H11 UNK     1      30.163  -2.466  36.636  1.00  0.00     0.158 HD
ENDBRANCH  11  24
TORSDOF 2
ENDMDL
MODEL 2
REMARK VINA RESULT:      -8.3     35.096     36.427
REMARK  2 active torsions:
REMARK  status: ('A' for Active; 'I' for Inactive)
REMARK    1  A    between atoms: C8_13  and  N1_4 
REMARK    2  A    between atoms: C1_6  and  C4_9 
ROOT
HETATM    1  O1  UNK     1      13.062   9.621   9.755  1.00  0.00    -0.291 OA
HETATM    2  O2  UNK     1      14.384   5.653   9.832  1.00  0.00    -0.274 OA
HETATM    3  O3  UNK     1      12.223   4.928   9.779  1.00  0.00    -0.259 OA
HETATM    4  N2  UNK     1       8.262   9.706  10.145  1.00  0.00    -0.191 NA
HETATM    5  C1  UNK     1      11.065   7.557   9.596  1.00  0.00     0.108 C 
HETATM    6  C2  UNK     1      12.557   7.281   9.707  1.00  0.00     0.066 A 
HETATM    7  C3  UNK     1      13.439   8.291   9.764  1.00  0.00     0.104 A 
HETATM    8  C5  UNK     1      10.745   9.035   9.828  1.00  0.00     0.086 C 
HETATM    9  C6  UNK     1      14.876   8.036   9.836  1.00  0.00     0.033 A 
HETATM   10  C7  UNK     1      13.011   5.868   9.776  1.00  0.00     0.298 A 
HETATM   11  C8  UNK     1      11.720   9.971   9.884  1.00  0.00     0.159 C 
HETATM   12  C9  UNK     1      15.309   6.714   9.863  1.00  0.00     0.092 A 
HETATM   13  C12 UNK     1      15.841   9.048   9.876  1.00  0.00     0.017 A 
HETATM   14  C13 UNK     1      16.662   6.378   9.928  1.00  0.00     0.038 A 
HETATM   15  C16 UNK     1      17.202   8.728   9.940  1.00  0.00     0.001 A 
HETATM   16  C17 UNK     1       9.374   9.405  10.003  1.00  0.00     0.100 C 
HETATM   17  C18 UNK     1      17.611   7.395   9.966  1.00  0.00     0.003 A 
ENDROOT
BRANCH   5  18
HETATM   18  C4  UNK     1      10.546   7.118   8.258  1.00  0.00    -0.044 A 
HETATM   19  C10 UNK     1      11.287   7.380   7.112  1.00  0.00     0.008 A 
HETATM   20  C14 UNK     1      10.804   6.971   5.869  1.00  0.00     0.001 A 
HETATM   21  C19 UNK     1       9.584   6.303   5.780  1.00  0.00     0.000 A 
HETATM   22  C15 UNK     1       8.844   6.043   6.935  1.00  0.00     0.001 A 
HETATM   23  C11 UNK     1       9.327   6.452   8.178  1.00  0.00     0.008 A 
ENDBRANCH   5  18
BRANCH  11  24
HETATM   24  N1  UNK     1      11.515  11.311  10.067  1.00  0.00    -0.379 N 
HETATM   25  H10 UNK     1      11.499  11.948   9.281  1.00  0.00     0.158 HD
HETATM   26  H11 UNK     1      11.383  11.659  11.008  1.00  0.00     0.158 HD
ENDBRANCH  11  24
TORSDOF 2
ENDMDL
MODEL 3
REMARK VINA RESULT:      -7.6      1.839      5.506
REMARK  2 active torsions:
REMARK  status: ('A' for Active; 'I' for Inactive)
REMARK    1  A    between atoms: C8_13  and  N1_4 
REMARK    2  A    between atoms: C1_6  and  C4_9 
ROOT
HETATM    1  O1  UNK     1      29.278  -5.860  38.864  1.00  0.00    -0.291 OA
HETATM    2  O2  UNK     1      28.880  -9.011  36.143  1.00  0.00    -0.274 OA
HETATM    3  O3  UNK     1      30.189  -7.891  34.649  1.00  0.00    -0.259 OA
HETATM    4  N2  UNK     1      31.596  -2.210  36.743  1.00  0.00    -0.191 NA
HETATM    5  C1  UNK     1      30.718  -5.656  36.383  1.00  0.00     0.108 C 
HETATM    6  C2  UNK     1      29.830  -6.835  36.749  1.00  0.00     0.066 A 
HETATM    7  C3  UNK     1      29.194  -6.876  37.930  1.00  0.00     0.104 A 
HETATM    8  C5  UNK     1      30.555  -4.498  37.370  1.00  0.00     0.086 C 
HETATM    9  C6  UNK     1      28.367  -8.020  38.305  1.00  0.00     0.033 A 
HETATM   10  C7  UNK     1      29.663  -7.929  35.757  1.00  0.00     0.298 A 
HETATM   11  C8  UNK     1      29.877  -4.647  38.531  1.00  0.00     0.159 C 
HETATM   12  C9  UNK     1      28.238  -9.064  37.394  1.00  0.00     0.092 A 
HETATM   13  C12 UNK     1      27.700  -8.126  39.530  1.00  0.00     0.017 A 
HETATM   14  C13 UNK     1      27.471 -10.197  37.669  1.00  0.00     0.038 A 
HETATM   15  C16 UNK     1      26.928  -9.256  39.822  1.00  0.00     0.001 A 
HETATM   16  C17 UNK     1      31.130  -3.235  37.023  1.00  0.00     0.100 C 
HETATM   17  C18 UNK     1      26.813 -10.290  38.893  1.00  0.00     0.003 A 
ENDROOT
BRANCH   5  18
HETATM   18  C4  UNK     1      32.156  -6.079  36.313  1.00  0.00    -0.044 A 
HETATM   19  C10 UNK     1      32.891  -5.831  35.160  1.00  0.00     0.008 A 
HETATM   20  C14 UNK     1      34.228  -6.225  35.095  1.00  0.00     0.001 A 
HETATM   21  C19 UNK     1      34.821  -6.864  36.184  1.00  0.00     0.000 A 
HETATM   22  C15 UNK     1      34.076  -7.111  37.338  1.00  0.00     0.001 A 
HETATM   23  C11 UNK     1      32.739  -6.717  37.403  1.00  0.00     0.008 A 
ENDBRANCH   5  18
BRANCH  11  24
HETATM   24  N1  UNK     1      29.704  -3.670  39.473  1.00  0.00    -0.379 N 
HETATM   25  H10 UNK     1      29.571  -2.705  39.203  1.00  0.00     0.158 HD
HETATM   26  H11 UNK     1      29.715  -3.930  40.451  1.00  0.00     0.158 HD
ENDBRANCH  11  24
TORSDOF 2
ENDMDL
MODEL 4
REMARK VINA RESULT:      -7.6     15.374     17.369
REMARK  2 active torsions:
REMARK  status: ('A' for Active; 'I' for Inactive)
REMARK    1  A    between atoms: C8_13  and  N1_4 
REMARK    2  A    between atoms: C1_6  and  C4_9 
ROOT
HETATM    1  O1  UNK     1      17.546   2.222  32.681  1.00  0.00    -0.291 OA
HETATM    2  O2  UNK     1      19.249   2.248  36.501  1.00  0.00    -0.274 OA
HETATM    3  O3  UNK     1      20.407   4.141  35.976  1.00  0.00    -0.259 OA
HETATM    4  N2  UNK     1      19.588   5.668  30.005  1.00  0.00    -0.191 NA
HETATM    5  C1  UNK     1      19.285   4.417  33.340  1.00  0.00     0.108 C 
HETATM    6  C2  UNK     1      18.960   3.280  34.297  1.00  0.00     0.066 A 
HETATM    7  C3  UNK     1      18.129   2.291  33.932  1.00  0.00     0.104 A 
HETATM    8  C5  UNK     1      18.783   4.124  31.924  1.00  0.00     0.086 C 
HETATM    9  C6  UNK     1      17.784   1.214  34.856  1.00  0.00     0.033 A 
HETATM   10  C7  UNK     1      19.603   3.278  35.637  1.00  0.00     0.298 A 
HETATM   11  C8  UNK     1      17.957   3.085  31.666  1.00  0.00     0.159 C 
HETATM   12  C9  UNK     1      18.355   1.227  36.125  1.00  0.00     0.092 A 
HETATM   13  C12 UNK     1      16.908   0.170  34.538  1.00  0.00     0.017 A 
HETATM   14  C13 UNK     1      18.080   0.241  37.073  1.00  0.00     0.038 A 
HETATM   15  C16 UNK     1      16.620  -0.826  35.477  1.00  0.00     0.001 A 
HETATM   16  C17 UNK     1      19.228   4.977  30.865  1.00  0.00     0.100 C 
HETATM   17  C18 UNK     1      17.206  -0.791  36.743  1.00  0.00     0.003 A 
ENDROOT
BRANCH   5  18
HETATM   18  C4  UNK     1      18.706   5.708  33.839  1.00  0.00    -0.044 A 
HETATM   19  C10 UNK     1      17.331   5.824  34.015  1.00  0.00     0.008 A 
HETATM   20  C14 UNK     1      16.794   7.025  34.479  1.00  0.00     0.001 A 
HETATM   21  C19 UNK     1      17.633   8.101  34.764  1.00  0.00     0.000 A 
HETATM   22  C15 UNK     1      19.011   7.978  34.584  1.00  0.00     0.001 A 
HETATM   23  C11 UNK     1      19.549   6.778  34.120  1.00  0.00     0.008 A 
ENDBRANCH   5  18
BRANCH  11  24
HETATM   24  N1  UNK     1      17.449   2.769  30.436  1.00  0.00    -0.379 N 
HETATM   25  H10 UNK     1      18.015   2.856  29.601  1.00  0.00     0.158 HD
HETATM   26  H11 UNK     1      16.492   2.448  30.372  1.00  0.00     0.158 HD
ENDBRANCH  11  24
TORSDOF 2
ENDMDL
MODEL 5
REMARK VINA RESULT:      -7.5      3.461      4.543
REMARK  2 active torsions:
REMARK  status: ('A' for Active; 'I' for Inactive)
REMARK    1  A    between atoms: C8_13  and  N1_4 
REMARK    2  A    between atoms: C1_6  and  C4_9 
ROOT
HETATM    1  O1  UNK     1      31.812  -5.807  33.611  1.00  0.00    -0.291 OA
HETATM    2  O2  UNK     1      27.928  -7.351  33.764  1.00  0.00    -0.274 OA
HETATM    3  O3  UNK     1      28.281  -8.036  35.910  1.00  0.00    -0.259 OA
HETATM    4  N2  UNK     1      34.172  -7.034  37.626  1.00  0.00    -0.191 NA
HETATM    5  C1  UNK     1      30.940  -6.950  36.101  1.00  0.00     0.108 C 
HETATM    6  C2  UNK     1      30.072  -6.882  34.854  1.00  0.00     0.066 A 
HETATM    7  C3  UNK     1      30.535  -6.322  33.725  1.00  0.00     0.104 A 
HETATM    8  C5  UNK     1      32.391  -6.571  35.801  1.00  0.00     0.086 C 
HETATM    9  C6  UNK     1      29.697  -6.221  32.533  1.00  0.00     0.033 A 
HETATM   10  C7  UNK     1      28.708  -7.471  34.909  1.00  0.00     0.298 A 
HETATM   11  C8  UNK     1      32.750  -6.025  34.617  1.00  0.00     0.159 C 
HETATM   12  C9  UNK     1      28.406  -6.738  32.590  1.00  0.00     0.092 A 
HETATM   13  C12 UNK     1      30.118  -5.629  31.338  1.00  0.00     0.017 A 
HETATM   14  C13 UNK     1      27.536  -6.682  31.501  1.00  0.00     0.038 A 
HETATM   15  C16 UNK     1      29.257  -5.564  30.236  1.00  0.00     0.001 A 
HETATM   16  C17 UNK     1      33.374  -6.827  36.809  1.00  0.00     0.100 C 
HETATM   17  C18 UNK     1      27.968  -6.089  30.318  1.00  0.00     0.003 A 
ENDROOT
BRANCH   5  18
HETATM   18  C4  UNK     1      30.385  -6.066  37.179  1.00  0.00    -0.044 A 
HETATM   19  C10 UNK     1      30.504  -4.685  37.066  1.00  0.00     0.008 A 
HETATM   20  C14 UNK     1      29.988  -3.863  38.068  1.00  0.00     0.001 A 
HETATM   21  C19 UNK     1      29.356  -4.426  39.176  1.00  0.00     0.000 A 
HETATM   22  C15 UNK     1      29.242  -5.813  39.284  1.00  0.00     0.001 A 
HETATM   23  C11 UNK     1      29.757  -6.635  38.282  1.00  0.00     0.008 A 
ENDBRANCH   5  18
BRANCH  11  24
HETATM   24  N1  UNK     1      34.019  -5.641  34.279  1.00  0.00    -0.379 N 
HETATM   25  H10 UNK     1      34.475  -6.016  33.458  1.00  0.00     0.158 HD
HETATM   26  H11 UNK     1      34.500  -4.974  34.869  1.00  0.00     0.158 HD
ENDBRANCH  11  24
TORSDOF 2
ENDMDL
MODEL 6
REMARK VINA RESULT:      -7.4      2.729      6.036
REMARK  2 active torsions:
REMARK  status: ('A' for Active; 'I' for Inactive)
REMARK    1  A    between atoms: C8_13  and  N1_4 
REMARK    2  A    between atoms: C1_6  and  C4_9 
ROOT
HETATM    1  O1  UNK     1      27.994  -6.954  35.316  1.00  0.00    -0.291 OA
HETATM    2  O2  UNK     1      30.355  -9.399  37.753  1.00  0.00    -0.274 OA
HETATM    3  O3  UNK     1      32.119  -9.113  36.338  1.00  0.00    -0.259 OA
HETATM    4  N2  UNK     1      30.433  -5.872  31.307  1.00  0.00    -0.191 NA
HETATM    5  C1  UNK     1      30.748  -7.305  34.566  1.00  0.00     0.108 C 
HETATM    6  C2  UNK     1      30.116  -7.957  35.787  1.00  0.00     0.066 A 
HETATM    7  C3  UNK     1      28.826  -7.742  36.089  1.00  0.00     0.104 A 
HETATM    8  C5  UNK     1      29.697  -6.655  33.664  1.00  0.00     0.086 C 
HETATM    9  C6  UNK     1      28.219  -8.335  37.278  1.00  0.00     0.033 A 
HETATM   10  C7  UNK     1      30.954  -8.857  36.621  1.00  0.00     0.298 A 
HETATM   11  C8  UNK     1      28.415  -6.502  34.067  1.00  0.00     0.159 C 
HETATM   12  C9  UNK     1      29.009  -9.149  38.084  1.00  0.00     0.092 A 
HETATM   13  C12 UNK     1      26.887  -8.128  37.654  1.00  0.00     0.017 A 
HETATM   14  C13 UNK     1      28.514  -9.754  39.239  1.00  0.00     0.038 A 
HETATM   15  C16 UNK     1      26.375  -8.727  38.810  1.00  0.00     0.001 A 
HETATM   16  C17 UNK     1      30.104  -6.223  32.363  1.00  0.00     0.100 C 
HETATM   17  C18 UNK     1      27.188  -9.539  39.602  1.00  0.00     0.003 A 
ENDROOT
BRANCH   5  18
HETATM   18  C4  UNK     1      31.773  -6.291  34.982  1.00  0.00    -0.044 A 
HETATM   19  C10 UNK     1      33.069  -6.379  34.484  1.00  0.00     0.008 A 
HETATM   20  C14 UNK     1      34.022  -5.436  34.870  1.00  0.00     0.001 A 
HETATM   21  C19 UNK     1      33.674  -4.412  35.750  1.00  0.00     0.000 A 
HETATM   22  C15 UNK     1      32.372  -4.331  36.247  1.00  0.00     0.001 A 
HETATM   23  C11 UNK     1      31.419  -5.273  35.861  1.00  0.00     0.008 A 
ENDBRANCH   5  18
BRANCH  11  24
HETATM   24  N1  UNK     1      27.422  -5.916  33.330  1.00  0.00    -0.379 N 
HETATM   25  H10 UNK     1      26.552  -5.632  33.762  1.00  0.00     0.158 HD
HETATM   26  H11 UNK     1      27.571  -5.771  32.340  1.00  0.00     0.158 HD
ENDBRANCH  11  24
TORSDOF 2
ENDMDL
MODEL 7
REMARK VINA RESULT:      -7.3      2.210      5.862
REMARK  2 active torsions:
REMARK  status: ('A' for Active; 'I' for Inactive)
REMARK    1  A    between atoms: C8_13  and  N1_4 
REMARK    2  A    between atoms: C1_6  and  C4_9 
ROOT
HETATM    1  O1  UNK     1      30.768  -6.576  38.061  1.00  0.00    -0.291 OA
HETATM    2  O2  UNK     1      27.359  -7.423  35.790  1.00  0.00    -0.274 OA
HETATM    3  O3  UNK     1      28.309  -6.411  33.981  1.00  0.00    -0.259 OA
HETATM    4  N2  UNK     1      33.740  -3.790  35.491  1.00  0.00    -0.191 NA
HETATM    5  C1  UNK     1      30.805  -5.819  35.286  1.00  0.00     0.108 C 
HETATM    6  C2  UNK     1      29.623  -6.501  35.960  1.00  0.00     0.066 A 
HETATM    7  C3  UNK     1      29.675  -6.840  37.257  1.00  0.00     0.104 A 
HETATM    8  C5  UNK     1      31.853  -5.368  36.305  1.00  0.00     0.086 C 
HETATM    9  C6  UNK     1      28.559  -7.525  37.904  1.00  0.00     0.033 A 
HETATM   10  C7  UNK     1      28.402  -6.759  35.153  1.00  0.00     0.298 A 
HETATM   11  C8  UNK     1      31.798  -5.760  37.599  1.00  0.00     0.159 C 
HETATM   12  C9  UNK     1      27.427  -7.803  37.143  1.00  0.00     0.092 A 
HETATM   13  C12 UNK     1      28.566  -7.922  39.246  1.00  0.00     0.017 A 
HETATM   14  C13 UNK     1      26.316  -8.456  37.678  1.00  0.00     0.038 A 
HETATM   15  C16 UNK     1      27.460  -8.580  39.797  1.00  0.00     0.001 A 
HETATM   16  C17 UNK     1      32.895  -4.497  35.855  1.00  0.00     0.100 C 
HETATM   17  C18 UNK     1      26.337  -8.846  39.014  1.00  0.00     0.003 A 
ENDROOT
BRANCH   5  18
HETATM   18  C4  UNK     1      31.429  -6.729  34.269  1.00  0.00    -0.044 A 
HETATM   19  C10 UNK     1      31.522  -6.320  32.944  1.00  0.00     0.008 A 
HETATM   20  C14 UNK     1      32.102  -7.165  31.999  1.00  0.00     0.001 A 
HETATM   21  C19 UNK     1      32.586  -8.415  32.384  1.00  0.00     0.000 A 
HETATM   22  C15 UNK     1      32.488  -8.820  33.716  1.00  0.00     0.001 A 
HETATM   23  C11 UNK     1      31.908  -7.975  34.661  1.00  0.00     0.008 A 
ENDBRANCH   5  18
BRANCH  11  24
HETATM   24  N1  UNK     1      32.705  -5.417  38.564  1.00  0.00    -0.379 N 
HETATM   25  H10 UNK     1      33.224  -4.551  38.507  1.00  0.00     0.158 HD
HETATM   26  H11 UNK     1      32.851  -6.049  39.341  1.00  0.00     0.158 HD
ENDBRANCH  11  24
TORSDOF 2
ENDMDL
MODEL 8
REMARK VINA RESULT:      -7.3      3.569      4.118
REMARK  2 active torsions:
REMARK  status: ('A' for Active; 'I' for Inactive)
REMARK    1  A    between atoms: C8_13  and  N1_4 
REMARK    2  A    between atoms: C1_6  and  C4_9 
ROOT
HETATM    1  O1  UNK     1      30.169  -5.703  34.253  1.00  0.00    -0.291 OA
HETATM    2  O2  UNK     1      28.503  -9.310  32.945  1.00  0.00    -0.274 OA
HETATM    3  O3  UNK     1      29.203 -10.331  34.860  1.00  0.00    -0.259 OA
HETATM    4  N2  UNK     1      32.643  -6.473  38.313  1.00  0.00    -0.191 NA
HETATM    5  C1  UNK     1      30.318  -7.954  36.037  1.00  0.00     0.108 C 
HETATM    6  C2  UNK     1      29.674  -8.010  34.660  1.00  0.00     0.066 A 
HETATM    7  C3  UNK     1      29.626  -6.918  33.880  1.00  0.00     0.104 A 
HETATM    8  C5  UNK     1      31.084  -6.647  36.250  1.00  0.00     0.086 C 
HETATM    9  C6  UNK     1      28.980  -6.953  32.571  1.00  0.00     0.033 A 
HETATM   10  C7  UNK     1      29.123  -9.307  34.190  1.00  0.00     0.298 A 
HETATM   11  C8  UNK     1      30.972  -5.611  35.388  1.00  0.00     0.159 C 
HETATM   12  C9  UNK     1      28.429  -8.157  32.141  1.00  0.00     0.092 A 
HETATM   13  C12 UNK     1      28.880  -5.843  31.726  1.00  0.00     0.017 A 
HETATM   14  C13 UNK     1      27.790  -8.281  30.907  1.00  0.00     0.038 A 
HETATM   15  C16 UNK     1      28.241  -5.950  30.486  1.00  0.00     0.001 A 
HETATM   16  C17 UNK     1      31.945  -6.552  37.390  1.00  0.00     0.100 C 
HETATM   17  C18 UNK     1      27.697  -7.167  30.077  1.00  0.00     0.003 A 
ENDROOT
BRANCH   5  18
HETATM   18  C4  UNK     1      29.284  -8.130  37.110  1.00  0.00    -0.044 A 
HETATM   19  C10 UNK     1      28.216  -7.243  37.190  1.00  0.00     0.008 A 
HETATM   20  C14 UNK     1      27.255  -7.407  38.187  1.00  0.00     0.001 A 
HETATM   21  C19 UNK     1      27.367  -8.456  39.098  1.00  0.00     0.000 A 
HETATM   22  C15 UNK     1      28.442  -9.343  39.013  1.00  0.00     0.001 A 
HETATM   23  C11 UNK     1      29.403  -9.179  38.016  1.00  0.00     0.008 A 
ENDBRANCH   5  18
BRANCH  11  24
HETATM   24  N1  UNK     1      31.606  -4.406  35.518  1.00  0.00    -0.379 N 
HETATM   25  H10 UNK     1      31.132  -3.541  35.291  1.00  0.00     0.158 HD
HETATM   26  H11 UNK     1      32.564  -4.392  35.842  1.00  0.00     0.158 HD
ENDBRANCH  11  24
TORSDOF 2
ENDMDL
MODEL 9
REMARK VINA RESULT:      -7.3      3.431      4.989
REMARK  2 active torsions:
REMARK  status: ('A' for Active; 'I' for Inactive)
REMARK    1  A    between atoms: C8_13  and  N1_4 
REMARK    2  A    between atoms: C1_6  and  C4_9 
ROOT
HETATM    1  O1  UNK     1      28.285  -7.785  34.932  1.00  0.00    -0.291 OA
HETATM    2  O2  UNK     1      30.863  -5.869  32.254  1.00  0.00    -0.274 OA
HETATM    3  O3  UNK     1      31.723  -4.630  33.963  1.00  0.00    -0.259 OA
HETATM    4  N2  UNK     1      28.641  -5.694  39.256  1.00  0.00    -0.191 NA
HETATM    5  C1  UNK     1      30.146  -5.882  36.019  1.00  0.00     0.108 C 
HETATM    6  C2  UNK     1      30.053  -6.220  34.539  1.00  0.00     0.066 A 
HETATM    7  C3  UNK     1      29.169  -7.129  34.097  1.00  0.00     0.104 A 
HETATM    8  C5  UNK     1      28.982  -6.480  36.811  1.00  0.00     0.086 C 
HETATM    9  C6  UNK     1      29.096  -7.485  32.683  1.00  0.00     0.033 A 
HETATM   10  C7  UNK     1      30.945  -5.502  33.592  1.00  0.00     0.298 A 
HETATM   11  C8  UNK     1      28.139  -7.382  36.258  1.00  0.00     0.159 C 
HETATM   12  C9  UNK     1      29.955  -6.843  31.796  1.00  0.00     0.092 A 
HETATM   13  C12 UNK     1      28.211  -8.440  32.169  1.00  0.00     0.017 A 
HETATM   14  C13 UNK     1      29.956  -7.123  30.430  1.00  0.00     0.038 A 
HETATM   15  C16 UNK     1      28.200  -8.734  30.801  1.00  0.00     0.001 A 
HETATM   16  C17 UNK     1      28.794  -6.046  38.161  1.00  0.00     0.100 C 
HETATM   17  C18 UNK     1      29.071  -8.076  29.933  1.00  0.00     0.003 A 
ENDROOT
BRANCH   5  18
HETATM   18  C4  UNK     1      31.454  -6.352  36.586  1.00  0.00    -0.044 A 
HETATM   19  C10 UNK     1      31.821  -7.686  36.455  1.00  0.00     0.008 A 
HETATM   20  C14 UNK     1      33.037  -8.123  36.982  1.00  0.00     0.001 A 
HETATM   21  C19 UNK     1      33.878  -7.223  37.635  1.00  0.00     0.000 A 
HETATM   22  C15 UNK     1      33.503  -5.884  37.764  1.00  0.00     0.001 A 
HETATM   23  C11 UNK     1      32.287  -5.448  37.237  1.00  0.00     0.008 A 
ENDBRANCH   5  18
BRANCH  11  24
HETATM   24  N1  UNK     1      27.089  -7.977  36.902  1.00  0.00    -0.379 N 
HETATM   25  H10 UNK     1      26.765  -8.896  36.630  1.00  0.00     0.158 HD
HETATM   26  H11 UNK     1      26.636  -7.479  37.657  1.00  0.00     0.158 HD
ENDBRANCH  11  24
TORSDOF 2
ENDMDL
MODEL 10
REMARK VINA RESULT:      -7.3     34.675     35.964
REMARK  2 active torsions:
REMARK  status: ('A' for Active; 'I' for Inactive)
REMARK    1  A    between atoms: C8_13  and  N1_4 
REMARK    2  A    between atoms: C1_6  and  C4_9 
ROOT
HETATM    1  O1  UNK     1      14.552  11.805   9.140  1.00  0.00    -0.291 OA
HETATM    2  O2  UNK     1      18.376  10.219   8.544  1.00  0.00    -0.274 OA
HETATM    3  O3  UNK     1      17.874   8.480   9.931  1.00  0.00    -0.259 OA
HETATM    4  N2  UNK     1      12.276   9.242  12.524  1.00  0.00    -0.191 NA
HETATM    5  C1  UNK     1      15.155   9.294  10.406  1.00  0.00     0.108 C 
HETATM    6  C2  UNK     1      16.144  10.064   9.544  1.00  0.00     0.066 A 
HETATM    7  C3  UNK     1      15.795  11.226   8.970  1.00  0.00     0.104 A 
HETATM    8  C5  UNK     1      13.909  10.126  10.717  1.00  0.00     0.086 C 
HETATM    9  C6  UNK     1      16.727  11.955   8.113  1.00  0.00     0.033 A 
HETATM   10  C7  UNK     1      17.513   9.511   9.374  1.00  0.00     0.298 A 
HETATM   11  C8  UNK     1      13.663  11.297  10.085  1.00  0.00     0.159 C 
HETATM   12  C9  UNK     1      17.998  11.423   7.920  1.00  0.00     0.092 A 
HETATM   13  C12 UNK     1      16.411  13.158   7.472  1.00  0.00     0.017 A 
HETATM   14  C13 UNK     1      18.950  12.049   7.116  1.00  0.00     0.038 A 
HETATM   15  C16 UNK     1      17.354  13.798   6.661  1.00  0.00     0.001 A 
HETATM   16  C17 UNK     1      13.007   9.637  11.714  1.00  0.00     0.100 C 
HETATM   17  C18 UNK     1      18.622  13.245   6.483  1.00  0.00     0.003 A 
ENDROOT
BRANCH   5  18
HETATM   18  C4  UNK     1      14.767   8.006   9.741  1.00  0.00    -0.044 A 
HETATM   19  C10 UNK     1      14.096   8.035   8.524  1.00  0.00     0.008 A 
HETATM   20  C14 UNK     1      13.735   6.838   7.905  1.00  0.00     0.001 A 
HETATM   21  C19 UNK     1      14.047   5.620   8.507  1.00  0.00     0.000 A 
HETATM   22  C15 UNK     1      14.720   5.598   9.730  1.00  0.00     0.001 A 
HETATM   23  C11 UNK     1      15.081   6.795  10.348  1.00  0.00     0.008 A 
ENDBRANCH   5  18
BRANCH  11  24
HETATM   24  N1  UNK     1      12.566  12.087  10.291  1.00  0.00    -0.379 N 
HETATM   25  H10 UNK     1      12.080  12.083  11.178  1.00  0.00     0.158 HD
HETATM   26  H11 UNK     1      12.243  12.678   9.535  1.00  0.00     0.158 HD
ENDBRANCH  11  24
TORSDOF 2
ENDMDL
