MODEL 1
REMARK VINA RESULT:      -8.7      0.000      0.000
REMARK  4 active torsions:
REMARK  status: ('A' for Active; 'I' for Inactive)
REMARK    1  A    between atoms: C10_15  and  O2_2 
REMARK    2  A    between atoms: C5_10  and  O2_2 
REMARK    3  A    between atoms: C4_9  and  O3_3 
REMARK    4  A    between atoms: C8_13  and  O5_5 
ROOT
HETATM    1  O1  UNK     1      19.388   1.092  29.082  1.00  0.00    -0.319 OA
HETATM    2  O4  UNK     1      18.229   1.490  32.976  1.00  0.00    -0.284 OA
HETATM    3  C1  UNK     1      19.248   0.134  31.313  1.00  0.00     0.084 A 
HETATM    4  C2  UNK     1      19.617   0.068  29.968  1.00  0.00     0.094 A 
HETATM    5  C3  UNK     1      18.583   1.351  31.814  1.00  0.00     0.223 A 
HETATM    6  C4  UNK     1      19.508  -0.939  32.169  1.00  0.00     0.085 A 
HETATM    7  C5  UNK     1      18.360   2.423  30.819  1.00  0.00     0.149 A 
HETATM    8  C6  UNK     1      20.248  -1.074  29.472  1.00  0.00     0.074 A 
HETATM    9  C7  UNK     1      20.139  -2.079  31.669  1.00  0.00     0.074 A 
HETATM   10  C8  UNK     1      20.508  -2.147  30.325  1.00  0.00     0.071 A 
HETATM   11  C9  UNK     1      18.767   2.220  29.562  1.00  0.00     0.184 A 
ENDROOT
BRANCH   7  12
HETATM   12  O2  UNK     1      17.745   3.591  31.205  1.00  0.00    -0.305 OA
BRANCH  12  13
HETATM   13  C10 UNK     1      18.539   4.558  31.757  1.00  0.00     0.076 A 
HETATM   14  C11 UNK     1      19.547   5.143  30.995  1.00  0.00     0.037 A 
HETATM   15  C13 UNK     1      20.357   6.129  31.559  1.00  0.00     0.003 A 
HETATM   16  C15 UNK     1      20.157   6.524  32.882  1.00  0.00     0.000 A 
HETATM   17  C14 UNK     1      19.146   5.934  33.641  1.00  0.00     0.003 A 
HETATM   18  C12 UNK     1      18.336   4.948  33.077  1.00  0.00     0.037 A 
ENDBRANCH  12  13
ENDBRANCH   7  12
BRANCH   6  19
HETATM   19  O3  UNK     1      19.169  -0.926  33.487  1.00  0.00    -0.360 OA
HETATM   20  H6  UNK     1      18.741  -0.086  33.719  1.00  0.00     0.217 HD
ENDBRANCH   6  19
BRANCH  10  21
HETATM   21  O5  UNK     1      21.123  -3.263  29.845  1.00  0.00    -0.361 OA
HETATM   22  H10 UNK     1      21.621  -3.029  29.044  1.00  0.00     0.217 HD
ENDBRANCH  10  21
TORSDOF 4
ENDMDL
MODEL 2
REMARK VINA RESULT:      -8.7      0.801      2.251
REMARK  4 active torsions:
REMARK  status: ('A' for Active; 'I' for Inactive)
REMARK    1  A    between atoms: C10_15  and  O2_2 
REMARK    2  A    between atoms: C5_10  and  O2_2 
REMARK    3  A    between atoms: C4_9  and  O3_3 
REMARK    4  A    between atoms: C8_13  and  O5_5 
ROOT
HETATM    1  O1  UNK     1      19.103   0.451  32.767  1.00  0.00    -0.319 OA
HETATM    2  O4  UNK     1      18.273   2.435  29.297  1.00  0.00    -0.284 OA
HETATM    3  C1  UNK     1      19.159   0.491  30.337  1.00  0.00     0.084 A 
HETATM    4  C2  UNK     1      19.413  -0.128  31.562  1.00  0.00     0.094 A 
HETATM    5  C3  UNK     1      18.530   1.825  30.325  1.00  0.00     0.223 A 
HETATM    6  C4  UNK     1      19.497  -0.147  29.140  1.00  0.00     0.085 A 
HETATM    7  C5  UNK     1      18.216   2.404  31.650  1.00  0.00     0.149 A 
HETATM    8  C6  UNK     1      20.008  -1.390  31.596  1.00  0.00     0.074 A 
HETATM    9  C7  UNK     1      20.091  -1.410  29.179  1.00  0.00     0.074 A 
HETATM   10  C8  UNK     1      20.347  -2.030  30.403  1.00  0.00     0.071 A 
HETATM   11  C9  UNK     1      18.517   1.694  32.742  1.00  0.00     0.184 A 
ENDROOT
BRANCH   7  12
HETATM   12  O2  UNK     1      17.628   3.644  31.727  1.00  0.00    -0.305 OA
BRANCH  12  13
HETATM   13  C10 UNK     1      18.415   4.680  32.146  1.00  0.00     0.076 A 
HETATM   14  C11 UNK     1      19.393   5.192  31.297  1.00  0.00     0.037 A 
HETATM   15  C13 UNK     1      20.197   6.249  31.724  1.00  0.00     0.003 A 
HETATM   16  C15 UNK     1      20.020   6.789  32.998  1.00  0.00     0.000 A 
HETATM   17  C14 UNK     1      19.039   6.273  33.844  1.00  0.00     0.003 A 
HETATM   18  C12 UNK     1      18.235   5.216  33.417  1.00  0.00     0.037 A 
ENDBRANCH  12  13
ENDBRANCH   7  12
BRANCH   6  19
HETATM   19  O3  UNK     1      19.271   0.412  27.920  1.00  0.00    -0.360 OA
HETATM   20  H6  UNK     1      20.062   0.345  27.364  1.00  0.00     0.217 HD
ENDBRANCH   6  19
BRANCH  10  21
HETATM   21  O5  UNK     1      20.927  -3.261  30.433  1.00  0.00    -0.361 OA
HETATM   22  H10 UNK     1      21.820  -3.197  30.052  1.00  0.00     0.217 HD
ENDBRANCH  10  21
TORSDOF 4
ENDMDL
MODEL 3
REMARK VINA RESULT:      -8.2     22.535     24.292
REMARK  4 active torsions:
REMARK  status: ('A' for Active; 'I' for Inactive)
REMARK    1  A    between atoms: C10_15  and  O2_2 
REMARK    2  A    between atoms: C5_10  and  O2_2 
REMARK    3  A    between atoms: C4_9  and  O3_3 
REMARK    4  A    between atoms: C8_13  and  O5_5 
ROOT
HETATM    1  O1  UNK     1      13.519   8.682   9.830  1.00  0.00    -0.319 OA
HETATM    2  O4  UNK     1      14.063   4.660   9.383  1.00  0.00    -0.284 OA
HETATM    3  C1  UNK     1      15.053   6.802   9.664  1.00  0.00     0.084 A 
HETATM    4  C2  UNK     1      14.791   8.165   9.813  1.00  0.00     0.094 A 
HETATM    5  C3  UNK     1      13.921   5.867   9.517  1.00  0.00     0.223 A 
HETATM    6  C4  UNK     1      16.369   6.333   9.655  1.00  0.00     0.085 A 
HETATM    7  C5  UNK     1      12.573   6.475   9.542  1.00  0.00     0.149 A 
HETATM    8  C6  UNK     1      15.847   9.067   9.954  1.00  0.00     0.074 A 
HETATM    9  C7  UNK     1      17.422   7.239   9.796  1.00  0.00     0.074 A 
HETATM   10  C8  UNK     1      17.162   8.602   9.945  1.00  0.00     0.071 A 
HETATM   11  C9  UNK     1      12.474   7.800   9.693  1.00  0.00     0.184 A 
ENDROOT
BRANCH   7  12
HETATM   12  O2  UNK     1      11.463   5.673   9.412  1.00  0.00    -0.305 OA
BRANCH  12  13
HETATM   13  C10 UNK     1      10.652   5.904   8.336  1.00  0.00     0.076 A 
HETATM   14  C11 UNK     1      11.173   5.822   7.047  1.00  0.00     0.037 A 
HETATM   15  C13 UNK     1      10.347   6.058   5.949  1.00  0.00     0.003 A 
HETATM   16  C15 UNK     1       9.002   6.376   6.144  1.00  0.00     0.000 A 
HETATM   17  C14 UNK     1       8.485   6.457   7.437  1.00  0.00     0.003 A 
HETATM   18  C12 UNK     1       9.312   6.221   8.535  1.00  0.00     0.037 A 
ENDBRANCH  12  13
ENDBRANCH   7  12
BRANCH   6  19
HETATM   19  O3  UNK     1      16.678   5.015   9.512  1.00  0.00    -0.360 OA
HETATM   20  H6  UNK     1      15.876   4.472   9.554  1.00  0.00     0.217 HD
ENDBRANCH   6  19
BRANCH  10  21
HETATM   21  O5  UNK     1      18.195   9.479  10.081  1.00  0.00    -0.361 OA
HETATM   22  H10 UNK     1      18.726   9.469   9.267  1.00  0.00     0.217 HD
ENDBRANCH  10  21
TORSDOF 4
ENDMDL
MODEL 4
REMARK VINA RESULT:      -7.7      1.174      1.361
REMARK  4 active torsions:
REMARK  status: ('A' for Active; 'I' for Inactive)
REMARK    1  A    between atoms: C10_15  and  O2_2 
REMARK    2  A    between atoms: C5_10  and  O2_2 
REMARK    3  A    between atoms: C4_9  and  O3_3 
REMARK    4  A    between atoms: C8_13  and  O5_5 
ROOT
HETATM    1  O1  UNK     1      19.914   0.283  30.279  1.00  0.00    -0.319 OA
HETATM    2  O4  UNK     1      17.608   1.382  33.464  1.00  0.00    -0.284 OA
HETATM    3  C1  UNK     1      19.109  -0.201  32.522  1.00  0.00     0.084 A 
HETATM    4  C2  UNK     1      19.875  -0.513  31.397  1.00  0.00     0.094 A 
HETATM    5  C3  UNK     1      18.304   1.035  32.520  1.00  0.00     0.223 A 
HETATM    6  C4  UNK     1      19.108  -1.049  33.633  1.00  0.00     0.085 A 
HETATM    7  C5  UNK     1      18.382   1.856  31.292  1.00  0.00     0.149 A 
HETATM    8  C6  UNK     1      20.644  -1.678  31.378  1.00  0.00     0.074 A 
HETATM    9  C7  UNK     1      19.879  -2.213  33.609  1.00  0.00     0.074 A 
HETATM   10  C8  UNK     1      20.644  -2.527  32.485  1.00  0.00     0.071 A 
HETATM   11  C9  UNK     1      19.160   1.431  30.291  1.00  0.00     0.184 A 
ENDROOT
BRANCH   7  12
HETATM   12  O2  UNK     1      17.662   3.024  31.209  1.00  0.00    -0.305 OA
BRANCH  12  13
HETATM   13  C10 UNK     1      18.313   4.181  31.538  1.00  0.00     0.076 A 
HETATM   14  C11 UNK     1      19.133   4.803  30.600  1.00  0.00     0.037 A 
HETATM   15  C13 UNK     1      19.799   5.982  30.935  1.00  0.00     0.003 A 
HETATM   16  C15 UNK     1      19.642   6.534  32.207  1.00  0.00     0.000 A 
HETATM   17  C14 UNK     1      18.820   5.906  33.142  1.00  0.00     0.003 A 
HETATM   18  C12 UNK     1      18.154   4.727  32.807  1.00  0.00     0.037 A 
ENDBRANCH  12  13
ENDBRANCH   7  12
BRANCH   6  19
HETATM   19  O3  UNK     1      18.379  -0.792  34.753  1.00  0.00    -0.360 OA
HETATM   20  H6  UNK     1      17.593  -0.268  34.534  1.00  0.00     0.217 HD
ENDBRANCH   6  19
BRANCH  10  21
HETATM   21  O5  UNK     1      21.393  -3.664  32.469  1.00  0.00    -0.361 OA
HETATM   22  H10 UNK     1      22.017  -3.620  31.725  1.00  0.00     0.217 HD
ENDBRANCH  10  21
TORSDOF 4
ENDMDL
MODEL 5
REMARK VINA RESULT:      -7.7     22.528     24.681
REMARK  4 active torsions:
REMARK  status: ('A' for Active; 'I' for Inactive)
REMARK    1  A    between atoms: C10_15  and  O2_2 
REMARK    2  A    between atoms: C5_10  and  O2_2 
REMARK    3  A    between atoms: C4_9  and  O3_3 
REMARK    4  A    between atoms: C8_13  and  O5_5 
ROOT
HETATM    1  O1  UNK     1      11.562   5.264  10.010  1.00  0.00    -0.319 OA
HETATM    2  O4  UNK     1      12.936   6.614   6.410  1.00  0.00    -0.284 OA
HETATM    3  C1  UNK     1      11.065   6.056   7.765  1.00  0.00     0.084 A 
HETATM    4  C2  UNK     1      10.668   5.590   9.020  1.00  0.00     0.094 A 
HETATM    5  C3  UNK     1      12.505   6.210   7.481  1.00  0.00     0.223 A 
HETATM    6  C4  UNK     1      10.111   6.373   6.795  1.00  0.00     0.085 A 
HETATM    7  C5  UNK     1      13.424   5.846   8.582  1.00  0.00     0.149 A 
HETATM    8  C6  UNK     1       9.312   5.436   9.310  1.00  0.00     0.074 A 
HETATM    9  C7  UNK     1       8.755   6.218   7.090  1.00  0.00     0.074 A 
HETATM   10  C8  UNK     1       8.356   5.751   8.343  1.00  0.00     0.071 A 
HETATM   11  C9  UNK     1      12.899   5.413   9.732  1.00  0.00     0.184 A 
ENDROOT
BRANCH   7  12
HETATM   12  O2  UNK     1      14.782   5.961   8.399  1.00  0.00    -0.305 OA
BRANCH  12  13
HETATM   13  C10 UNK     1      15.431   6.910   9.139  1.00  0.00     0.076 A 
HETATM   14  C11 UNK     1      16.562   6.561   9.872  1.00  0.00     0.037 A 
HETATM   15  C13 UNK     1      17.224   7.528  10.628  1.00  0.00     0.003 A 
HETATM   16  C15 UNK     1      16.751   8.840  10.648  1.00  0.00     0.000 A 
HETATM   17  C14 UNK     1      15.618   9.185   9.913  1.00  0.00     0.003 A 
HETATM   18  C12 UNK     1      14.956   8.218   9.156  1.00  0.00     0.037 A 
ENDBRANCH  12  13
ENDBRANCH   7  12
BRANCH   6  19
HETATM   19  O3  UNK     1      10.445   6.831   5.557  1.00  0.00    -0.360 OA
HETATM   20  H6  UNK     1      10.939   6.155   5.068  1.00  0.00     0.217 HD
ENDBRANCH   6  19
BRANCH  10  21
HETATM   21  O5  UNK     1       7.032   5.602   8.622  1.00  0.00    -0.361 OA
HETATM   22  H10 UNK     1       6.561   5.375   7.803  1.00  0.00     0.217 HD
ENDBRANCH  10  21
TORSDOF 4
ENDMDL
MODEL 6
REMARK VINA RESULT:      -7.7     22.308     24.401
REMARK  4 active torsions:
REMARK  status: ('A' for Active; 'I' for Inactive)
REMARK    1  A    between atoms: C10_15  and  O2_2 
REMARK    2  A    between atoms: C5_10  and  O2_2 
REMARK    3  A    between atoms: C4_9  and  O3_3 
REMARK    4  A    between atoms: C8_13  and  O5_5 
ROOT
HETATM    1  O1  UNK     1      12.141   6.355   6.799  1.00  0.00    -0.319 OA
HETATM    2  O4  UNK     1      11.649   4.969  10.608  1.00  0.00    -0.284 OA
HETATM    3  C1  UNK     1      10.635   5.799   8.626  1.00  0.00     0.084 A 
HETATM    4  C2  UNK     1      10.878   6.263   7.332  1.00  0.00     0.094 A 
HETATM    5  C3  UNK     1      11.775   5.387   9.466  1.00  0.00     0.223 A 
HETATM    6  C4  UNK     1       9.328   5.726   9.115  1.00  0.00     0.085 A 
HETATM    7  C5  UNK     1      13.113   5.507   8.844  1.00  0.00     0.149 A 
HETATM    8  C6  UNK     1       9.814   6.658   6.520  1.00  0.00     0.074 A 
HETATM    9  C7  UNK     1       8.266   6.122   8.299  1.00  0.00     0.074 A 
HETATM   10  C8  UNK     1       8.508   6.586   7.006  1.00  0.00     0.071 A 
HETATM   11  C9  UNK     1      13.194   5.968   7.592  1.00  0.00     0.184 A 
ENDROOT
BRANCH   7  12
HETATM   12  O2  UNK     1      14.229   5.143   9.560  1.00  0.00    -0.305 OA
BRANCH  12  13
HETATM   13  C10 UNK     1      15.108   6.138   9.887  1.00  0.00     0.076 A 
HETATM   14  C11 UNK     1      16.453   6.010   9.549  1.00  0.00     0.037 A 
HETATM   15  C13 UNK     1      17.351   7.024   9.883  1.00  0.00     0.003 A 
HETATM   16  C15 UNK     1      16.900   8.160  10.555  1.00  0.00     0.000 A 
HETATM   17  C14 UNK     1      15.552   8.283  10.892  1.00  0.00     0.003 A 
HETATM   18  C12 UNK     1      14.655   7.269  10.557  1.00  0.00     0.037 A 
ENDBRANCH  12  13
ENDBRANCH   7  12
BRANCH   6  19
HETATM   19  O3  UNK     1       9.036   5.281  10.368  1.00  0.00    -0.360 OA
HETATM   20  H6  UNK     1       9.096   6.008  11.008  1.00  0.00     0.217 HD
ENDBRANCH   6  19
BRANCH  10  21
HETATM   21  O5  UNK     1       7.467   6.971   6.217  1.00  0.00    -0.361 OA
HETATM   22  H10 UNK     1       6.673   7.069   6.768  1.00  0.00     0.217 HD
ENDBRANCH  10  21
TORSDOF 4
ENDMDL
MODEL 7
REMARK VINA RESULT:      -7.6     23.106     25.163
REMARK  4 active torsions:
REMARK  status: ('A' for Active; 'I' for Inactive)
REMARK    1  A    between atoms: C10_15  and  O2_2 
REMARK    2  A    between atoms: C5_10  and  O2_2 
REMARK    3  A    between atoms: C4_9  and  O3_3 
REMARK    4  A    between atoms: C8_13  and  O5_5 
ROOT
HETATM    1  O1  UNK     1      11.305   7.942   9.825  1.00  0.00    -0.319 OA
HETATM    2  O4  UNK     1      13.763   6.803   6.771  1.00  0.00    -0.284 OA
HETATM    3  C1  UNK     1      11.541   7.057   7.573  1.00  0.00     0.084 A 
HETATM    4  C2  UNK     1      10.763   7.465   8.658  1.00  0.00     0.094 A 
HETATM    5  C3  UNK     1      13.010   7.138   7.674  1.00  0.00     0.223 A 
HETATM    6  C4  UNK     1      10.934   6.580   6.408  1.00  0.00     0.085 A 
HETATM    7  C5  UNK     1      13.542   7.659   8.953  1.00  0.00     0.149 A 
HETATM    8  C6  UNK     1       9.371   7.396   8.583  1.00  0.00     0.074 A 
HETATM    9  C7  UNK     1       9.541   6.513   6.338  1.00  0.00     0.074 A 
HETATM   10  C8  UNK     1       8.761   6.919   7.422  1.00  0.00     0.071 A 
HETATM   11  C9  UNK     1      12.675   8.013   9.906  1.00  0.00     0.184 A 
ENDROOT
BRANCH   7  12
HETATM   12  O2  UNK     1      14.902   7.767   9.129  1.00  0.00    -0.305 OA
BRANCH  12  13
HETATM   13  C10 UNK     1      15.410   9.027   9.286  1.00  0.00     0.076 A 
HETATM   14  C11 UNK     1      15.154  10.000   8.323  1.00  0.00     0.037 A 
HETATM   15  C13 UNK     1      15.673  11.285   8.482  1.00  0.00     0.003 A 
HETATM   16  C15 UNK     1      16.445  11.591   9.603  1.00  0.00     0.000 A 
HETATM   17  C14 UNK     1      16.698  10.613  10.564  1.00  0.00     0.003 A 
HETATM   18  C12 UNK     1      16.180   9.328  10.405  1.00  0.00     0.037 A 
ENDBRANCH  12  13
ENDBRANCH   7  12
BRANCH   6  19
HETATM   19  O3  UNK     1      11.646   6.169   5.323  1.00  0.00    -0.360 OA
HETATM   20  H6  UNK     1      11.981   6.934   4.829  1.00  0.00     0.217 HD
ENDBRANCH   6  19
BRANCH  10  21
HETATM   21  O5  UNK     1       7.404   6.851   7.346  1.00  0.00    -0.361 OA
HETATM   22  H10 UNK     1       7.092   7.491   6.684  1.00  0.00     0.217 HD
ENDBRANCH  10  21
TORSDOF 4
ENDMDL
MODEL 8
REMARK VINA RESULT:      -7.6     22.125     24.264
REMARK  4 active torsions:
REMARK  status: ('A' for Active; 'I' for Inactive)
REMARK    1  A    between atoms: C10_15  and  O2_2 
REMARK    2  A    between atoms: C5_10  and  O2_2 
REMARK    3  A    between atoms: C4_9  and  O3_3 
REMARK    4  A    between atoms: C8_13  and  O5_5 
ROOT
HETATM    1  O1  UNK     1      14.419   4.863   9.295  1.00  0.00    -0.319 OA
HETATM    2  O4  UNK     1      12.020   8.032  10.227  1.00  0.00    -0.284 OA
HETATM    3  C1  UNK     1      14.225   7.161  10.065  1.00  0.00     0.084 A 
HETATM    4  C2  UNK     1      14.983   6.038   9.728  1.00  0.00     0.094 A 
HETATM    5  C3  UNK     1      12.756   7.094   9.953  1.00  0.00     0.223 A 
HETATM    6  C4  UNK     1      14.853   8.331  10.500  1.00  0.00     0.085 A 
HETATM    7  C5  UNK     1      12.201   5.806   9.482  1.00  0.00     0.149 A 
HETATM    8  C6  UNK     1      16.374   6.079   9.827  1.00  0.00     0.074 A 
HETATM    9  C7  UNK     1      16.245   8.369  10.597  1.00  0.00     0.074 A 
HETATM   10  C8  UNK     1      17.004   7.247  10.261  1.00  0.00     0.071 A 
HETATM   11  C9  UNK     1      13.050   4.814   9.195  1.00  0.00     0.184 A 
ENDROOT
BRANCH   7  12
HETATM   12  O2  UNK     1      10.840   5.660   9.350  1.00  0.00    -0.305 OA
BRANCH  12  13
HETATM   13  C10 UNK     1      10.300   5.952   8.128  1.00  0.00     0.076 A 
HETATM   14  C11 UNK     1       8.960   6.322   8.035  1.00  0.00     0.037 A 
HETATM   15  C13 UNK     1       8.408   6.618   6.789  1.00  0.00     0.003 A 
HETATM   16  C15 UNK     1       9.197   6.543   5.641  1.00  0.00     0.000 A 
HETATM   17  C14 UNK     1      10.538   6.171   5.739  1.00  0.00     0.003 A 
HETATM   18  C12 UNK     1      11.090   5.875   6.986  1.00  0.00     0.037 A 
ENDBRANCH  12  13
ENDBRANCH   7  12
BRANCH   6  19
HETATM   19  O3  UNK     1      14.161   9.453  10.840  1.00  0.00    -0.360 OA
HETATM   20  H6  UNK     1      14.598   9.911  11.575  1.00  0.00     0.217 HD
ENDBRANCH   6  19
BRANCH  10  21
HETATM   21  O5  UNK     1      18.361   7.290  10.359  1.00  0.00    -0.361 OA
HETATM   22  H10 UNK     1      18.728   6.450  10.036  1.00  0.00     0.217 HD
ENDBRANCH  10  21
TORSDOF 4
ENDMDL
MODEL 9
REMARK VINA RESULT:      -7.5      1.923      6.749
REMARK  4 active torsions:
REMARK  status: ('A' for Active; 'I' for Inactive)
REMARK    1  A    between atoms: C10_15  and  O2_2 
REMARK    2  A    between atoms: C5_10  and  O2_2 
REMARK    3  A    between atoms: C4_9  and  O3_3 
REMARK    4  A    between atoms: C8_13  and  O5_5 
ROOT
HETATM    1  O1  UNK     1      18.033   3.141  33.388  1.00  0.00    -0.319 OA
HETATM    2  O4  UNK     1      18.954   4.168  29.546  1.00  0.00    -0.284 OA
HETATM    3  C1  UNK     1      18.771   4.843  31.817  1.00  0.00     0.084 A 
HETATM    4  C2  UNK     1      18.441   4.421  33.106  1.00  0.00     0.094 A 
HETATM    5  C3  UNK     1      18.682   3.880  30.703  1.00  0.00     0.223 A 
HETATM    6  C4  UNK     1      19.182   6.159  31.589  1.00  0.00     0.085 A 
HETATM    7  C5  UNK     1      18.237   2.515  31.062  1.00  0.00     0.149 A 
HETATM    8  C6  UNK     1      18.519   5.315  34.175  1.00  0.00     0.074 A 
HETATM    9  C7  UNK     1      19.258   7.050  32.661  1.00  0.00     0.074 A 
HETATM   10  C8  UNK     1      18.928   6.630  33.950  1.00  0.00     0.071 A 
HETATM   11  C9  UNK     1      17.954   2.254  32.342  1.00  0.00     0.184 A 
ENDROOT
BRANCH   7  12
HETATM   12  O2  UNK     1      18.127   1.557  30.082  1.00  0.00    -0.305 OA
BRANCH  12  13
HETATM   13  C10 UNK     1      19.060   0.558  30.082  1.00  0.00     0.076 A 
HETATM   14  C11 UNK     1      19.329  -0.136  31.259  1.00  0.00     0.037 A 
HETATM   15  C13 UNK     1      20.282  -1.155  31.260  1.00  0.00     0.003 A 
HETATM   16  C15 UNK     1      20.961  -1.475  30.084  1.00  0.00     0.000 A 
HETATM   17  C14 UNK     1      20.688  -0.777  28.908  1.00  0.00     0.003 A 
HETATM   18  C12 UNK     1      19.736   0.242  28.907  1.00  0.00     0.037 A 
ENDBRANCH  12  13
ENDBRANCH   7  12
BRANCH   6  19
HETATM   19  O3  UNK     1      19.515   6.621  30.352  1.00  0.00    -0.360 OA
HETATM   20  H6  UNK     1      19.441   7.587  30.320  1.00  0.00     0.217 HD
ENDBRANCH   6  19
BRANCH  10  21
HETATM   21  O5  UNK     1      19.004   7.505  34.990  1.00  0.00    -0.361 OA
HETATM   22  H10 UNK     1      19.845   7.367  35.457  1.00  0.00     0.217 HD
ENDBRANCH  10  21
TORSDOF 4
ENDMDL
MODEL 10
REMARK VINA RESULT:      -7.5      5.450      7.153
REMARK  4 active torsions:
REMARK  status: ('A' for Active; 'I' for Inactive)
REMARK    1  A    between atoms: C10_15  and  O2_2 
REMARK    2  A    between atoms: C5_10  and  O2_2 
REMARK    3  A    between atoms: C4_9  and  O3_3 
REMARK    4  A    between atoms: C8_13  and  O5_5 
ROOT
HETATM    1  O1  UNK     1      19.343   6.954  34.187  1.00  0.00    -0.319 OA
HETATM    2  O4  UNK     1      16.507   7.120  31.255  1.00  0.00    -0.284 OA
HETATM    3  C1  UNK     1      18.765   6.669  31.842  1.00  0.00     0.084 A 
HETATM    4  C2  UNK     1      19.681   6.634  32.895  1.00  0.00     0.094 A 
HETATM    5  C3  UNK     1      17.371   7.065  32.119  1.00  0.00     0.223 A 
HETATM    6  C4  UNK     1      19.165   6.333  30.547  1.00  0.00     0.085 A 
HETATM    7  C5  UNK     1      17.060   7.398  33.527  1.00  0.00     0.149 A 
HETATM    8  C6  UNK     1      21.005   6.263  32.656  1.00  0.00     0.074 A 
HETATM    9  C7  UNK     1      20.491   5.962  30.312  1.00  0.00     0.074 A 
HETATM   10  C8  UNK     1      21.408   5.927  31.363  1.00  0.00     0.071 A 
HETATM   11  C9  UNK     1      18.041   7.320  34.431  1.00  0.00     0.184 A 
ENDROOT
BRANCH   7  12
HETATM   12  O2  UNK     1      15.783   7.776  33.869  1.00  0.00    -0.305 OA
BRANCH  12  13
HETATM   13  C10 UNK     1      15.490   9.110  33.798  1.00  0.00     0.076 A 
HETATM   14  C11 UNK     1      14.337   9.529  33.139  1.00  0.00     0.037 A 
HETATM   15  C13 UNK     1      14.038  10.890  33.066  1.00  0.00     0.003 A 
HETATM   16  C15 UNK     1      14.892  11.824  33.652  1.00  0.00     0.000 A 
HETATM   17  C14 UNK     1      16.045  11.399  34.311  1.00  0.00     0.003 A 
HETATM   18  C12 UNK     1      16.345  10.038  34.384  1.00  0.00     0.037 A 
ENDBRANCH  12  13
ENDBRANCH   7  12
BRANCH   6  19
HETATM   19  O3  UNK     1      18.313   6.351  29.486  1.00  0.00    -0.360 OA
HETATM   20  H6  UNK     1      18.552   7.061  28.870  1.00  0.00     0.217 HD
ENDBRANCH   6  19
BRANCH  10  21
HETATM   21  O5  UNK     1      22.699   5.565  31.126  1.00  0.00    -0.361 OA
HETATM   22  H10 UNK     1      22.743   5.091  30.279  1.00  0.00     0.217 HD
ENDBRANCH  10  21
TORSDOF 4
ENDMDL
