MODEL 1
REMARK VINA RESULT:      -9.3      0.000      0.000
REMARK  10 active torsions:
REMARK  status: ('A' for Active; 'I' for Inactive)
REMARK    1  A    between atoms: C3_10  and  O1_1 
REMARK    2  A    between atoms: C7_14  and  O1_1 
REMARK    3  A    between atoms: C5_12  and  O2_2 
REMARK    4  A    between atoms: C8_15  and  O2_2 
REMARK    5  A    between atoms: C20_27  and  O3_3 
REMARK    6  A    between atoms: C4_11  and  O3_3 
REMARK    7  A    between atoms: C23_30  and  N1_6 
REMARK    8  A    between atoms: C15_22  and  C6_13 
REMARK    9  A    between atoms: C7_14  and  C8_15 
REMARK   10  A    between atoms: C18_25  and  C19_26 
ROOT
HETATM    1  N2  UNK     1      14.402   6.945  31.719  1.00  0.00    -0.191 NA
HETATM    2  C15 UNK     1      17.541   7.573  32.999  1.00  0.00     0.035 C 
HETATM    3  C18 UNK     1      16.292   8.106  33.073  1.00  0.00     0.055 C 
HETATM    4  C27 UNK     1      15.252   7.456  32.320  1.00  0.00     0.100 C 
ENDROOT
BRANCH   3   5
HETATM    5  C19 UNK     1      15.958   9.277  33.869  1.00  0.00    -0.015 A 
HETATM    6  C21 UNK     1      14.705   9.373  34.477  1.00  0.00     0.015 A 
HETATM    7  C24 UNK     1      14.386  10.495  35.241  1.00  0.00     0.037 A 
HETATM    8  C23 UNK     1      15.318  11.520  35.398  1.00  0.00     0.102 A 
HETATM    9  C25 UNK     1      16.570  11.425  34.791  1.00  0.00     0.037 A 
HETATM   10  C22 UNK     1      16.890  10.302  34.027  1.00  0.00     0.015 A 
BRANCH   8  11
HETATM   11  N1  UNK     1      14.993  12.664  36.176  1.00  0.00    -0.116 N 
HETATM   12  O4  UNK     1      15.840  13.106  36.990  1.00  0.00    -0.532 OA
HETATM   13  O5  UNK     1      13.870  13.201  36.028  1.00  0.00    -0.532 OA
ENDBRANCH   8  11
ENDBRANCH   3   5
BRANCH   2  14
HETATM   14  C6  UNK     1      17.921   6.389  32.214  1.00  0.00    -0.032 A 
HETATM   15  C10 UNK     1      17.712   5.111  32.734  1.00  0.00     0.051 A 
HETATM   16  C4  UNK     1      18.073   3.989  31.989  1.00  0.00     0.102 A 
HETATM   17  C3  UNK     1      18.642   4.143  30.725  1.00  0.00     0.102 A 
HETATM   18  C11 UNK     1      18.850   5.421  30.205  1.00  0.00     0.040 A 
HETATM   19  C13 UNK     1      18.490   6.544  30.949  1.00  0.00     0.014 A 
BRANCH  16  20
HETATM   20  O3  UNK     1      17.866   2.746  32.508  1.00  0.00    -0.349 OA
BRANCH  20  21
HETATM   21  C20 UNK     1      18.243   2.540  33.867  1.00  0.00     0.171 C 
HETATM   22  C26 UNK     1      17.519   1.323  34.401  1.00  0.00     0.034 C 
ENDBRANCH  20  21
ENDBRANCH  16  20
BRANCH  17  23
HETATM   23  O1  UNK     1      18.998   3.054  29.988  1.00  0.00    -0.346 OA
BRANCH  23  24
HETATM   24  C7  UNK     1      18.061   2.595  29.015  1.00  0.00     0.202 C 
BRANCH  24  25
HETATM   25  C8  UNK     1      18.337   1.135  28.713  1.00  0.00     0.202 C 
BRANCH  25  26
HETATM   26  O2  UNK     1      19.713   0.864  28.953  1.00  0.00    -0.349 OA
BRANCH  26  27
HETATM   27  C5  UNK     1      20.000  -0.242  29.709  1.00  0.00     0.069 A 
HETATM   28  C14 UNK     1      20.729  -1.295  29.157  1.00  0.00     0.037 A 
HETATM   29  C12 UNK     1      21.020  -2.421  29.928  1.00  0.00     0.010 A 
HETATM   30  C2  UNK     1      20.582  -2.493  31.250  1.00  0.00    -0.056 A 
HETATM   31  C1  UNK     1      19.853  -1.439  31.802  1.00  0.00    -0.053 A 
HETATM   32  C17 UNK     1      20.907  -3.708  32.055  1.00  0.00     0.049 C 
HETATM   33  C9  UNK     1      19.562  -0.314  31.031  1.00  0.00     0.044 A 
HETATM   34  C16 UNK     1      19.374  -1.494  33.215  1.00  0.00     0.049 C 
ENDBRANCH  26  27
ENDBRANCH  25  26
ENDBRANCH  24  25
ENDBRANCH  23  24
ENDBRANCH  17  23
ENDBRANCH   2  14
TORSDOF 10
ENDMDL
MODEL 2
REMARK VINA RESULT:      -9.0      5.756     12.438
REMARK  10 active torsions:
REMARK  status: ('A' for Active; 'I' for Inactive)
REMARK    1  A    between atoms: C3_10  and  O1_1 
REMARK    2  A    between atoms: C7_14  and  O1_1 
REMARK    3  A    between atoms: C5_12  and  O2_2 
REMARK    4  A    between atoms: C8_15  and  O2_2 
REMARK    5  A    between atoms: C20_27  and  O3_3 
REMARK    6  A    between atoms: C4_11  and  O3_3 
REMARK    7  A    between atoms: C23_30  and  N1_6 
REMARK    8  A    between atoms: C15_22  and  C6_13 
REMARK    9  A    between atoms: C7_14  and  C8_15 
REMARK   10  A    between atoms: C18_25  and  C19_26 
ROOT
HETATM    1  N2  UNK     1      21.976  -1.745  35.341  1.00  0.00    -0.191 NA
HETATM    2  C15 UNK     1      18.653  -2.319  36.058  1.00  0.00     0.035 C 
HETATM    3  C18 UNK     1      19.848  -2.943  36.232  1.00  0.00     0.055 C 
HETATM    4  C27 UNK     1      21.021  -2.273  35.736  1.00  0.00     0.100 C 
ENDROOT
BRANCH   3   5
HETATM    5  C19 UNK     1      20.000  -4.231  36.890  1.00  0.00    -0.015 A 
HETATM    6  C21 UNK     1      19.043  -5.229  36.700  1.00  0.00     0.015 A 
HETATM    7  C24 UNK     1      19.189  -6.464  37.331  1.00  0.00     0.037 A 
HETATM    8  C23 UNK     1      20.293  -6.703  38.149  1.00  0.00     0.102 A 
HETATM    9  C25 UNK     1      21.250  -5.706  38.339  1.00  0.00     0.037 A 
HETATM   10  C22 UNK     1      21.103  -4.471  37.709  1.00  0.00     0.015 A 
BRANCH   8  11
HETATM   11  N1  UNK     1      20.442  -7.961  38.791  1.00  0.00    -0.116 N 
HETATM   12  O4  UNK     1      21.515  -8.214  39.392  1.00  0.00    -0.532 OA
HETATM   13  O5  UNK     1      19.497  -8.785  38.742  1.00  0.00    -0.532 OA
ENDBRANCH   8  11
ENDBRANCH   3   5
BRANCH   2  14
HETATM   14  C6  UNK     1      18.455  -1.015  35.406  1.00  0.00    -0.032 A 
HETATM   15  C10 UNK     1      18.654  -0.886  34.031  1.00  0.00     0.051 A 
HETATM   16  C4  UNK     1      18.466   0.350  33.413  1.00  0.00     0.102 A 
HETATM   17  C3  UNK     1      18.078   1.456  34.169  1.00  0.00     0.102 A 
HETATM   18  C11 UNK     1      17.878   1.326  35.544  1.00  0.00     0.040 A 
HETATM   19  C13 UNK     1      18.066   0.091  36.162  1.00  0.00     0.014 A 
BRANCH  16  20
HETATM   20  O3  UNK     1      18.665   0.465  32.070  1.00  0.00    -0.349 OA
BRANCH  20  21
HETATM   21  C20 UNK     1      19.393  -0.582  31.431  1.00  0.00     0.171 C 
HETATM   22  C26 UNK     1      20.443   0.027  30.527  1.00  0.00     0.034 C 
ENDBRANCH  20  21
ENDBRANCH  16  20
BRANCH  17  23
HETATM   23  O1  UNK     1      17.890   2.668  33.576  1.00  0.00    -0.346 OA
BRANCH  23  24
HETATM   24  C7  UNK     1      18.612   3.773  34.118  1.00  0.00     0.202 C 
BRANCH  24  25
HETATM   25  C8  UNK     1      18.212   5.035  33.380  1.00  0.00     0.202 C 
BRANCH  25  26
HETATM   26  O2  UNK     1      17.510   5.893  34.271  1.00  0.00    -0.349 OA
BRANCH  26  27
HETATM   27  C5  UNK     1      17.783   7.232  34.181  1.00  0.00     0.069 A 
HETATM   28  C14 UNK     1      16.764   8.133  33.873  1.00  0.00     0.037 A 
HETATM   29  C12 UNK     1      17.043   9.496  33.780  1.00  0.00     0.010 A 
HETATM   30  C2  UNK     1      18.341   9.959  33.996  1.00  0.00    -0.056 A 
HETATM   31  C1  UNK     1      19.360   9.058  34.304  1.00  0.00    -0.053 A 
HETATM   32  C17 UNK     1      18.615  11.423  33.892  1.00  0.00     0.049 C 
HETATM   33  C9  UNK     1      19.081   7.695  34.396  1.00  0.00     0.044 A 
HETATM   34  C16 UNK     1      20.757   9.530  34.539  1.00  0.00     0.049 C 
ENDBRANCH  26  27
ENDBRANCH  25  26
ENDBRANCH  24  25
ENDBRANCH  23  24
ENDBRANCH  17  23
ENDBRANCH   2  14
TORSDOF 10
ENDMDL
MODEL 3
REMARK VINA RESULT:      -8.8      6.021     12.261
REMARK  10 active torsions:
REMARK  status: ('A' for Active; 'I' for Inactive)
REMARK    1  A    between atoms: C3_10  and  O1_1 
REMARK    2  A    between atoms: C7_14  and  O1_1 
REMARK    3  A    between atoms: C5_12  and  O2_2 
REMARK    4  A    between atoms: C8_15  and  O2_2 
REMARK    5  A    between atoms: C20_27  and  O3_3 
REMARK    6  A    between atoms: C4_11  and  O3_3 
REMARK    7  A    between atoms: C23_30  and  N1_6 
REMARK    8  A    between atoms: C15_22  and  C6_13 
REMARK    9  A    between atoms: C7_14  and  C8_15 
REMARK   10  A    between atoms: C18_25  and  C19_26 
ROOT
HETATM    1  N2  UNK     1      22.010  -2.005  35.376  1.00  0.00    -0.191 NA
HETATM    2  C15 UNK     1      18.864  -2.888  36.476  1.00  0.00     0.035 C 
HETATM    3  C18 UNK     1      20.136  -3.359  36.563  1.00  0.00     0.055 C 
HETATM    4  C27 UNK     1      21.167  -2.603  35.903  1.00  0.00     0.100 C 
ENDROOT
BRANCH   3   5
HETATM    5  C19 UNK     1      20.503  -4.567  37.286  1.00  0.00    -0.015 A 
HETATM    6  C21 UNK     1      19.600  -5.626  37.379  1.00  0.00     0.015 A 
HETATM    7  C24 UNK     1      19.953  -6.785  38.070  1.00  0.00     0.037 A 
HETATM    8  C23 UNK     1      21.209  -6.885  38.668  1.00  0.00     0.102 A 
HETATM    9  C25 UNK     1      22.112  -5.827  38.576  1.00  0.00     0.037 A 
HETATM   10  C22 UNK     1      21.759  -4.668  37.884  1.00  0.00     0.015 A 
BRANCH   8  11
HETATM   11  N1  UNK     1      21.568  -8.065  39.373  1.00  0.00    -0.116 N 
HETATM   12  O4  UNK     1      20.730  -8.993  39.472  1.00  0.00    -0.532 OA
HETATM   13  O5  UNK     1      22.715  -8.148  39.875  1.00  0.00    -0.532 OA
ENDBRANCH   8  11
ENDBRANCH   3   5
BRANCH   2  14
HETATM   14  C6  UNK     1      18.449  -1.670  35.763  1.00  0.00    -0.032 A 
HETATM   15  C10 UNK     1      18.647  -1.567  34.386  1.00  0.00     0.051 A 
HETATM   16  C4  UNK     1      18.254  -0.411  33.710  1.00  0.00     0.102 A 
HETATM   17  C3  UNK     1      17.663   0.640  34.411  1.00  0.00     0.102 A 
HETATM   18  C11 UNK     1      17.466   0.536  35.789  1.00  0.00     0.040 A 
HETATM   19  C13 UNK     1      17.859  -0.619  36.464  1.00  0.00     0.014 A 
BRANCH  16  20
HETATM   20  O3  UNK     1      18.452  -0.321  32.366  1.00  0.00    -0.349 OA
BRANCH  20  21
HETATM   21  C20 UNK     1      19.486  -1.130  31.807  1.00  0.00     0.171 C 
HETATM   22  C26 UNK     1      20.317  -0.288  30.864  1.00  0.00     0.034 C 
ENDBRANCH  20  21
ENDBRANCH  16  20
BRANCH  17  23
HETATM   23  O1  UNK     1      17.274   1.773  33.763  1.00  0.00    -0.346 OA
BRANCH  23  24
HETATM   24  C7  UNK     1      18.277   2.760  33.524  1.00  0.00     0.202 C 
BRANCH  24  25
HETATM   25  C8  UNK     1      18.226   3.175  32.067  1.00  0.00     0.202 C 
BRANCH  25  26
HETATM   26  O2  UNK     1      17.535   4.414  31.961  1.00  0.00    -0.349 OA
BRANCH  26  27
HETATM   27  C5  UNK     1      18.103   5.491  32.590  1.00  0.00     0.069 A 
HETATM   28  C14 UNK     1      19.427   5.837  32.322  1.00  0.00     0.037 A 
HETATM   29  C12 UNK     1      20.004   6.933  32.963  1.00  0.00     0.010 A 
HETATM   30  C2  UNK     1      19.257   7.683  33.871  1.00  0.00    -0.056 A 
HETATM   31  C1  UNK     1      17.933   7.337  34.139  1.00  0.00    -0.053 A 
HETATM   32  C17 UNK     1      19.898   8.853  34.544  1.00  0.00     0.049 C 
HETATM   33  C9  UNK     1      17.356   6.240  33.499  1.00  0.00     0.044 A 
HETATM   34  C16 UNK     1      17.114   8.125  35.108  1.00  0.00     0.049 C 
ENDBRANCH  26  27
ENDBRANCH  25  26
ENDBRANCH  24  25
ENDBRANCH  23  24
ENDBRANCH  17  23
ENDBRANCH   2  14
TORSDOF 10
ENDMDL
MODEL 4
REMARK VINA RESULT:      -8.8      2.478      4.762
REMARK  10 active torsions:
REMARK  status: ('A' for Active; 'I' for Inactive)
REMARK    1  A    between atoms: C3_10  and  O1_1 
REMARK    2  A    between atoms: C7_14  and  O1_1 
REMARK    3  A    between atoms: C5_12  and  O2_2 
REMARK    4  A    between atoms: C8_15  and  O2_2 
REMARK    5  A    between atoms: C20_27  and  O3_3 
REMARK    6  A    between atoms: C4_11  and  O3_3 
REMARK    7  A    between atoms: C23_30  and  N1_6 
REMARK    8  A    between atoms: C15_22  and  C6_13 
REMARK    9  A    between atoms: C7_14  and  C8_15 
REMARK   10  A    between atoms: C18_25  and  C19_26 
ROOT
HETATM    1  N2  UNK     1      21.371   6.140  32.667  1.00  0.00    -0.191 NA
HETATM    2  C15 UNK     1      17.942   5.948  32.969  1.00  0.00     0.035 C 
HETATM    3  C18 UNK     1      18.921   6.880  33.119  1.00  0.00     0.055 C 
HETATM    4  C27 UNK     1      20.274   6.462  32.867  1.00  0.00     0.100 C 
ENDROOT
BRANCH   3   5
HETATM    5  C19 UNK     1      18.672   8.259  33.510  1.00  0.00    -0.015 A 
HETATM    6  C21 UNK     1      19.701   9.024  34.060  1.00  0.00     0.015 A 
HETATM    7  C24 UNK     1      19.462  10.347  34.434  1.00  0.00     0.037 A 
HETATM    8  C23 UNK     1      18.196  10.904  34.257  1.00  0.00     0.102 A 
HETATM    9  C25 UNK     1      17.167  10.139  33.707  1.00  0.00     0.037 A 
HETATM   10  C22 UNK     1      17.406   8.817  33.334  1.00  0.00     0.015 A 
BRANCH   8  11
HETATM   11  N1  UNK     1      17.952  12.251  34.637  1.00  0.00    -0.116 N 
HETATM   12  O4  UNK     1      17.270  12.478  35.666  1.00  0.00    -0.532 OA
HETATM   13  O5  UNK     1      18.427  13.176  33.936  1.00  0.00    -0.532 OA
ENDBRANCH   8  11
ENDBRANCH   3   5
BRANCH   2  14
HETATM   14  C6  UNK     1      18.147   4.548  32.569  1.00  0.00    -0.032 A 
HETATM   15  C10 UNK     1      18.428   4.237  31.238  1.00  0.00     0.051 A 
HETATM   16  C4  UNK     1      18.622   2.908  30.860  1.00  0.00     0.102 A 
HETATM   17  C3  UNK     1      18.537   1.892  31.811  1.00  0.00     0.102 A 
HETATM   18  C11 UNK     1      18.257   2.204  33.142  1.00  0.00     0.040 A 
HETATM   19  C13 UNK     1      18.062   3.532  33.520  1.00  0.00     0.014 A 
BRANCH  16  20
HETATM   20  O3  UNK     1      18.894   2.616  29.557  1.00  0.00    -0.349 OA
BRANCH  20  21
HETATM   21  C20 UNK     1      17.841   2.038  28.789  1.00  0.00     0.171 C 
HETATM   22  C26 UNK     1      18.305   0.707  28.237  1.00  0.00     0.034 C 
ENDBRANCH  20  21
ENDBRANCH  16  20
BRANCH  17  23
HETATM   23  O1  UNK     1      18.726   0.591  31.453  1.00  0.00    -0.346 OA
BRANCH  23  24
HETATM   24  C7  UNK     1      19.752  -0.127  32.135  1.00  0.00     0.202 C 
BRANCH  24  25
HETATM   25  C8  UNK     1      19.159  -1.383  32.741  1.00  0.00     0.202 C 
BRANCH  25  26
HETATM   26  O2  UNK     1      19.273  -1.315  34.157  1.00  0.00    -0.349 OA
BRANCH  26  27
HETATM   27  C5  UNK     1      18.229  -0.740  34.832  1.00  0.00     0.069 A 
HETATM   28  C14 UNK     1      16.932  -0.838  34.327  1.00  0.00     0.037 A 
HETATM   29  C12 UNK     1      15.870  -0.252  35.014  1.00  0.00     0.010 A 
HETATM   30  C2  UNK     1      16.104   0.434  36.206  1.00  0.00    -0.056 A 
HETATM   31  C1  UNK     1      17.400   0.532  36.711  1.00  0.00    -0.053 A 
HETATM   32  C17 UNK     1      14.950   1.053  36.924  1.00  0.00     0.049 C 
HETATM   33  C9  UNK     1      18.462  -0.054  36.024  1.00  0.00     0.044 A 
HETATM   34  C16 UNK     1      17.675   1.260  37.986  1.00  0.00     0.049 C 
ENDBRANCH  26  27
ENDBRANCH  25  26
ENDBRANCH  24  25
ENDBRANCH  23  24
ENDBRANCH  17  23
ENDBRANCH   2  14
TORSDOF 10
ENDMDL
MODEL 5
REMARK VINA RESULT:      -8.5      5.913     12.030
REMARK  10 active torsions:
REMARK  status: ('A' for Active; 'I' for Inactive)
REMARK    1  A    between atoms: C3_10  and  O1_1 
REMARK    2  A    between atoms: C7_14  and  O1_1 
REMARK    3  A    between atoms: C5_12  and  O2_2 
REMARK    4  A    between atoms: C8_15  and  O2_2 
REMARK    5  A    between atoms: C20_27  and  O3_3 
REMARK    6  A    between atoms: C4_11  and  O3_3 
REMARK    7  A    between atoms: C23_30  and  N1_6 
REMARK    8  A    between atoms: C15_22  and  C6_13 
REMARK    9  A    between atoms: C7_14  and  C8_15 
REMARK   10  A    between atoms: C18_25  and  C19_26 
ROOT
HETATM    1  N2  UNK     1      22.164  -1.909  35.424  1.00  0.00    -0.191 NA
HETATM    2  C15 UNK     1      18.847  -2.688  35.954  1.00  0.00     0.035 C 
HETATM    3  C18 UNK     1      20.069  -3.216  36.235  1.00  0.00     0.055 C 
HETATM    4  C27 UNK     1      21.223  -2.486  35.782  1.00  0.00     0.100 C 
ENDROOT
BRANCH   3   5
HETATM    5  C19 UNK     1      20.264  -4.459  36.964  1.00  0.00    -0.015 A 
HETATM    6  C21 UNK     1      19.308  -5.472  36.885  1.00  0.00     0.015 A 
HETATM    7  C24 UNK     1      19.497  -6.665  37.583  1.00  0.00     0.037 A 
HETATM    8  C23 UNK     1      20.641  -6.845  38.359  1.00  0.00     0.102 A 
HETATM    9  C25 UNK     1      21.597  -5.833  38.439  1.00  0.00     0.037 A 
HETATM   10  C22 UNK     1      21.409  -4.640  37.741  1.00  0.00     0.015 A 
BRANCH   8  11
HETATM   11  N1  UNK     1      20.834  -8.059  39.071  1.00  0.00    -0.116 N 
HETATM   12  O4  UNK     1      21.982  -8.344  39.489  1.00  0.00    -0.532 OA
HETATM   13  O5  UNK     1      19.850  -8.814  39.264  1.00  0.00    -0.532 OA
ENDBRANCH   8  11
ENDBRANCH   3   5
BRANCH   2  14
HETATM   14  C6  UNK     1      18.604  -1.433  35.228  1.00  0.00    -0.032 A 
HETATM   15  C10 UNK     1      18.200  -0.292  35.922  1.00  0.00     0.051 A 
HETATM   16  C4  UNK     1      17.969   0.898  35.233  1.00  0.00     0.102 A 
HETATM   17  C3  UNK     1      18.142   0.948  33.850  1.00  0.00     0.102 A 
HETATM   18  C11 UNK     1      18.546  -0.193  33.156  1.00  0.00     0.040 A 
HETATM   19  C13 UNK     1      18.777  -1.383  33.845  1.00  0.00     0.014 A 
BRANCH  16  20
HETATM   20  O3  UNK     1      17.574   2.005  35.921  1.00  0.00    -0.349 OA
BRANCH  20  21
HETATM   21  C20 UNK     1      16.712   1.800  37.038  1.00  0.00     0.171 C 
HETATM   22  C26 UNK     1      17.552   1.621  38.284  1.00  0.00     0.034 C 
ENDBRANCH  20  21
ENDBRANCH  16  20
BRANCH  17  23
HETATM   23  O1  UNK     1      17.920   2.105  33.165  1.00  0.00    -0.346 OA
BRANCH  23  24
HETATM   24  C7  UNK     1      18.322   2.136  31.797  1.00  0.00     0.202 C 
BRANCH  24  25
HETATM   25  C8  UNK     1      18.281   3.568  31.302  1.00  0.00     0.202 C 
BRANCH  25  26
HETATM   26  O2  UNK     1      17.478   4.342  32.185  1.00  0.00    -0.349 OA
BRANCH  26  27
HETATM   27  C5  UNK     1      18.070   5.437  32.757  1.00  0.00     0.069 A 
HETATM   28  C14 UNK     1      19.388   5.763  32.440  1.00  0.00     0.037 A 
HETATM   29  C12 UNK     1      19.991   6.877  33.023  1.00  0.00     0.010 A 
HETATM   30  C2  UNK     1      19.276   7.664  33.925  1.00  0.00    -0.056 A 
HETATM   31  C1  UNK     1      17.957   7.338  34.243  1.00  0.00    -0.053 A 
HETATM   32  C17 UNK     1      19.943   8.853  34.537  1.00  0.00     0.049 C 
HETATM   33  C9  UNK     1      17.355   6.224  33.660  1.00  0.00     0.044 A 
HETATM   34  C16 UNK     1      17.172   8.167  35.205  1.00  0.00     0.049 C 
ENDBRANCH  26  27
ENDBRANCH  25  26
ENDBRANCH  24  25
ENDBRANCH  23  24
ENDBRANCH  17  23
ENDBRANCH   2  14
TORSDOF 10
ENDMDL
MODEL 6
REMARK VINA RESULT:      -8.5     15.720     18.592
REMARK  10 active torsions:
REMARK  status: ('A' for Active; 'I' for Inactive)
REMARK    1  A    between atoms: C3_10  and  O1_1 
REMARK    2  A    between atoms: C7_14  and  O1_1 
REMARK    3  A    between atoms: C5_12  and  O2_2 
REMARK    4  A    between atoms: C8_15  and  O2_2 
REMARK    5  A    between atoms: C20_27  and  O3_3 
REMARK    6  A    between atoms: C4_11  and  O3_3 
REMARK    7  A    between atoms: C23_30  and  N1_6 
REMARK    8  A    between atoms: C15_22  and  C6_13 
REMARK    9  A    between atoms: C7_14  and  C8_15 
REMARK   10  A    between atoms: C18_25  and  C19_26 
ROOT
HETATM    1  N2  UNK     1      31.655  -9.883  36.327  1.00  0.00    -0.191 NA
HETATM    2  C15 UNK     1      30.038  -7.703  34.201  1.00  0.00     0.035 C 
HETATM    3  C18 UNK     1      30.309  -7.807  35.529  1.00  0.00     0.055 C 
HETATM    4  C27 UNK     1      31.054  -8.960  35.962  1.00  0.00     0.100 C 
ENDROOT
BRANCH   3   5
HETATM    5  C19 UNK     1      29.895  -6.825  36.518  1.00  0.00    -0.015 A 
HETATM    6  C21 UNK     1      30.528  -5.583  36.576  1.00  0.00     0.015 A 
HETATM    7  C24 UNK     1      30.130  -4.641  37.524  1.00  0.00     0.037 A 
HETATM    8  C23 UNK     1      29.099  -4.939  38.414  1.00  0.00     0.102 A 
HETATM    9  C25 UNK     1      28.465  -6.181  38.357  1.00  0.00     0.037 A 
HETATM   10  C22 UNK     1      28.863  -7.123  37.409  1.00  0.00     0.015 A 
BRANCH   8  11
HETATM   11  N1  UNK     1      28.693  -3.980  39.380  1.00  0.00    -0.116 N 
HETATM   12  O4  UNK     1      27.488  -3.632  39.422  1.00  0.00    -0.532 OA
HETATM   13  O5  UNK     1      29.550  -3.508  40.165  1.00  0.00    -0.532 OA
ENDBRANCH   8  11
ENDBRANCH   3   5
BRANCH   2  14
HETATM   14  C6  UNK     1      30.442  -8.668  33.166  1.00  0.00    -0.032 A 
HETATM   15  C10 UNK     1      31.658  -8.507  32.501  1.00  0.00     0.051 A 
HETATM   16  C4  UNK     1      32.041  -9.422  31.520  1.00  0.00     0.102 A 
HETATM   17  C3  UNK     1      31.210 -10.497  31.205  1.00  0.00     0.102 A 
HETATM   18  C11 UNK     1      29.994 -10.656  31.871  1.00  0.00     0.040 A 
HETATM   19  C13 UNK     1      29.611  -9.742  32.851  1.00  0.00     0.014 A 
BRANCH  16  20
HETATM   20  O3  UNK     1      33.230  -9.255  30.876  1.00  0.00    -0.349 OA
BRANCH  20  21
HETATM   21  C20 UNK     1      33.586  -7.924  30.507  1.00  0.00     0.171 C 
HETATM   22  C26 UNK     1      33.530  -7.798  29.000  1.00  0.00     0.034 C 
ENDBRANCH  20  21
ENDBRANCH  16  20
BRANCH  17  23
HETATM   23  O1  UNK     1      31.573 -11.397  30.249  1.00  0.00    -0.346 OA
BRANCH  23  24
HETATM   24  C7  UNK     1      30.701 -11.542  29.130  1.00  0.00     0.202 C 
BRANCH  24  25
HETATM   25  C8  UNK     1      30.865 -10.343  28.216  1.00  0.00     0.202 C 
BRANCH  25  26
HETATM   26  O2  UNK     1      29.582  -9.800  27.928  1.00  0.00    -0.349 OA
BRANCH  26  27
HETATM   27  C5  UNK     1      29.055  -8.940  28.856  1.00  0.00     0.069 A 
HETATM   28  C14 UNK     1      27.803  -9.199  29.415  1.00  0.00     0.037 A 
HETATM   29  C12 UNK     1      27.267  -8.323  30.358  1.00  0.00     0.010 A 
HETATM   30  C2  UNK     1      27.981  -7.189  30.742  1.00  0.00    -0.056 A 
HETATM   31  C1  UNK     1      29.232  -6.930  30.183  1.00  0.00    -0.053 A 
HETATM   32  C17 UNK     1      27.386  -6.266  31.755  1.00  0.00     0.049 C 
HETATM   33  C9  UNK     1      29.768  -7.805  29.239  1.00  0.00     0.044 A 
HETATM   34  C16 UNK     1      30.016  -5.722  30.578  1.00  0.00     0.049 C 
ENDBRANCH  26  27
ENDBRANCH  25  26
ENDBRANCH  24  25
ENDBRANCH  23  24
ENDBRANCH  17  23
ENDBRANCH   2  14
TORSDOF 10
ENDMDL
MODEL 7
REMARK VINA RESULT:      -8.5     16.892     19.162
REMARK  10 active torsions:
REMARK  status: ('A' for Active; 'I' for Inactive)
REMARK    1  A    between atoms: C3_10  and  O1_1 
REMARK    2  A    between atoms: C7_14  and  O1_1 
REMARK    3  A    between atoms: C5_12  and  O2_2 
REMARK    4  A    between atoms: C8_15  and  O2_2 
REMARK    5  A    between atoms: C20_27  and  O3_3 
REMARK    6  A    between atoms: C4_11  and  O3_3 
REMARK    7  A    between atoms: C23_30  and  N1_6 
REMARK    8  A    between atoms: C15_22  and  C6_13 
REMARK    9  A    between atoms: C7_14  and  C8_15 
REMARK   10  A    between atoms: C18_25  and  C19_26 
ROOT
HETATM    1  N2  UNK     1      27.931 -10.412  39.639  1.00  0.00    -0.191 NA
HETATM    2  C15 UNK     1      27.992  -8.875  36.553  1.00  0.00     0.035 C 
HETATM    3  C18 UNK     1      27.121  -9.596  37.307  1.00  0.00     0.055 C 
HETATM    4  C27 UNK     1      27.578 -10.044  38.597  1.00  0.00     0.100 C 
ENDROOT
BRANCH   3   5
HETATM    5  C19 UNK     1      25.768  -9.928  36.887  1.00  0.00    -0.015 A 
HETATM    6  C21 UNK     1      24.732  -9.016  37.088  1.00  0.00     0.015 A 
HETATM    7  C24 UNK     1      23.435  -9.333  36.684  1.00  0.00     0.037 A 
HETATM    8  C23 UNK     1      23.175 -10.562  36.078  1.00  0.00     0.102 A 
HETATM    9  C25 UNK     1      24.210 -11.475  35.877  1.00  0.00     0.037 A 
HETATM   10  C22 UNK     1      25.507 -11.157  36.281  1.00  0.00     0.015 A 
BRANCH   8  11
HETATM   11  N1  UNK     1      21.854 -10.886  35.666  1.00  0.00    -0.116 N 
HETATM   12  O4  UNK     1      21.592 -10.923  34.440  1.00  0.00    -0.532 OA
HETATM   13  O5  UNK     1      20.987 -11.128  36.540  1.00  0.00    -0.532 OA
ENDBRANCH   8  11
ENDBRANCH   3   5
BRANCH   2  14
HETATM   14  C6  UNK     1      29.363  -8.512  36.940  1.00  0.00    -0.032 A 
HETATM   15  C10 UNK     1      29.606  -7.303  37.593  1.00  0.00     0.051 A 
HETATM   16  C4  UNK     1      30.907  -6.959  37.960  1.00  0.00     0.102 A 
HETATM   17  C3  UNK     1      31.964  -7.823  37.677  1.00  0.00     0.102 A 
HETATM   18  C11 UNK     1      31.720  -9.032  37.024  1.00  0.00     0.040 A 
HETATM   19  C13 UNK     1      30.420  -9.376  36.657  1.00  0.00     0.014 A 
BRANCH  16  20
HETATM   20  O3  UNK     1      31.132  -5.775  38.596  1.00  0.00    -0.349 OA
BRANCH  20  21
HETATM   21  C20 UNK     1      30.242  -4.700  38.299  1.00  0.00     0.171 C 
HETATM   22  C26 UNK     1      30.956  -3.697  37.419  1.00  0.00     0.034 C 
ENDBRANCH  20  21
ENDBRANCH  16  20
BRANCH  17  23
HETATM   23  O1  UNK     1      33.238  -7.498  38.031  1.00  0.00    -0.346 OA
BRANCH  23  24
HETATM   24  C7  UNK     1      34.176  -7.305  36.974  1.00  0.00     0.202 C 
BRANCH  24  25
HETATM   25  C8  UNK     1      33.845  -6.016  36.247  1.00  0.00     0.202 C 
BRANCH  25  26
HETATM   26  O2  UNK     1      33.738  -6.283  34.854  1.00  0.00    -0.349 OA
BRANCH  26  27
HETATM   27  C5  UNK     1      32.498  -6.630  34.386  1.00  0.00     0.069 A 
HETATM   28  C14 UNK     1      31.416  -5.769  34.570  1.00  0.00     0.037 A 
HETATM   29  C12 UNK     1      30.154  -6.123  34.095  1.00  0.00     0.010 A 
HETATM   30  C2  UNK     1      29.974  -7.338  33.435  1.00  0.00    -0.056 A 
HETATM   31  C1  UNK     1      31.055  -8.199  33.250  1.00  0.00    -0.053 A 
HETATM   32  C17 UNK     1      28.612  -7.695  32.933  1.00  0.00     0.049 C 
HETATM   33  C9  UNK     1      32.317  -7.845  33.726  1.00  0.00     0.044 A 
HETATM   34  C16 UNK     1      30.886  -9.505  32.545  1.00  0.00     0.049 C 
ENDBRANCH  26  27
ENDBRANCH  25  26
ENDBRANCH  24  25
ENDBRANCH  23  24
ENDBRANCH  17  23
ENDBRANCH   2  14
TORSDOF 10
ENDMDL
MODEL 8
REMARK VINA RESULT:      -8.4      4.683      6.866
REMARK  10 active torsions:
REMARK  status: ('A' for Active; 'I' for Inactive)
REMARK    1  A    between atoms: C3_10  and  O1_1 
REMARK    2  A    between atoms: C7_14  and  O1_1 
REMARK    3  A    between atoms: C5_12  and  O2_2 
REMARK    4  A    between atoms: C8_15  and  O2_2 
REMARK    5  A    between atoms: C20_27  and  O3_3 
REMARK    6  A    between atoms: C4_11  and  O3_3 
REMARK    7  A    between atoms: C23_30  and  N1_6 
REMARK    8  A    between atoms: C15_22  and  C6_13 
REMARK    9  A    between atoms: C7_14  and  C8_15 
REMARK   10  A    between atoms: C18_25  and  C19_26 
ROOT
HETATM    1  N2  UNK     1      17.934   2.862  31.375  1.00  0.00    -0.191 NA
HETATM    2  C15 UNK     1      18.397   3.464  34.738  1.00  0.00     0.035 C 
HETATM    3  C18 UNK     1      18.167   4.178  33.604  1.00  0.00     0.055 C 
HETATM    4  C27 UNK     1      18.039   3.441  32.374  1.00  0.00     0.100 C 
ENDROOT
BRANCH   3   5
HETATM    5  C19 UNK     1      18.040   5.627  33.572  1.00  0.00    -0.015 A 
HETATM    6  C21 UNK     1      18.976   6.424  34.230  1.00  0.00     0.015 A 
HETATM    7  C24 UNK     1      18.854   7.813  34.198  1.00  0.00     0.037 A 
HETATM    8  C23 UNK     1      17.797   8.405  33.508  1.00  0.00     0.102 A 
HETATM    9  C25 UNK     1      16.860   7.608  32.850  1.00  0.00     0.037 A 
HETATM   10  C22 UNK     1      16.982   6.219  32.882  1.00  0.00     0.015 A 
BRANCH   8  11
HETATM   11  N1  UNK     1      17.672   9.820  33.475  1.00  0.00    -0.116 N 
HETATM   12  O4  UNK     1      18.706  10.523  33.575  1.00  0.00    -0.532 OA
HETATM   13  O5  UNK     1      16.532  10.327  33.345  1.00  0.00    -0.532 OA
ENDBRANCH   8  11
ENDBRANCH   3   5
BRANCH   2  14
HETATM   14  C6  UNK     1      18.526   2.001  34.817  1.00  0.00    -0.032 A 
HETATM   15  C10 UNK     1      18.334   1.222  33.676  1.00  0.00     0.051 A 
HETATM   16  C4  UNK     1      18.457  -0.166  33.751  1.00  0.00     0.102 A 
HETATM   17  C3  UNK     1      18.771  -0.773  34.966  1.00  0.00     0.102 A 
HETATM   18  C11 UNK     1      18.963   0.007  36.107  1.00  0.00     0.040 A 
HETATM   19  C13 UNK     1      18.840   1.393  36.032  1.00  0.00     0.014 A 
BRANCH  16  20
HETATM   20  O3  UNK     1      18.267  -0.917  32.630  1.00  0.00    -0.349 OA
BRANCH  20  21
HETATM   21  C20 UNK     1      19.221  -0.769  31.581  1.00  0.00     0.171 C 
HETATM   22  C26 UNK     1      20.318  -1.796  31.763  1.00  0.00     0.034 C 
ENDBRANCH  20  21
ENDBRANCH  16  20
BRANCH  17  23
HETATM   23  O1  UNK     1      18.894  -2.127  35.052  1.00  0.00    -0.346 OA
BRANCH  23  24
HETATM   24  C7  UNK     1      20.148  -2.638  35.502  1.00  0.00     0.202 C 
BRANCH  24  25
HETATM   25  C8  UNK     1      19.934  -3.418  36.784  1.00  0.00     0.202 C 
BRANCH  25  26
HETATM   26  O2  UNK     1      21.049  -4.275  36.998  1.00  0.00    -0.349 OA
BRANCH  26  27
HETATM   27  C5  UNK     1      20.793  -5.484  37.590  1.00  0.00     0.069 A 
HETATM   28  C14 UNK     1      19.577  -6.127  37.364  1.00  0.00     0.037 A 
HETATM   29  C12 UNK     1      19.316  -7.357  37.967  1.00  0.00     0.010 A 
HETATM   30  C2  UNK     1      20.272  -7.943  38.796  1.00  0.00    -0.056 A 
HETATM   31  C1  UNK     1      21.488  -7.300  39.022  1.00  0.00    -0.053 A 
HETATM   32  C17 UNK     1      19.970  -9.262  39.430  1.00  0.00     0.049 C 
HETATM   33  C9  UNK     1      21.748  -6.069  38.419  1.00  0.00     0.044 A 
HETATM   34  C16 UNK     1      22.527  -7.909  39.905  1.00  0.00     0.049 C 
ENDBRANCH  26  27
ENDBRANCH  25  26
ENDBRANCH  24  25
ENDBRANCH  23  24
ENDBRANCH  17  23
ENDBRANCH   2  14
TORSDOF 10
ENDMDL
MODEL 9
REMARK VINA RESULT:      -8.3      3.034     11.487
REMARK  10 active torsions:
REMARK  status: ('A' for Active; 'I' for Inactive)
REMARK    1  A    between atoms: C3_10  and  O1_1 
REMARK    2  A    between atoms: C7_14  and  O1_1 
REMARK    3  A    between atoms: C5_12  and  O2_2 
REMARK    4  A    between atoms: C8_15  and  O2_2 
REMARK    5  A    between atoms: C20_27  and  O3_3 
REMARK    6  A    between atoms: C4_11  and  O3_3 
REMARK    7  A    between atoms: C23_30  and  N1_6 
REMARK    8  A    between atoms: C15_22  and  C6_13 
REMARK    9  A    between atoms: C7_14  and  C8_15 
REMARK   10  A    between atoms: C18_25  and  C19_26 
ROOT
HETATM    1  N2  UNK     1      17.990   3.544  34.076  1.00  0.00    -0.191 NA
HETATM    2  C15 UNK     1      18.646   5.209  31.129  1.00  0.00     0.035 C 
HETATM    3  C18 UNK     1      18.555   3.925  31.567  1.00  0.00     0.055 C 
HETATM    4  C27 UNK     1      18.241   3.724  32.958  1.00  0.00     0.100 C 
ENDROOT
BRANCH   3   5
HETATM    5  C19 UNK     1      18.747   2.763  30.714  1.00  0.00    -0.015 A 
HETATM    6  C21 UNK     1      19.438   1.650  31.196  1.00  0.00     0.015 A 
HETATM    7  C24 UNK     1      19.621   0.536  30.378  1.00  0.00     0.037 A 
HETATM    8  C23 UNK     1      19.114   0.533  29.079  1.00  0.00     0.102 A 
HETATM    9  C25 UNK     1      18.423   1.645  28.596  1.00  0.00     0.037 A 
HETATM   10  C22 UNK     1      18.240   2.760  29.415  1.00  0.00     0.015 A 
BRANCH   8  11
HETATM   11  N1  UNK     1      19.300  -0.602  28.245  1.00  0.00    -0.116 N 
HETATM   12  O4  UNK     1      19.969  -1.571  28.679  1.00  0.00    -0.532 OA
HETATM   13  O5  UNK     1      18.790  -0.605  27.099  1.00  0.00    -0.532 OA
ENDBRANCH   8  11
ENDBRANCH   3   5
BRANCH   2  14
HETATM   14  C6  UNK     1      18.453   6.411  31.953  1.00  0.00    -0.032 A 
HETATM   15  C10 UNK     1      17.307   7.190  31.792  1.00  0.00     0.051 A 
HETATM   16  C4  UNK     1      17.124   8.330  32.574  1.00  0.00     0.102 A 
HETATM   17  C3  UNK     1      18.085   8.691  33.518  1.00  0.00     0.102 A 
HETATM   18  C11 UNK     1      19.232   7.912  33.678  1.00  0.00     0.040 A 
HETATM   19  C13 UNK     1      19.415   6.772  32.897  1.00  0.00     0.014 A 
BRANCH  16  20
HETATM   20  O3  UNK     1      16.001   9.084  32.407  1.00  0.00    -0.349 OA
BRANCH  20  21
HETATM   21  C20 UNK     1      14.755   8.471  32.733  1.00  0.00     0.171 C 
HETATM   22  C26 UNK     1      14.360   8.872  34.138  1.00  0.00     0.034 C 
ENDBRANCH  20  21
ENDBRANCH  16  20
BRANCH  17  23
HETATM   23  O1  UNK     1      17.918   9.802  34.288  1.00  0.00    -0.346 OA
BRANCH  23  24
HETATM   24  C7  UNK     1      18.661  10.963  33.921  1.00  0.00     0.202 C 
BRANCH  24  25
HETATM   25  C8  UNK     1      17.782  12.187  34.090  1.00  0.00     0.202 C 
BRANCH  25  26
HETATM   26  O2  UNK     1      16.910  11.984  35.196  1.00  0.00    -0.349 OA
BRANCH  26  27
HETATM   27  C5  UNK     1      15.579  12.230  34.985  1.00  0.00     0.069 A 
HETATM   28  C14 UNK     1      15.122  12.544  33.705  1.00  0.00     0.037 A 
HETATM   29  C12 UNK     1      13.767  12.794  33.490  1.00  0.00     0.010 A 
HETATM   30  C2  UNK     1      12.870  12.731  34.556  1.00  0.00    -0.056 A 
HETATM   31  C1  UNK     1      13.326  12.417  35.835  1.00  0.00    -0.053 A 
HETATM   32  C17 UNK     1      11.423  13.003  34.301  1.00  0.00     0.049 C 
HETATM   33  C9  UNK     1      14.681  12.168  36.050  1.00  0.00     0.044 A 
HETATM   34  C16 UNK     1      12.383  12.344  36.991  1.00  0.00     0.049 C 
ENDBRANCH  26  27
ENDBRANCH  25  26
ENDBRANCH  24  25
ENDBRANCH  23  24
ENDBRANCH  17  23
ENDBRANCH   2  14
TORSDOF 10
ENDMDL
MODEL 10
REMARK VINA RESULT:      -8.3     16.967     22.486
REMARK  10 active torsions:
REMARK  status: ('A' for Active; 'I' for Inactive)
REMARK    1  A    between atoms: C3_10  and  O1_1 
REMARK    2  A    between atoms: C7_14  and  O1_1 
REMARK    3  A    between atoms: C5_12  and  O2_2 
REMARK    4  A    between atoms: C8_15  and  O2_2 
REMARK    5  A    between atoms: C20_27  and  O3_3 
REMARK    6  A    between atoms: C4_11  and  O3_3 
REMARK    7  A    between atoms: C23_30  and  N1_6 
REMARK    8  A    between atoms: C15_22  and  C6_13 
REMARK    9  A    between atoms: C7_14  and  C8_15 
REMARK   10  A    between atoms: C18_25  and  C19_26 
ROOT
HETATM    1  N2  UNK     1      31.776 -12.689  34.804  1.00  0.00    -0.191 NA
HETATM    2  C15 UNK     1      30.407 -12.078  31.699  1.00  0.00     0.035 C 
HETATM    3  C18 UNK     1      30.919 -13.131  32.390  1.00  0.00     0.055 C 
HETATM    4  C27 UNK     1      31.391 -12.877  33.726  1.00  0.00     0.100 C 
ENDROOT
BRANCH   3   5
HETATM    5  C19 UNK     1      31.007 -14.482  31.858  1.00  0.00    -0.015 A 
HETATM    6  C21 UNK     1      31.061 -14.687  30.479  1.00  0.00     0.015 A 
HETATM    7  C24 UNK     1      31.146 -15.982  29.969  1.00  0.00     0.037 A 
HETATM    8  C23 UNK     1      31.177 -17.072  30.838  1.00  0.00     0.102 A 
HETATM    9  C25 UNK     1      31.123 -16.869  32.217  1.00  0.00     0.037 A 
HETATM   10  C22 UNK     1      31.038 -15.573  32.726  1.00  0.00     0.015 A 
BRANCH   8  11
HETATM   11  N1  UNK     1      31.263 -18.392  30.319  1.00  0.00    -0.116 N 
HETATM   12  O4  UNK     1      30.653 -18.670  29.259  1.00  0.00    -0.532 OA
HETATM   13  O5  UNK     1      31.949 -19.244  30.934  1.00  0.00    -0.532 OA
ENDBRANCH   8  11
ENDBRANCH   3   5
BRANCH   2  14
HETATM   14  C6  UNK     1      30.294 -10.699  32.200  1.00  0.00    -0.032 A 
HETATM   15  C10 UNK     1      31.341  -9.798  32.004  1.00  0.00     0.051 A 
HETATM   16  C4  UNK     1      31.233  -8.491  32.479  1.00  0.00     0.102 A 
HETATM   17  C3  UNK     1      30.079  -8.085  33.148  1.00  0.00     0.102 A 
HETATM   18  C11 UNK     1      29.032  -8.987  33.344  1.00  0.00     0.040 A 
HETATM   19  C13 UNK     1      29.140 -10.293  32.869  1.00  0.00     0.014 A 
BRANCH  16  20
HETATM   20  O3  UNK     1      32.262  -7.620  32.283  1.00  0.00    -0.349 OA
BRANCH  20  21
HETATM   21  C20 UNK     1      33.434  -8.133  31.653  1.00  0.00     0.171 C 
HETATM   22  C26 UNK     1      33.704  -7.342  30.391  1.00  0.00     0.034 C 
ENDBRANCH  20  21
ENDBRANCH  16  20
BRANCH  17  23
HETATM   23  O1  UNK     1      29.961  -6.811  33.616  1.00  0.00    -0.346 OA
BRANCH  23  24
HETATM   24  C7  UNK     1      28.892  -6.024  33.094  1.00  0.00     0.202 C 
BRANCH  24  25
HETATM   25  C8  UNK     1      29.392  -5.244  31.895  1.00  0.00     0.202 C 
BRANCH  25  26
HETATM   26  O2  UNK     1      28.533  -5.491  30.788  1.00  0.00    -0.349 OA
BRANCH  26  27
HETATM   27  C5  UNK     1      28.602  -6.736  30.221  1.00  0.00     0.069 A 
HETATM   28  C14 UNK     1      27.514  -7.605  30.310  1.00  0.00     0.037 A 
HETATM   29  C12 UNK     1      27.585  -8.873  29.733  1.00  0.00     0.010 A 
HETATM   30  C2  UNK     1      28.744  -9.271  29.067  1.00  0.00    -0.056 A 
HETATM   31  C1  UNK     1      29.832  -8.403  28.978  1.00  0.00    -0.053 A 
HETATM   32  C17 UNK     1      28.796 -10.634  28.456  1.00  0.00     0.049 C 
HETATM   33  C9  UNK     1      29.761  -7.136  29.556  1.00  0.00     0.044 A 
HETATM   34  C16 UNK     1      31.082  -8.808  28.270  1.00  0.00     0.049 C 
ENDBRANCH  26  27
ENDBRANCH  25  26
ENDBRANCH  24  25
ENDBRANCH  23  24
ENDBRANCH  17  23
ENDBRANCH   2  14
TORSDOF 10
ENDMDL
