MODEL 1
REMARK VINA RESULT:      -8.6      0.000      0.000
REMARK  5 active torsions:
REMARK  status: ('A' for Active; 'I' for Inactive)
REMARK    1  A    between atoms: C7_13  and  O2_2 
REMARK    2  A    between atoms: C9_15  and  O4_4 
REMARK    3  A    between atoms: C13_19  and  O5_5 
REMARK    4  A    between atoms: C15_21  and  O6_6 
REMARK    5  A    between atoms: C3_9  and  C4_10 
ROOT
HETATM    1  O1  UNK     1      19.040  -1.005  17.862  1.00  0.00    -0.306 OA
HETATM    2  O3  UNK     1      19.220   2.191  15.342  1.00  0.00    -0.287 OA
HETATM    3  C1  UNK     1      19.102   1.405  17.568  1.00  0.00     0.051 A 
HETATM    4  C2  UNK     1      19.045   0.269  18.372  1.00  0.00     0.126 A 
HETATM    5  C3  UNK     1      19.088  -1.166  16.485  1.00  0.00     0.090 A 
HETATM    6  C5  UNK     1      19.164   1.239  16.107  1.00  0.00     0.187 A 
HETATM    7  C6  UNK     1      19.154  -0.151  15.609  1.00  0.00     0.093 A 
HETATM    8  C7  UNK     1      18.987   0.399  19.760  1.00  0.00     0.134 A 
HETATM    9  C8  UNK     1      19.105   2.678  18.142  1.00  0.00     0.021 A 
HETATM   10  C9  UNK     1      18.988   1.669  20.338  1.00  0.00     0.101 A 
HETATM   11  C12 UNK     1      19.047   2.806  19.531  1.00  0.00     0.040 A 
ENDROOT
BRANCH   5  12
HETATM   12  C4  UNK     1      19.085  -2.575  16.045  1.00  0.00     0.001 A 
HETATM   13  C10 UNK     1      20.231  -3.360  16.193  1.00  0.00     0.053 A 
HETATM   14  C13 UNK     1      20.227  -4.692  15.778  1.00  0.00     0.099 A 
HETATM   15  C15 UNK     1      19.077  -5.242  15.214  1.00  0.00     0.098 A 
HETATM   16  C14 UNK     1      17.931  -4.462  15.065  1.00  0.00     0.040 A 
HETATM   17  C11 UNK     1      17.934  -3.131  15.480  1.00  0.00     0.017 A 
BRANCH  14  18
HETATM   18  O5  UNK     1      21.354  -5.443  15.929  1.00  0.00    -0.358 OA
HETATM   19  H9  UNK     1      21.349  -5.825  16.824  1.00  0.00     0.217 HD
ENDBRANCH  14  18
BRANCH  15  20
HETATM   20  O6  UNK     1      19.061  -6.541  14.804  1.00  0.00    -0.358 OA
HETATM   21  H10 UNK     1      18.378  -7.023  15.303  1.00  0.00     0.217 HD
ENDBRANCH  15  20
ENDBRANCH   5  12
BRANCH   8  22
HETATM   22  O2  UNK     1      18.930  -0.708  20.554  1.00  0.00    -0.356 OA
HETATM   23  H7  UNK     1      19.812  -0.857  20.938  1.00  0.00     0.218 HD
ENDBRANCH   8  22
BRANCH  10  24
HETATM   24  O4  UNK     1      18.933   1.813  21.691  1.00  0.00    -0.358 OA
HETATM   25  H8  UNK     1      19.761   1.483  22.079  1.00  0.00     0.217 HD
ENDBRANCH  10  24
TORSDOF 5
ENDMDL
MODEL 2
REMARK VINA RESULT:      -8.5      1.827      6.631
REMARK  5 active torsions:
REMARK  status: ('A' for Active; 'I' for Inactive)
REMARK    1  A    between atoms: C7_13  and  O2_2 
REMARK    2  A    between atoms: C9_15  and  O4_4 
REMARK    3  A    between atoms: C13_19  and  O5_5 
REMARK    4  A    between atoms: C15_21  and  O6_6 
REMARK    5  A    between atoms: C3_9  and  C4_10 
ROOT
HETATM    1  O1  UNK     1      20.389  -2.098  17.573  1.00  0.00    -0.306 OA
HETATM    2  O3  UNK     1      17.983  -2.208  14.286  1.00  0.00    -0.287 OA
HETATM    3  C1  UNK     1      19.781  -3.171  15.480  1.00  0.00     0.051 A 
HETATM    4  C2  UNK     1      20.566  -3.077  16.628  1.00  0.00     0.126 A 
HETATM    5  C3  UNK     1      19.389  -1.159  17.371  1.00  0.00     0.090 A 
HETATM    6  C5  UNK     1      18.712  -2.183  15.268  1.00  0.00     0.187 A 
HETATM    7  C6  UNK     1      18.564  -1.149  16.312  1.00  0.00     0.093 A 
HETATM    8  C7  UNK     1      21.585  -4.003  16.853  1.00  0.00     0.134 A 
HETATM    9  C8  UNK     1      20.006  -4.190  14.552  1.00  0.00     0.021 A 
HETATM   10  C9  UNK     1      21.814  -5.022  15.927  1.00  0.00     0.101 A 
HETATM   11  C12 UNK     1      21.026  -5.115  14.779  1.00  0.00     0.040 A 
ENDROOT
BRANCH   5  12
HETATM   12  C4  UNK     1      19.282  -0.157  18.450  1.00  0.00     0.001 A 
HETATM   13  C10 UNK     1      19.557  -0.516  19.772  1.00  0.00     0.053 A 
HETATM   14  C13 UNK     1      19.456   0.432  20.791  1.00  0.00     0.099 A 
HETATM   15  C15 UNK     1      19.080   1.740  20.491  1.00  0.00     0.098 A 
HETATM   16  C14 UNK     1      18.804   2.102  19.173  1.00  0.00     0.040 A 
HETATM   17  C11 UNK     1      18.904   1.156  18.154  1.00  0.00     0.017 A 
BRANCH  14  18
HETATM   18  O5  UNK     1      19.728   0.065  22.075  1.00  0.00    -0.358 OA
HETATM   19  H9  UNK     1      20.261   0.767  22.487  1.00  0.00     0.217 HD
ENDBRANCH  14  18
BRANCH  15  20
HETATM   20  O6  UNK     1      18.977   2.674  21.477  1.00  0.00    -0.358 OA
HETATM   21  H10 UNK     1      19.841   2.769  21.916  1.00  0.00     0.217 HD
ENDBRANCH  15  20
ENDBRANCH   5  12
BRANCH   8  22
HETATM   22  O2  UNK     1      22.358  -3.917  17.973  1.00  0.00    -0.356 OA
HETATM   23  H7  UNK     1      21.819  -3.540  18.690  1.00  0.00     0.218 HD
ENDBRANCH   8  22
BRANCH  10  24
HETATM   24  O4  UNK     1      22.805  -5.933  16.133  1.00  0.00    -0.358 OA
HETATM   25  H8  UNK     1      23.601  -5.470  16.444  1.00  0.00     0.217 HD
ENDBRANCH  10  24
TORSDOF 5
ENDMDL
MODEL 3
REMARK VINA RESULT:      -8.4     13.906     17.239
REMARK  5 active torsions:
REMARK  status: ('A' for Active; 'I' for Inactive)
REMARK    1  A    between atoms: C7_13  and  O2_2 
REMARK    2  A    between atoms: C9_15  and  O4_4 
REMARK    3  A    between atoms: C13_19  and  O5_5 
REMARK    4  A    between atoms: C15_21  and  O6_6 
REMARK    5  A    between atoms: C3_9  and  C4_10 
ROOT
HETATM    1  O1  UNK     1      18.014   3.019  33.126  1.00  0.00    -0.306 OA
HETATM    2  O3  UNK     1      19.298   1.650  29.510  1.00  0.00    -0.287 OA
HETATM    3  C1  UNK     1      18.746   1.154  31.754  1.00  0.00     0.051 A 
HETATM    4  C2  UNK     1      18.300   1.687  32.961  1.00  0.00     0.126 A 
HETATM    5  C3  UNK     1      18.182   3.870  32.044  1.00  0.00     0.090 A 
HETATM    6  C5  UNK     1      18.915   2.051  30.600  1.00  0.00     0.187 A 
HETATM    7  C6  UNK     1      18.597   3.474  30.830  1.00  0.00     0.093 A 
HETATM    8  C7  UNK     1      18.129   0.857  34.070  1.00  0.00     0.134 A 
HETATM    9  C8  UNK     1      19.021  -0.211  31.643  1.00  0.00     0.021 A 
HETATM   10  C9  UNK     1      18.405  -0.507  33.964  1.00  0.00     0.101 A 
HETATM   11  C12 UNK     1      18.850  -1.040  32.753  1.00  0.00     0.040 A 
ENDROOT
BRANCH   5  12
HETATM   12  C4  UNK     1      17.841   5.278  32.329  1.00  0.00     0.001 A 
HETATM   13  C10 UNK     1      17.390   6.113  31.303  1.00  0.00     0.053 A 
HETATM   14  C13 UNK     1      17.066   7.442  31.573  1.00  0.00     0.099 A 
HETATM   15  C15 UNK     1      17.193   7.941  32.869  1.00  0.00     0.098 A 
HETATM   16  C14 UNK     1      17.643   7.111  33.896  1.00  0.00     0.040 A 
HETATM   17  C11 UNK     1      17.966   5.782  33.626  1.00  0.00     0.017 A 
BRANCH  14  18
HETATM   18  O5  UNK     1      16.629   8.244  30.562  1.00  0.00    -0.358 OA
HETATM   19  H9  UNK     1      15.780   7.894  30.241  1.00  0.00     0.217 HD
ENDBRANCH  14  18
BRANCH  15  20
HETATM   20  O6  UNK     1      16.881   9.238  33.145  1.00  0.00    -0.358 OA
HETATM   21  H10 UNK     1      17.509   9.582  33.804  1.00  0.00     0.217 HD
ENDBRANCH  15  20
ENDBRANCH   5  12
BRANCH   8  22
HETATM   22  O2  UNK     1      17.694   1.373  35.255  1.00  0.00    -0.356 OA
HETATM   23  H7  UNK     1      16.731   1.245  35.311  1.00  0.00     0.218 HD
ENDBRANCH   8  22
BRANCH  10  24
HETATM   24  O4  UNK     1      18.243  -1.330  35.037  1.00  0.00    -0.358 OA
HETATM   25  H8  UNK     1      17.878  -2.178  34.733  1.00  0.00     0.217 HD
ENDBRANCH  10  24
TORSDOF 5
ENDMDL
MODEL 4
REMARK VINA RESULT:      -8.3     13.281     17.234
REMARK  5 active torsions:
REMARK  status: ('A' for Active; 'I' for Inactive)
REMARK    1  A    between atoms: C7_13  and  O2_2 
REMARK    2  A    between atoms: C9_15  and  O4_4 
REMARK    3  A    between atoms: C13_19  and  O5_5 
REMARK    4  A    between atoms: C15_21  and  O6_6 
REMARK    5  A    between atoms: C3_9  and  C4_10 
ROOT
HETATM    1  O1  UNK     1      18.275   1.562  32.896  1.00  0.00    -0.306 OA
HETATM    2  O3  UNK     1      18.452   5.566  33.628  1.00  0.00    -0.287 OA
HETATM    3  C1  UNK     1      18.406   3.827  32.028  1.00  0.00     0.051 A 
HETATM    4  C2  UNK     1      18.340   2.447  31.849  1.00  0.00     0.126 A 
HETATM    5  C3  UNK     1      18.281   2.066  34.188  1.00  0.00     0.090 A 
HETATM    6  C5  UNK     1      18.401   4.366  33.397  1.00  0.00     0.187 A 
HETATM    7  C6  UNK     1      18.333   3.374  34.488  1.00  0.00     0.093 A 
HETATM    8  C7  UNK     1      18.341   1.910  30.561  1.00  0.00     0.134 A 
HETATM    9  C8  UNK     1      18.469   4.681  30.925  1.00  0.00     0.021 A 
HETATM   10  C9  UNK     1      18.406   2.760  29.456  1.00  0.00     0.101 A 
HETATM   11  C12 UNK     1      18.470   4.142  29.638  1.00  0.00     0.040 A 
ENDROOT
BRANCH   5  12
HETATM   12  C4  UNK     1      18.202   1.029  35.236  1.00  0.00     0.001 A 
HETATM   13  C10 UNK     1      18.564  -0.289  34.949  1.00  0.00     0.053 A 
HETATM   14  C13 UNK     1      18.490  -1.268  35.940  1.00  0.00     0.099 A 
HETATM   15  C15 UNK     1      18.052  -0.931  37.221  1.00  0.00     0.098 A 
HETATM   16  C14 UNK     1      17.689   0.384  37.511  1.00  0.00     0.040 A 
HETATM   17  C11 UNK     1      17.763   1.362  36.521  1.00  0.00     0.017 A 
BRANCH  14  18
HETATM   18  O5  UNK     1      18.847  -2.549  35.644  1.00  0.00    -0.358 OA
HETATM   19  H9  UNK     1      18.933  -3.042  36.478  1.00  0.00     0.217 HD
ENDBRANCH  14  18
BRANCH  15  20
HETATM   20  O6  UNK     1      17.974  -1.878  38.196  1.00  0.00    -0.358 OA
HETATM   21  H10 UNK     1      17.488  -1.512  38.956  1.00  0.00     0.217 HD
ENDBRANCH  15  20
ENDBRANCH   5  12
BRANCH   8  22
HETATM   22  O2  UNK     1      18.278   0.561  30.378  1.00  0.00    -0.356 OA
HETATM   23  H7  UNK     1      17.680   0.187  31.048  1.00  0.00     0.218 HD
ENDBRANCH   8  22
BRANCH  10  24
HETATM   24  O4  UNK     1      18.408   2.252  28.192  1.00  0.00    -0.358 OA
HETATM   25  H8  UNK     1      17.659   1.638  28.097  1.00  0.00     0.217 HD
ENDBRANCH  10  24
TORSDOF 5
ENDMDL
MODEL 5
REMARK VINA RESULT:      -8.2     13.510     16.660
REMARK  5 active torsions:
REMARK  status: ('A' for Active; 'I' for Inactive)
REMARK    1  A    between atoms: C7_13  and  O2_2 
REMARK    2  A    between atoms: C9_15  and  O4_4 
REMARK    3  A    between atoms: C13_19  and  O5_5 
REMARK    4  A    between atoms: C15_21  and  O6_6 
REMARK    5  A    between atoms: C3_9  and  C4_10 
ROOT
HETATM    1  O1  UNK     1      16.742   5.686  32.066  1.00  0.00    -0.306 OA
HETATM    2  O3  UNK     1      19.561   8.065  33.797  1.00  0.00    -0.287 OA
HETATM    3  C1  UNK     1      17.309   7.794  33.133  1.00  0.00     0.051 A 
HETATM    4  C2  UNK     1      16.395   6.929  32.533  1.00  0.00     0.126 A 
HETATM    5  C3  UNK     1      18.061   5.278  32.192  1.00  0.00     0.090 A 
HETATM    6  C5  UNK     1      18.707   7.360  33.278  1.00  0.00     0.187 A 
HETATM    7  C6  UNK     1      19.030   6.016  32.757  1.00  0.00     0.093 A 
HETATM    8  C7  UNK     1      15.062   7.316  32.386  1.00  0.00     0.134 A 
HETATM    9  C8  UNK     1      16.899   9.048  33.592  1.00  0.00     0.021 A 
HETATM   10  C9  UNK     1      14.650   8.569  32.841  1.00  0.00     0.101 A 
HETATM   11  C12 UNK     1      15.566   9.433  33.443  1.00  0.00     0.040 A 
ENDROOT
BRANCH   5  12
HETATM   12  C4  UNK     1      18.322   3.924  31.663  1.00  0.00     0.001 A 
HETATM   13  C10 UNK     1      18.350   2.826  32.526  1.00  0.00     0.053 A 
HETATM   14  C13 UNK     1      18.596   1.548  32.025  1.00  0.00     0.099 A 
HETATM   15  C15 UNK     1      18.816   1.364  30.661  1.00  0.00     0.098 A 
HETATM   16  C14 UNK     1      18.790   2.458  29.796  1.00  0.00     0.040 A 
HETATM   17  C11 UNK     1      18.543   3.736  30.296  1.00  0.00     0.017 A 
BRANCH  14  18
HETATM   18  O5  UNK     1      18.620   0.487  32.881  1.00  0.00    -0.358 OA
HETATM   19  H9  UNK     1      17.966  -0.166  32.576  1.00  0.00     0.217 HD
ENDBRANCH  14  18
BRANCH  15  20
HETATM   20  O6  UNK     1      19.058   0.121  30.161  1.00  0.00    -0.358 OA
HETATM   21  H10 UNK     1      18.290  -0.449  30.340  1.00  0.00     0.217 HD
ENDBRANCH  15  20
ENDBRANCH   5  12
BRANCH   8  22
HETATM   22  O2  UNK     1      14.163   6.476  31.799  1.00  0.00    -0.356 OA
HETATM   23  H7  UNK     1      13.406   6.368  32.401  1.00  0.00     0.218 HD
ENDBRANCH   8  22
BRANCH  10  24
HETATM   24  O4  UNK     1      13.353   8.961  32.704  1.00  0.00    -0.358 OA
HETATM   25  H8  UNK     1      13.332   9.874  32.370  1.00  0.00     0.217 HD
ENDBRANCH  10  24
TORSDOF 5
ENDMDL
MODEL 6
REMARK VINA RESULT:      -8.2     11.391     13.884
REMARK  5 active torsions:
REMARK  status: ('A' for Active; 'I' for Inactive)
REMARK    1  A    between atoms: C7_13  and  O2_2 
REMARK    2  A    between atoms: C9_15  and  O4_4 
REMARK    3  A    between atoms: C13_19  and  O5_5 
REMARK    4  A    between atoms: C15_21  and  O6_6 
REMARK    5  A    between atoms: C3_9  and  C4_10 
ROOT
HETATM    1  O1  UNK     1      11.776   5.745   9.416  1.00  0.00    -0.306 OA
HETATM    2  O3  UNK     1      10.263   7.292   5.964  1.00  0.00    -0.287 OA
HETATM    3  C1  UNK     1       9.885   6.012   7.914  1.00  0.00     0.051 A 
HETATM    4  C2  UNK     1      10.465   5.515   9.080  1.00  0.00     0.126 A 
HETATM    5  C3  UNK     1      12.557   6.499   8.552  1.00  0.00     0.090 A 
HETATM    6  C5  UNK     1      10.707   6.822   7.001  1.00  0.00     0.187 A 
HETATM    7  C6  UNK     1      12.111   7.037   7.406  1.00  0.00     0.093 A 
HETATM    8  C7  UNK     1       9.707   4.746   9.963  1.00  0.00     0.134 A 
HETATM    9  C8  UNK     1       8.545   5.748   7.624  1.00  0.00     0.021 A 
HETATM   10  C9  UNK     1       8.368   4.479   9.676  1.00  0.00     0.101 A 
HETATM   11  C12 UNK     1       7.788   4.978   8.509  1.00  0.00     0.040 A 
ENDROOT
BRANCH   5  12
HETATM   12  C4  UNK     1      13.947   6.689   9.013  1.00  0.00     0.001 A 
HETATM   13  C10 UNK     1      14.841   5.615   9.008  1.00  0.00     0.053 A 
HETATM   14  C13 UNK     1      16.154   5.796   9.442  1.00  0.00     0.099 A 
HETATM   15  C15 UNK     1      16.577   7.050   9.882  1.00  0.00     0.098 A 
HETATM   16  C14 UNK     1      15.687   8.124   9.889  1.00  0.00     0.040 A 
HETATM   17  C11 UNK     1      14.374   7.944   9.455  1.00  0.00     0.017 A 
BRANCH  14  18
HETATM   18  O5  UNK     1      17.014   4.739   9.432  1.00  0.00    -0.358 OA
HETATM   19  H9  UNK     1      17.140   4.438  10.348  1.00  0.00     0.217 HD
ENDBRANCH  14  18
BRANCH  15  20
HETATM   20  O6  UNK     1      17.856   7.238  10.309  1.00  0.00    -0.358 OA
HETATM   21  H10 UNK     1      18.185   8.086   9.963  1.00  0.00     0.217 HD
ENDBRANCH  15  20
ENDBRANCH   5  12
BRANCH   8  22
HETATM   22  O2  UNK     1      10.268   4.256  11.105  1.00  0.00    -0.356 OA
HETATM   23  H7  UNK     1       9.587   3.760  11.594  1.00  0.00     0.218 HD
ENDBRANCH   8  22
BRANCH  10  24
HETATM   24  O4  UNK     1       7.614   3.730  10.528  1.00  0.00    -0.358 OA
HETATM   25  H8  UNK     1       8.125   2.948  10.798  1.00  0.00     0.217 HD
ENDBRANCH  10  24
TORSDOF 5
ENDMDL
MODEL 7
REMARK VINA RESULT:      -8.2     12.653     17.255
REMARK  5 active torsions:
REMARK  status: ('A' for Active; 'I' for Inactive)
REMARK    1  A    between atoms: C7_13  and  O2_2 
REMARK    2  A    between atoms: C9_15  and  O4_4 
REMARK    3  A    between atoms: C13_19  and  O5_5 
REMARK    4  A    between atoms: C15_21  and  O6_6 
REMARK    5  A    between atoms: C3_9  and  C4_10 
ROOT
HETATM    1  O1  UNK     1      18.087   4.081  31.412  1.00  0.00    -0.306 OA
HETATM    2  O3  UNK     1      18.742   1.539  34.527  1.00  0.00    -0.287 OA
HETATM    3  C1  UNK     1      18.663   1.852  32.186  1.00  0.00     0.051 A 
HETATM    4  C2  UNK     1      18.428   2.774  31.168  1.00  0.00     0.126 A 
HETATM    5  C3  UNK     1      17.965   4.498  32.729  1.00  0.00     0.090 A 
HETATM    6  C5  UNK     1      18.546   2.293  33.585  1.00  0.00     0.187 A 
HETATM    7  C6  UNK     1      18.174   3.707  33.793  1.00  0.00     0.093 A 
HETATM    8  C7  UNK     1      18.533   2.382  29.833  1.00  0.00     0.134 A 
HETATM    9  C8  UNK     1      19.008   0.534  31.880  1.00  0.00     0.021 A 
HETATM   10  C9  UNK     1      18.877   1.065  29.523  1.00  0.00     0.101 A 
HETATM   11  C12 UNK     1      19.114   0.143  30.544  1.00  0.00     0.040 A 
ENDROOT
BRANCH   5  12
HETATM   12  C4  UNK     1      17.601   5.921  32.876  1.00  0.00     0.001 A 
HETATM   13  C10 UNK     1      16.919   6.581  31.851  1.00  0.00     0.053 A 
HETATM   14  C13 UNK     1      16.575   7.926  31.991  1.00  0.00     0.099 A 
HETATM   15  C15 UNK     1      16.912   8.614  33.156  1.00  0.00     0.098 A 
HETATM   16  C14 UNK     1      17.594   7.959  34.181  1.00  0.00     0.040 A 
HETATM   17  C11 UNK     1      17.938   6.615  34.042  1.00  0.00     0.017 A 
BRANCH  14  18
HETATM   18  O5  UNK     1      15.909   8.555  30.982  1.00  0.00    -0.358 OA
HETATM   19  H9  UNK     1      16.114   8.097  30.149  1.00  0.00     0.217 HD
ENDBRANCH  14  18
BRANCH  15  20
HETATM   20  O6  UNK     1      16.583   9.927  33.304  1.00  0.00    -0.358 OA
HETATM   21  H10 UNK     1      17.367  10.420  33.601  1.00  0.00     0.217 HD
ENDBRANCH  15  20
ENDBRANCH   5  12
BRANCH   8  22
HETATM   22  O2  UNK     1      18.304   3.278  28.832  1.00  0.00    -0.356 OA
HETATM   23  H7  UNK     1      18.596   4.156  29.133  1.00  0.00     0.218 HD
ENDBRANCH   8  22
BRANCH  10  24
HETATM   24  O4  UNK     1      18.985   0.667  28.225  1.00  0.00    -0.358 OA
HETATM   25  H8  UNK     1      19.575   1.279  27.754  1.00  0.00     0.217 HD
ENDBRANCH  10  24
TORSDOF 5
ENDMDL
MODEL 8
REMARK VINA RESULT:      -8.1     13.216     17.216
REMARK  5 active torsions:
REMARK  status: ('A' for Active; 'I' for Inactive)
REMARK    1  A    between atoms: C7_13  and  O2_2 
REMARK    2  A    between atoms: C9_15  and  O4_4 
REMARK    3  A    between atoms: C13_19  and  O5_5 
REMARK    4  A    between atoms: C15_21  and  O6_6 
REMARK    5  A    between atoms: C3_9  and  C4_10 
ROOT
HETATM    1  O1  UNK     1      18.734   0.405  32.758  1.00  0.00    -0.306 OA
HETATM    2  O3  UNK     1      17.744   4.345  32.446  1.00  0.00    -0.287 OA
HETATM    3  C1  UNK     1      18.414   2.360  31.352  1.00  0.00     0.051 A 
HETATM    4  C2  UNK     1      18.739   1.016  31.530  1.00  0.00     0.126 A 
HETATM    5  C3  UNK     1      18.397   1.161  33.871  1.00  0.00     0.090 A 
HETATM    6  C5  UNK     1      18.045   3.162  32.529  1.00  0.00     0.187 A 
HETATM    7  C6  UNK     1      18.058   2.459  33.827  1.00  0.00     0.093 A 
HETATM    8  C7  UNK     1      19.092   0.233  30.430  1.00  0.00     0.134 A 
HETATM    9  C8  UNK     1      18.435   2.929  30.077  1.00  0.00     0.021 A 
HETATM   10  C9  UNK     1      19.115   0.799  29.154  1.00  0.00     0.101 A 
HETATM   11  C12 UNK     1      18.787   2.144  28.979  1.00  0.00     0.040 A 
ENDROOT
BRANCH   5  12
HETATM   12  C4  UNK     1      18.418   0.404  35.139  1.00  0.00     0.001 A 
HETATM   13  C10 UNK     1      18.123   1.046  36.344  1.00  0.00     0.053 A 
HETATM   14  C13 UNK     1      18.142   0.330  37.541  1.00  0.00     0.099 A 
HETATM   15  C15 UNK     1      18.456  -1.029  37.536  1.00  0.00     0.098 A 
HETATM   16  C14 UNK     1      18.751  -1.673  36.335  1.00  0.00     0.040 A 
HETATM   17  C11 UNK     1      18.732  -0.958  35.138  1.00  0.00     0.017 A 
BRANCH  14  18
HETATM   18  O5  UNK     1      17.853   0.970  38.709  1.00  0.00    -0.358 OA
HETATM   19  H9  UNK     1      17.818   0.307  39.420  1.00  0.00     0.217 HD
ENDBRANCH  14  18
BRANCH  15  20
HETATM   20  O6  UNK     1      18.479  -1.738  38.699  1.00  0.00    -0.358 OA
HETATM   21  H10 UNK     1      18.309  -1.134  39.443  1.00  0.00     0.217 HD
ENDBRANCH  15  20
ENDBRANCH   5  12
BRANCH   8  22
HETATM   22  O2  UNK     1      19.412  -1.082  30.596  1.00  0.00    -0.356 OA
HETATM   23  H7  UNK     1      18.665  -1.527  31.032  1.00  0.00     0.218 HD
ENDBRANCH   8  22
BRANCH  10  24
HETATM   24  O4  UNK     1      19.456   0.048  28.071  1.00  0.00    -0.358 OA
HETATM   25  H8  UNK     1      19.038  -0.827  28.148  1.00  0.00     0.217 HD
ENDBRANCH  10  24
TORSDOF 5
ENDMDL
MODEL 9
REMARK VINA RESULT:      -8.0      1.771      6.803
REMARK  5 active torsions:
REMARK  status: ('A' for Active; 'I' for Inactive)
REMARK    1  A    between atoms: C7_13  and  O2_2 
REMARK    2  A    between atoms: C9_15  and  O4_4 
REMARK    3  A    between atoms: C13_19  and  O5_5 
REMARK    4  A    between atoms: C15_21  and  O6_6 
REMARK    5  A    between atoms: C3_9  and  C4_10 
ROOT
HETATM    1  O1  UNK     1      20.380  -2.295  16.694  1.00  0.00    -0.306 OA
HETATM    2  O3  UNK     1      17.545  -3.983  14.304  1.00  0.00    -0.287 OA
HETATM    3  C1  UNK     1      19.629  -4.206  15.396  1.00  0.00     0.051 A 
HETATM    4  C2  UNK     1      20.557  -3.570  16.219  1.00  0.00     0.126 A 
HETATM    5  C3  UNK     1      19.231  -1.609  16.332  1.00  0.00     0.090 A 
HETATM    6  C5  UNK     1      18.403  -3.485  15.019  1.00  0.00     0.187 A 
HETATM    7  C6  UNK     1      18.262  -2.116  15.553  1.00  0.00     0.093 A 
HETATM    8  C7  UNK     1      21.727  -4.233  16.593  1.00  0.00     0.134 A 
HETATM    9  C8  UNK     1      19.861  -5.507  14.943  1.00  0.00     0.021 A 
HETATM   10  C9  UNK     1      21.963  -5.532  16.141  1.00  0.00     0.101 A 
HETATM   11  C12 UNK     1      21.032  -6.167  15.318  1.00  0.00     0.040 A 
ENDROOT
BRANCH   5  12
HETATM   12  C4  UNK     1      19.140  -0.249  16.902  1.00  0.00     0.001 A 
HETATM   13  C10 UNK     1      19.214   0.868  16.067  1.00  0.00     0.053 A 
HETATM   14  C13 UNK     1      19.127   2.152  16.607  1.00  0.00     0.099 A 
HETATM   15  C15 UNK     1      18.966   2.321  17.982  1.00  0.00     0.098 A 
HETATM   16  C14 UNK     1      18.892   1.208  18.818  1.00  0.00     0.040 A 
HETATM   17  C11 UNK     1      18.979  -0.075  18.280  1.00  0.00     0.017 A 
BRANCH  14  18
HETATM   18  O5  UNK     1      19.201   3.232  15.779  1.00  0.00    -0.358 OA
HETATM   19  H9  UNK     1      18.496   3.156  15.114  1.00  0.00     0.217 HD
ENDBRANCH  14  18
BRANCH  15  20
HETATM   20  O6  UNK     1      18.881   3.569  18.520  1.00  0.00    -0.358 OA
HETATM   21  H10 UNK     1      19.539   3.654  19.232  1.00  0.00     0.217 HD
ENDBRANCH  15  20
ENDBRANCH   5  12
BRANCH   8  22
HETATM   22  O2  UNK     1      22.640  -3.617  17.397  1.00  0.00    -0.356 OA
HETATM   23  H7  UNK     1      23.521  -3.722  16.998  1.00  0.00     0.218 HD
ENDBRANCH   8  22
BRANCH  10  24
HETATM   24  O4  UNK     1      23.100  -6.192  16.497  1.00  0.00    -0.358 OA
HETATM   25  H8  UNK     1      23.581  -6.449  15.693  1.00  0.00     0.217 HD
ENDBRANCH  10  24
TORSDOF 5
ENDMDL
MODEL 10
REMARK VINA RESULT:      -8.0     13.831     16.848
REMARK  5 active torsions:
REMARK  status: ('A' for Active; 'I' for Inactive)
REMARK    1  A    between atoms: C7_13  and  O2_2 
REMARK    2  A    between atoms: C9_15  and  O4_4 
REMARK    3  A    between atoms: C13_19  and  O5_5 
REMARK    4  A    between atoms: C15_21  and  O6_6 
REMARK    5  A    between atoms: C3_9  and  C4_10 
ROOT
HETATM    1  O1  UNK     1      16.686   5.697  32.387  1.00  0.00    -0.306 OA
HETATM    2  O3  UNK     1      19.527   8.167  33.946  1.00  0.00    -0.287 OA
HETATM    3  C1  UNK     1      17.287   7.888  33.247  1.00  0.00     0.051 A 
HETATM    4  C2  UNK     1      16.364   6.990  32.714  1.00  0.00     0.126 A 
HETATM    5  C3  UNK     1      17.989   5.269  32.592  1.00  0.00     0.090 A 
HETATM    6  C5  UNK     1      18.667   7.435  33.477  1.00  0.00     0.187 A 
HETATM    7  C6  UNK     1      18.964   6.036  33.107  1.00  0.00     0.093 A 
HETATM    8  C7  UNK     1      15.047   7.395  32.488  1.00  0.00     0.134 A 
HETATM    9  C8  UNK     1      16.902   9.193  33.562  1.00  0.00     0.021 A 
HETATM   10  C9  UNK     1      14.660   8.699  32.800  1.00  0.00     0.101 A 
HETATM   11  C12 UNK     1      15.585   9.596  33.336  1.00  0.00     0.040 A 
ENDROOT
BRANCH   5  12
HETATM   12  C4  UNK     1      18.225   3.862  32.213  1.00  0.00     0.001 A 
HETATM   13  C10 UNK     1      18.497   3.529  30.884  1.00  0.00     0.053 A 
HETATM   14  C13 UNK     1      18.721   2.199  30.527  1.00  0.00     0.099 A 
HETATM   15  C15 UNK     1      18.672   1.199  31.498  1.00  0.00     0.098 A 
HETATM   16  C14 UNK     1      18.400   1.528  32.825  1.00  0.00     0.040 A 
HETATM   17  C11 UNK     1      18.177   2.856  33.183  1.00  0.00     0.017 A 
BRANCH  14  18
HETATM   18  O5  UNK     1      18.984   1.890  29.226  1.00  0.00    -0.358 OA
HETATM   19  H9  UNK     1      18.426   1.135  28.972  1.00  0.00     0.217 HD
ENDBRANCH  14  18
BRANCH  15  20
HETATM   20  O6  UNK     1      18.887  -0.103  31.161  1.00  0.00    -0.358 OA
HETATM   21  H10 UNK     1      18.764  -0.660  31.950  1.00  0.00     0.217 HD
ENDBRANCH  15  20
ENDBRANCH   5  12
BRANCH   8  22
HETATM   22  O2  UNK     1      14.139   6.523  31.965  1.00  0.00    -0.356 OA
HETATM   23  H7  UNK     1      13.280   6.975  31.901  1.00  0.00     0.218 HD
ENDBRANCH   8  22
BRANCH  10  24
HETATM   24  O4  UNK     1      13.379   9.109  32.586  1.00  0.00    -0.358 OA
HETATM   25  H8  UNK     1      13.239   9.225  31.631  1.00  0.00     0.217 HD
ENDBRANCH  10  24
TORSDOF 5
ENDMDL
