MODEL 1
REMARK VINA RESULT:     -10.0      0.000      0.000
REMARK  2 active torsions:
REMARK  status: ('A' for Active; 'I' for Inactive)
REMARK    1  A    between atoms: C3_12  and  N1_9 
REMARK       I    between atoms: C6_15  and  N1_9 
REMARK    2  A    between atoms: C2_11  and  C6_15 
ROOT
HETATM    1  O2  UNK     1      17.604   3.505  32.919  1.00  0.00    -0.267 OA
HETATM    2  N1  UNK     1      18.856   4.971  31.560  1.00  0.00    -0.317 N 
HETATM    3  C6  UNK     1      18.319   3.753  31.950  1.00  0.00     0.262 C 
HETATM    4  H2  UNK     1      19.238   5.041  30.619  1.00  0.00     0.169 HD
ENDROOT
BRANCH   2   5
HETATM    5  C3  UNK     1      18.687   6.194  32.215  1.00  0.00     0.119 A 
HETATM    6  C7  UNK     1      17.448   6.831  32.187  1.00  0.00     0.188 A 
HETATM    7  C13 UNK     1      17.279   8.052  32.841  1.00  0.00     0.199 A 
HETATM    8  F1  UNK     1      16.412   6.283  31.536  1.00  0.00    -0.200 F 
HETATM    9  C14 UNK     1      18.348   8.633  33.522  1.00  0.00     0.199 A 
HETATM   10  F4  UNK     1      16.089   8.667  32.813  1.00  0.00    -0.199 F 
HETATM   11  C12 UNK     1      19.588   7.993  33.549  1.00  0.00     0.199 A 
HETATM   12  F5  UNK     1      18.187   9.805  34.149  1.00  0.00    -0.199 F 
HETATM   13  C8  UNK     1      19.757   6.773  32.894  1.00  0.00     0.188 A 
HETATM   14  F3  UNK     1      20.616   8.551  34.202  1.00  0.00    -0.199 F 
HETATM   15  F2  UNK     1      20.953   6.167  32.926  1.00  0.00    -0.200 F 
ENDBRANCH   2   5
BRANCH   3  16
HETATM   16  C2  UNK     1      18.698   2.670  31.034  1.00  0.00     0.108 A 
HETATM   17  C4  UNK     1      19.090   1.524  31.604  1.00  0.00     0.037 A 
HETATM   18  C1  UNK     1      19.485   0.392  30.779  1.00  0.00    -0.001 A 
HETATM   19  C5  UNK     1      19.449   0.523  29.395  1.00  0.00     0.089 A 
HETATM   20  C10 UNK     1      19.901  -0.822  31.330  1.00  0.00     0.014 A 
HETATM   21  C11 UNK     1      19.814  -0.522  28.549  1.00  0.00     0.038 A 
HETATM   22  O1  UNK     1      19.033   1.732  28.801  1.00  0.00    -0.274 OA
HETATM   23  C16 UNK     1      20.228  -1.729  29.106  1.00  0.00     0.003 A 
HETATM   24  C15 UNK     1      20.271  -1.879  30.495  1.00  0.00     0.001 A 
HETATM   25  C9  UNK     1      18.650   2.831  29.564  1.00  0.00     0.304 A 
HETATM   26  O3  UNK     1      18.291   3.880  29.039  1.00  0.00    -0.259 OA
ENDBRANCH   3  16
TORSDOF 2
ENDMDL
MODEL 2
REMARK VINA RESULT:     -10.0      0.006      2.129
REMARK  2 active torsions:
REMARK  status: ('A' for Active; 'I' for Inactive)
REMARK    1  A    between atoms: C3_12  and  N1_9 
REMARK       I    between atoms: C6_15  and  N1_9 
REMARK    2  A    between atoms: C2_11  and  C6_15 
ROOT
HETATM    1  O2  UNK     1      17.605   3.506  32.924  1.00  0.00    -0.267 OA
HETATM    2  N1  UNK     1      18.856   4.974  31.565  1.00  0.00    -0.317 N 
HETATM    3  C6  UNK     1      18.319   3.755  31.954  1.00  0.00     0.262 C 
HETATM    4  H2  UNK     1      19.237   5.045  30.624  1.00  0.00     0.169 HD
ENDROOT
BRANCH   2   5
HETATM    5  C3  UNK     1      18.686   6.196  32.220  1.00  0.00     0.119 A 
HETATM    6  C7  UNK     1      19.757   6.776  32.898  1.00  0.00     0.188 A 
HETATM    7  C13 UNK     1      19.587   7.997  33.552  1.00  0.00     0.199 A 
HETATM    8  F1  UNK     1      20.953   6.173  32.928  1.00  0.00    -0.200 F 
HETATM    9  C14 UNK     1      18.347   8.635  33.528  1.00  0.00     0.199 A 
HETATM   10  F4  UNK     1      20.615   8.554  34.206  1.00  0.00    -0.199 F 
HETATM   11  C12 UNK     1      17.276   8.053  32.849  1.00  0.00     0.199 A 
HETATM   12  F5  UNK     1      18.183   9.806  34.156  1.00  0.00    -0.199 F 
HETATM   13  C8  UNK     1      17.446   6.832  32.195  1.00  0.00     0.188 A 
HETATM   14  F3  UNK     1      16.085   8.665  32.826  1.00  0.00    -0.199 F 
HETATM   15  F2  UNK     1      16.410   6.281  31.546  1.00  0.00    -0.200 F 
ENDBRANCH   2   5
BRANCH   3  16
HETATM   16  C2  UNK     1      18.698   2.673  31.038  1.00  0.00     0.108 A 
HETATM   17  C4  UNK     1      19.090   1.526  31.608  1.00  0.00     0.037 A 
HETATM   18  C1  UNK     1      19.486   0.395  30.781  1.00  0.00    -0.001 A 
HETATM   19  C5  UNK     1      19.450   0.527  29.397  1.00  0.00     0.089 A 
HETATM   20  C10 UNK     1      19.902  -0.819  31.332  1.00  0.00     0.014 A 
HETATM   21  C11 UNK     1      19.815  -0.517  28.550  1.00  0.00     0.038 A 
HETATM   22  O1  UNK     1      19.034   1.736  28.804  1.00  0.00    -0.274 OA
HETATM   23  C16 UNK     1      20.229  -1.725  29.107  1.00  0.00     0.003 A 
HETATM   24  C15 UNK     1      20.272  -1.875  30.496  1.00  0.00     0.001 A 
HETATM   25  C9  UNK     1      18.651   2.835  29.568  1.00  0.00     0.304 A 
HETATM   26  O3  UNK     1      18.292   3.884  29.043  1.00  0.00    -0.259 OA
ENDBRANCH   3  16
TORSDOF 2
ENDMDL
MODEL 3
REMARK VINA RESULT:     -10.0      9.485     12.673
REMARK  2 active torsions:
REMARK  status: ('A' for Active; 'I' for Inactive)
REMARK    1  A    between atoms: C3_12  and  N1_9 
REMARK       I    between atoms: C6_15  and  N1_9 
REMARK    2  A    between atoms: C2_11  and  C6_15 
ROOT
HETATM    1  O2  UNK     1      21.239  -4.463  37.251  1.00  0.00    -0.267 OA
HETATM    2  N1  UNK     1      19.465  -5.400  36.008  1.00  0.00    -0.317 N 
HETATM    3  C6  UNK     1      20.243  -4.379  36.535  1.00  0.00     0.262 C 
HETATM    4  H2  UNK     1      18.815  -5.165  35.261  1.00  0.00     0.169 HD
ENDROOT
BRANCH   2   5
HETATM    5  C3  UNK     1      19.667  -6.770  36.198  1.00  0.00     0.119 A 
HETATM    6  C7  UNK     1      20.434  -7.492  35.285  1.00  0.00     0.188 A 
HETATM    7  C13 UNK     1      20.635  -8.860  35.474  1.00  0.00     0.199 A 
HETATM    8  F1  UNK     1      20.983  -6.885  34.223  1.00  0.00    -0.200 F 
HETATM    9  C14 UNK     1      20.070  -9.502  36.575  1.00  0.00     0.199 A 
HETATM   10  F4  UNK     1      21.370  -9.556  34.597  1.00  0.00    -0.199 F 
HETATM   11  C12 UNK     1      19.303  -8.778  37.488  1.00  0.00     0.199 A 
HETATM   12  F5  UNK     1      20.263 -10.815  36.757  1.00  0.00    -0.199 F 
HETATM   13  C8  UNK     1      19.101  -7.410  37.298  1.00  0.00     0.188 A 
HETATM   14  F3  UNK     1      18.759  -9.395  38.545  1.00  0.00    -0.199 F 
HETATM   15  F2  UNK     1      18.362  -6.724  38.181  1.00  0.00    -0.200 F 
ENDBRANCH   2   5
BRANCH   3  16
HETATM   16  C2  UNK     1      19.748  -3.055  36.138  1.00  0.00     0.108 A 
HETATM   17  C4  UNK     1      19.050  -2.383  37.061  1.00  0.00     0.037 A 
HETATM   18  C1  UNK     1      18.517  -1.063  36.761  1.00  0.00    -0.001 A 
HETATM   19  C5  UNK     1      18.747  -0.514  35.504  1.00  0.00     0.089 A 
HETATM   20  C10 UNK     1      17.782  -0.327  37.693  1.00  0.00     0.014 A 
HETATM   21  C11 UNK     1      18.266   0.745  35.153  1.00  0.00     0.038 A 
HETATM   22  O1  UNK     1      19.485  -1.225  34.536  1.00  0.00    -0.274 OA
HETATM   23  C16 UNK     1      17.533   1.473  36.088  1.00  0.00     0.003 A 
HETATM   24  C15 UNK     1      17.293   0.938  37.356  1.00  0.00     0.001 A 
HETATM   25  C9  UNK     1      20.006  -2.490  34.794  1.00  0.00     0.304 A 
HETATM   26  O3  UNK     1      20.646  -3.103  33.946  1.00  0.00    -0.259 OA
ENDBRANCH   3  16
TORSDOF 2
ENDMDL
MODEL 4
REMARK VINA RESULT:     -10.0      9.455     12.597
REMARK  2 active torsions:
REMARK  status: ('A' for Active; 'I' for Inactive)
REMARK    1  A    between atoms: C3_12  and  N1_9 
REMARK       I    between atoms: C6_15  and  N1_9 
REMARK    2  A    between atoms: C2_11  and  C6_15 
ROOT
HETATM    1  O2  UNK     1      21.276  -4.401  37.228  1.00  0.00    -0.267 OA
HETATM    2  N1  UNK     1      19.494  -5.358  36.013  1.00  0.00    -0.317 N 
HETATM    3  C6  UNK     1      20.269  -4.328  36.526  1.00  0.00     0.262 C 
HETATM    4  H2  UNK     1      18.831  -5.131  35.275  1.00  0.00     0.169 HD
ENDROOT
BRANCH   2   5
HETATM    5  C3  UNK     1      19.712  -6.726  36.202  1.00  0.00     0.119 A 
HETATM    6  C7  UNK     1      19.196  -7.362  37.330  1.00  0.00     0.188 A 
HETATM    7  C13 UNK     1      19.413  -8.727  37.519  1.00  0.00     0.199 A 
HETATM    8  F1  UNK     1      18.491  -6.674  38.239  1.00  0.00    -0.200 F 
HETATM    9  C14 UNK     1      20.145  -9.453  36.580  1.00  0.00     0.199 A 
HETATM   10  F4  UNK     1      18.921  -9.340  38.604  1.00  0.00    -0.199 F 
HETATM   11  C12 UNK     1      20.660  -8.815  35.451  1.00  0.00     0.199 A 
HETATM   12  F5  UNK     1      20.355 -10.764  36.761  1.00  0.00    -0.199 F 
HETATM   13  C8  UNK     1      20.443  -7.449  35.263  1.00  0.00     0.188 A 
HETATM   14  F3  UNK     1      21.364  -9.512  34.549  1.00  0.00    -0.199 F 
HETATM   15  F2  UNK     1      20.943  -6.846  34.175  1.00  0.00    -0.200 F 
ENDBRANCH   2   5
BRANCH   3  16
HETATM   16  C2  UNK     1      19.756  -3.010  36.133  1.00  0.00     0.108 A 
HETATM   17  C4  UNK     1      19.064  -2.343  37.065  1.00  0.00     0.037 A 
HETATM   18  C1  UNK     1      18.514  -1.028  36.770  1.00  0.00    -0.001 A 
HETATM   19  C5  UNK     1      18.720  -0.481  35.508  1.00  0.00     0.089 A 
HETATM   20  C10 UNK     1      17.786  -0.297  37.711  1.00  0.00     0.014 A 
HETATM   21  C11 UNK     1      18.222   0.773  35.161  1.00  0.00     0.038 A 
HETATM   22  O1  UNK     1      19.451  -1.187  34.532  1.00  0.00    -0.274 OA
HETATM   23  C16 UNK     1      17.496   1.496  36.106  1.00  0.00     0.003 A 
HETATM   24  C15 UNK     1      17.279   0.962  37.378  1.00  0.00     0.001 A 
HETATM   25  C9  UNK     1      19.988  -2.446  34.784  1.00  0.00     0.304 A 
HETATM   26  O3  UNK     1      20.622  -3.054  33.929  1.00  0.00    -0.259 OA
ENDBRANCH   3  16
TORSDOF 2
ENDMDL
MODEL 5
REMARK VINA RESULT:     -10.0      9.700     12.483
REMARK  2 active torsions:
REMARK  status: ('A' for Active; 'I' for Inactive)
REMARK    1  A    between atoms: C3_12  and  N1_9 
REMARK       I    between atoms: C6_15  and  N1_9 
REMARK    2  A    between atoms: C2_11  and  C6_15 
ROOT
HETATM    1  O2  UNK     1      20.138  -5.139  35.324  1.00  0.00    -0.267 OA
HETATM    2  N1  UNK     1      20.025  -4.701  37.639  1.00  0.00    -0.317 N 
HETATM    3  C6  UNK     1      19.956  -4.397  36.287  1.00  0.00     0.262 C 
HETATM    4  H2  UNK     1      19.632  -4.031  38.297  1.00  0.00     0.169 HD
ENDROOT
BRANCH   2   5
HETATM    5  C3  UNK     1      20.327  -5.951  38.188  1.00  0.00     0.119 A 
HETATM    6  C7  UNK     1      19.356  -6.949  38.220  1.00  0.00     0.188 A 
HETATM    7  C13 UNK     1      19.658  -8.196  38.768  1.00  0.00     0.199 A 
HETATM    8  F1  UNK     1      18.130  -6.725  37.727  1.00  0.00    -0.200 F 
HETATM    9  C14 UNK     1      20.930  -8.442  39.283  1.00  0.00     0.199 A 
HETATM   10  F4  UNK     1      18.724  -9.157  38.801  1.00  0.00    -0.199 F 
HETATM   11  C12 UNK     1      21.901  -7.441  39.250  1.00  0.00     0.199 A 
HETATM   12  F5  UNK     1      21.220  -9.639  39.810  1.00  0.00    -0.199 F 
HETATM   13  C8  UNK     1      21.599  -6.194  38.703  1.00  0.00     0.188 A 
HETATM   14  F3  UNK     1      23.123  -7.677  39.747  1.00  0.00    -0.199 F 
HETATM   15  F2  UNK     1      22.540  -5.239  38.678  1.00  0.00    -0.200 F 
ENDBRANCH   2   5
BRANCH   3  16
HETATM   16  C2  UNK     1      19.615  -2.988  36.061  1.00  0.00     0.108 A 
HETATM   17  C4  UNK     1      18.887  -2.395  37.015  1.00  0.00     0.037 A 
HETATM   18  C1  UNK     1      18.499  -0.999  36.879  1.00  0.00    -0.001 A 
HETATM   19  C5  UNK     1      18.896  -0.296  35.746  1.00  0.00     0.089 A 
HETATM   20  C10 UNK     1      17.740  -0.340  37.849  1.00  0.00     0.014 A 
HETATM   21  C11 UNK     1      18.558   1.042  35.556  1.00  0.00     0.038 A 
HETATM   22  O1  UNK     1      19.663  -0.926  34.746  1.00  0.00    -0.274 OA
HETATM   23  C16 UNK     1      17.800   1.692  36.527  1.00  0.00     0.003 A 
HETATM   24  C15 UNK     1      17.393   1.002  37.672  1.00  0.00     0.001 A 
HETATM   25  C9  UNK     1      20.049  -2.259  34.847  1.00  0.00     0.304 A 
HETATM   26  O3  UNK     1      20.716  -2.801  33.971  1.00  0.00    -0.259 OA
ENDBRANCH   3  16
TORSDOF 2
ENDMDL
MODEL 6
REMARK VINA RESULT:     -10.0      9.707     12.658
REMARK  2 active torsions:
REMARK  status: ('A' for Active; 'I' for Inactive)
REMARK    1  A    between atoms: C3_12  and  N1_9 
REMARK       I    between atoms: C6_15  and  N1_9 
REMARK    2  A    between atoms: C2_11  and  C6_15 
ROOT
HETATM    1  O2  UNK     1      20.139  -5.142  35.326  1.00  0.00    -0.267 OA
HETATM    2  N1  UNK     1      20.007  -4.710  37.642  1.00  0.00    -0.317 N 
HETATM    3  C6  UNK     1      19.949  -4.403  36.290  1.00  0.00     0.262 C 
HETATM    4  H2  UNK     1      19.609  -4.042  38.298  1.00  0.00     0.169 HD
ENDROOT
BRANCH   2   5
HETATM    5  C3  UNK     1      20.306  -5.961  38.190  1.00  0.00     0.119 A 
HETATM    6  C7  UNK     1      21.571  -6.202  38.722  1.00  0.00     0.188 A 
HETATM    7  C13 UNK     1      21.869  -7.451  39.269  1.00  0.00     0.199 A 
HETATM    8  F1  UNK     1      22.509  -5.245  38.713  1.00  0.00    -0.200 F 
HETATM    9  C14 UNK     1      20.901  -8.454  39.285  1.00  0.00     0.199 A 
HETATM   10  F4  UNK     1      23.086  -7.685  39.778  1.00  0.00    -0.199 F 
HETATM   11  C12 UNK     1      19.635  -8.211  38.753  1.00  0.00     0.199 A 
HETATM   12  F5  UNK     1      21.187  -9.653  39.810  1.00  0.00    -0.199 F 
HETATM   13  C8  UNK     1      19.337  -6.962  38.205  1.00  0.00     0.188 A 
HETATM   14  F3  UNK     1      18.705  -9.175  38.766  1.00  0.00    -0.199 F 
HETATM   15  F2  UNK     1      18.117  -6.739  37.695  1.00  0.00    -0.200 F 
ENDBRANCH   2   5
BRANCH   3  16
HETATM   16  C2  UNK     1      19.609  -2.993  36.064  1.00  0.00     0.108 A 
HETATM   17  C4  UNK     1      18.877  -2.401  37.016  1.00  0.00     0.037 A 
HETATM   18  C1  UNK     1      18.489  -1.005  36.881  1.00  0.00    -0.001 A 
HETATM   19  C5  UNK     1      18.891  -0.301  35.751  1.00  0.00     0.089 A 
HETATM   20  C10 UNK     1      17.726  -0.348  37.849  1.00  0.00     0.014 A 
HETATM   21  C11 UNK     1      18.555   1.037  35.561  1.00  0.00     0.038 A 
HETATM   22  O1  UNK     1      19.663  -0.929  34.753  1.00  0.00    -0.274 OA
HETATM   23  C16 UNK     1      17.792   1.686  36.531  1.00  0.00     0.003 A 
HETATM   24  C15 UNK     1      17.380   0.995  37.673  1.00  0.00     0.001 A 
HETATM   25  C9  UNK     1      20.048  -2.263  34.854  1.00  0.00     0.304 A 
HETATM   26  O3  UNK     1      20.719  -2.803  33.980  1.00  0.00    -0.259 OA
ENDBRANCH   3  16
TORSDOF 2
ENDMDL
MODEL 7
REMARK VINA RESULT:      -9.7      8.203      9.886
REMARK  2 active torsions:
REMARK  status: ('A' for Active; 'I' for Inactive)
REMARK    1  A    between atoms: C3_12  and  N1_9 
REMARK       I    between atoms: C6_15  and  N1_9 
REMARK    2  A    between atoms: C2_11  and  C6_15 
ROOT
HETATM    1  O2  UNK     1      20.948  -3.071  37.624  1.00  0.00    -0.267 OA
HETATM    2  N1  UNK     1      18.949  -3.145  36.373  1.00  0.00    -0.317 N 
HETATM    3  C6  UNK     1      20.052  -3.669  37.032  1.00  0.00     0.262 C 
HETATM    4  H2  UNK     1      18.195  -3.783  36.129  1.00  0.00     0.169 HD
ENDROOT
BRANCH   2   5
HETATM    5  C3  UNK     1      18.632  -1.789  36.248  1.00  0.00     0.119 A 
HETATM    6  C7  UNK     1      18.769  -1.154  35.015  1.00  0.00     0.188 A 
HETATM    7  C13 UNK     1      18.452   0.199  34.890  1.00  0.00     0.199 A 
HETATM    8  F1  UNK     1      19.203  -1.832  33.943  1.00  0.00    -0.200 F 
HETATM    9  C14 UNK     1      17.999   0.914  35.998  1.00  0.00     0.199 A 
HETATM   10  F4  UNK     1      18.586   0.811  33.706  1.00  0.00    -0.199 F 
HETATM   11  C12 UNK     1      17.862   0.277  37.231  1.00  0.00     0.199 A 
HETATM   12  F5  UNK     1      17.695   2.213  35.879  1.00  0.00    -0.199 F 
HETATM   13  C8  UNK     1      18.179  -1.076  37.356  1.00  0.00     0.188 A 
HETATM   14  F3  UNK     1      17.427   0.964  38.296  1.00  0.00    -0.199 F 
HETATM   15  F2  UNK     1      18.045  -1.678  38.546  1.00  0.00    -0.200 F 
ENDBRANCH   2   5
BRANCH   3  16
HETATM   16  C2  UNK     1      20.080  -5.135  36.969  1.00  0.00     0.108 A 
HETATM   17  C4  UNK     1      20.011  -5.778  38.141  1.00  0.00     0.037 A 
HETATM   18  C1  UNK     1      20.033  -7.233  38.181  1.00  0.00    -0.001 A 
HETATM   19  C5  UNK     1      20.126  -7.938  36.986  1.00  0.00     0.089 A 
HETATM   20  C10 UNK     1      19.964  -7.946  39.381  1.00  0.00     0.014 A 
HETATM   21  C11 UNK     1      20.150  -9.331  36.955  1.00  0.00     0.038 A 
HETATM   22  O1  UNK     1      20.196  -7.256  35.756  1.00  0.00    -0.274 OA
HETATM   23  C16 UNK     1      20.082 -10.035  38.156  1.00  0.00     0.003 A 
HETATM   24  C15 UNK     1      19.988  -9.343  39.366  1.00  0.00     0.001 A 
HETATM   25  C9  UNK     1      20.178  -5.866  35.685  1.00  0.00     0.304 A 
HETATM   26  O3  UNK     1      20.241  -5.279  34.610  1.00  0.00    -0.259 OA
ENDBRANCH   3  16
TORSDOF 2
ENDMDL
MODEL 8
REMARK VINA RESULT:      -9.7      8.201      9.897
REMARK  2 active torsions:
REMARK  status: ('A' for Active; 'I' for Inactive)
REMARK    1  A    between atoms: C3_12  and  N1_9 
REMARK       I    between atoms: C6_15  and  N1_9 
REMARK    2  A    between atoms: C2_11  and  C6_15 
ROOT
HETATM    1  O2  UNK     1      20.960  -3.077  37.609  1.00  0.00    -0.267 OA
HETATM    2  N1  UNK     1      18.952  -3.147  36.372  1.00  0.00    -0.317 N 
HETATM    3  C6  UNK     1      20.058  -3.674  37.023  1.00  0.00     0.262 C 
HETATM    4  H2  UNK     1      18.195  -3.783  36.134  1.00  0.00     0.169 HD
ENDROOT
BRANCH   2   5
HETATM    5  C3  UNK     1      18.638  -1.791  36.248  1.00  0.00     0.119 A 
HETATM    6  C7  UNK     1      18.183  -1.079  37.357  1.00  0.00     0.188 A 
HETATM    7  C13 UNK     1      17.869   0.275  37.233  1.00  0.00     0.199 A 
HETATM    8  F1  UNK     1      18.044  -1.682  38.545  1.00  0.00    -0.200 F 
HETATM    9  C14 UNK     1      18.011   0.914  36.002  1.00  0.00     0.199 A 
HETATM   10  F4  UNK     1      17.430   0.960  38.297  1.00  0.00    -0.199 F 
HETATM   11  C12 UNK     1      18.466   0.200  34.893  1.00  0.00     0.199 A 
HETATM   12  F5  UNK     1      17.709   2.214  35.882  1.00  0.00    -0.199 F 
HETATM   13  C8  UNK     1      18.780  -1.154  35.017  1.00  0.00     0.188 A 
HETATM   14  F3  UNK     1      18.601   0.814  33.710  1.00  0.00    -0.199 F 
HETATM   15  F2  UNK     1      19.216  -1.831  33.945  1.00  0.00    -0.200 F 
ENDBRANCH   2   5
BRANCH   3  16
HETATM   16  C2  UNK     1      20.082  -5.140  36.961  1.00  0.00     0.108 A 
HETATM   17  C4  UNK     1      20.020  -5.782  38.134  1.00  0.00     0.037 A 
HETATM   18  C1  UNK     1      20.038  -7.237  38.175  1.00  0.00    -0.001 A 
HETATM   19  C5  UNK     1      20.121  -7.943  36.980  1.00  0.00     0.089 A 
HETATM   20  C10 UNK     1      19.975  -7.949  39.375  1.00  0.00     0.014 A 
HETATM   21  C11 UNK     1      20.142  -9.336  36.950  1.00  0.00     0.038 A 
HETATM   22  O1  UNK     1      20.184  -7.261  35.748  1.00  0.00    -0.274 OA
HETATM   23  C16 UNK     1      20.080 -10.039  38.151  1.00  0.00     0.003 A 
HETATM   24  C15 UNK     1      19.996  -9.346  39.362  1.00  0.00     0.001 A 
HETATM   25  C9  UNK     1      20.170  -5.871  35.677  1.00  0.00     0.304 A 
HETATM   26  O3  UNK     1      20.227  -5.285  34.601  1.00  0.00    -0.259 OA
ENDBRANCH   3  16
TORSDOF 2
ENDMDL
MODEL 9
REMARK VINA RESULT:      -9.6      1.071      1.927
REMARK  2 active torsions:
REMARK  status: ('A' for Active; 'I' for Inactive)
REMARK    1  A    between atoms: C3_12  and  N1_9 
REMARK       I    between atoms: C6_15  and  N1_9 
REMARK    2  A    between atoms: C2_11  and  C6_15 
ROOT
HETATM    1  O2  UNK     1      18.298   4.619  30.311  1.00  0.00    -0.267 OA
HETATM    2  N1  UNK     1      18.478   4.701  32.662  1.00  0.00    -0.317 N 
HETATM    3  C6  UNK     1      18.476   4.100  31.412  1.00  0.00     0.262 C 
HETATM    4  H2  UNK     1      18.858   4.170  33.443  1.00  0.00     0.169 HD
ENDROOT
BRANCH   2   5
HETATM    5  C3  UNK     1      18.270   6.058  32.924  1.00  0.00     0.119 A 
HETATM    6  C7  UNK     1      17.027   6.633  32.664  1.00  0.00     0.188 A 
HETATM    7  C13 UNK     1      16.820   7.988  32.926  1.00  0.00     0.199 A 
HETATM    8  F1  UNK     1      16.025   5.897  32.164  1.00  0.00    -0.200 F 
HETATM    9  C14 UNK     1      17.854   8.765  33.447  1.00  0.00     0.199 A 
HETATM   10  F4  UNK     1      15.626   8.543  32.674  1.00  0.00    -0.199 F 
HETATM   11  C12 UNK     1      19.097   8.187  33.707  1.00  0.00     0.199 A 
HETATM   12  F5  UNK     1      17.655  10.065  33.698  1.00  0.00    -0.199 F 
HETATM   13  C8  UNK     1      19.305   6.832  33.445  1.00  0.00     0.188 A 
HETATM   14  F3  UNK     1      20.092   8.933  34.206  1.00  0.00    -0.199 F 
HETATM   15  F2  UNK     1      20.504   6.288  33.697  1.00  0.00    -0.200 F 
ENDBRANCH   2   5
BRANCH   3  16
HETATM   16  C2  UNK     1      18.727   2.656  31.499  1.00  0.00     0.108 A 
HETATM   17  C4  UNK     1      19.305   2.091  30.432  1.00  0.00     0.037 A 
HETATM   18  C1  UNK     1      19.593   0.665  30.425  1.00  0.00    -0.001 A 
HETATM   19  C5  UNK     1      19.258  -0.096  31.540  1.00  0.00     0.089 A 
HETATM   20  C10 UNK     1      20.194   0.033  29.334  1.00  0.00     0.014 A 
HETATM   21  C11 UNK     1      19.507  -1.466  31.596  1.00  0.00     0.038 A 
HETATM   22  O1  UNK     1      18.651   0.505  32.660  1.00  0.00    -0.274 OA
HETATM   23  C16 UNK     1      20.107  -2.089  30.504  1.00  0.00     0.003 A 
HETATM   24  C15 UNK     1      20.451  -1.340  29.375  1.00  0.00     0.001 A 
HETATM   25  C9  UNK     1      18.363   1.866  32.697  1.00  0.00     0.304 A 
HETATM   26  O3  UNK     1      17.833   2.382  33.676  1.00  0.00    -0.259 OA
ENDBRANCH   3  16
TORSDOF 2
ENDMDL
MODEL 10
REMARK VINA RESULT:      -9.6      1.069      2.866
REMARK  2 active torsions:
REMARK  status: ('A' for Active; 'I' for Inactive)
REMARK    1  A    between atoms: C3_12  and  N1_9 
REMARK       I    between atoms: C6_15  and  N1_9 
REMARK    2  A    between atoms: C2_11  and  C6_15 
ROOT
HETATM    1  O2  UNK     1      18.293   4.612  30.309  1.00  0.00    -0.267 OA
HETATM    2  N1  UNK     1      18.482   4.696  32.660  1.00  0.00    -0.317 N 
HETATM    3  C6  UNK     1      18.475   4.094  31.410  1.00  0.00     0.262 C 
HETATM    4  H2  UNK     1      18.864   4.166  33.439  1.00  0.00     0.169 HD
ENDROOT
BRANCH   2   5
HETATM    5  C3  UNK     1      18.273   6.053  32.922  1.00  0.00     0.119 A 
HETATM    6  C7  UNK     1      19.311   6.829  33.435  1.00  0.00     0.188 A 
HETATM    7  C13 UNK     1      19.103   8.184  33.696  1.00  0.00     0.199 A 
HETATM    8  F1  UNK     1      20.511   6.286  33.682  1.00  0.00    -0.200 F 
HETATM    9  C14 UNK     1      17.859   8.760  33.443  1.00  0.00     0.199 A 
HETATM   10  F4  UNK     1      20.099   8.930  34.192  1.00  0.00    -0.199 F 
HETATM   11  C12 UNK     1      16.821   7.982  32.929  1.00  0.00     0.199 A 
HETATM   12  F5  UNK     1      17.658  10.060  33.694  1.00  0.00    -0.199 F 
HETATM   13  C8  UNK     1      17.029   6.627  32.668  1.00  0.00     0.188 A 
HETATM   14  F3  UNK     1      15.625   8.535  32.687  1.00  0.00    -0.199 F 
HETATM   15  F2  UNK     1      16.025   5.888  32.174  1.00  0.00    -0.200 F 
ENDBRANCH   2   5
BRANCH   3  16
HETATM   16  C2  UNK     1      18.727   2.651  31.497  1.00  0.00     0.108 A 
HETATM   17  C4  UNK     1      19.307   2.086  30.430  1.00  0.00     0.037 A 
HETATM   18  C1  UNK     1      19.597   0.660  30.422  1.00  0.00    -0.001 A 
HETATM   19  C5  UNK     1      19.261  -0.101  31.537  1.00  0.00     0.089 A 
HETATM   20  C10 UNK     1      20.200   0.029  29.332  1.00  0.00     0.014 A 
HETATM   21  C11 UNK     1      19.512  -1.471  31.593  1.00  0.00     0.038 A 
HETATM   22  O1  UNK     1      18.652   0.499  32.657  1.00  0.00    -0.274 OA
HETATM   23  C16 UNK     1      20.113  -2.093  30.501  1.00  0.00     0.003 A 
HETATM   24  C15 UNK     1      20.457  -1.344  29.373  1.00  0.00     0.001 A 
HETATM   25  C9  UNK     1      18.363   1.860  32.694  1.00  0.00     0.304 A 
HETATM   26  O3  UNK     1      17.831   2.374  33.672  1.00  0.00    -0.259 OA
ENDBRANCH   3  16
TORSDOF 2
ENDMDL
