MODEL 1
REMARK VINA RESULT:      -9.5      0.000      0.000
REMARK  5 active torsions:
REMARK  status: ('A' for Active; 'I' for Inactive)
REMARK    1  A    between atoms: C16_19  and  O1_1 
REMARK    2  A    between atoms: C18_21  and  O2_2 
REMARK    3  A    between atoms: C10_13  and  C3_6 
REMARK    4  A    between atoms: C14_17  and  C9_12 
REMARK    5  A    between atoms: C10_13  and  C15_18 
ROOT
HETATM    1  O3  UNK     1      17.923   2.461  28.232  1.00  0.00    -0.288 OA
HETATM    2  C10 UNK     1      18.353   2.186  29.363  1.00  0.00     0.182 C 
ENDROOT
BRANCH   2   3
HETATM    3  C3  UNK     1      18.998   0.910  29.626  1.00  0.00     0.015 A 
HETATM    4  C4  UNK     1      19.134   0.453  30.936  1.00  0.00     0.027 A 
HETATM    5  C1  UNK     1      19.755  -0.778  31.206  1.00  0.00    -0.025 A 
HETATM    6  C2  UNK     1      20.243  -1.556  30.129  1.00  0.00    -0.026 A 
HETATM    7  C7  UNK     1      19.901  -1.254  32.519  1.00  0.00     0.012 A 
HETATM    8  C5  UNK     1      20.097  -1.082  28.816  1.00  0.00     0.013 A 
HETATM    9  C8  UNK     1      20.864  -2.787  30.398  1.00  0.00     0.012 A 
HETATM   10  C6  UNK     1      19.479   0.144  28.567  1.00  0.00     0.016 A 
HETATM   11  C12 UNK     1      21.000  -3.244  31.709  1.00  0.00     0.001 A 
HETATM   12  C11 UNK     1      20.520  -2.478  32.768  1.00  0.00     0.001 A 
ENDBRANCH   2   3
BRANCH   2  13
HETATM   13  C15 UNK     1      18.241   3.182  30.484  1.00  0.00     0.056 C 
HETATM   14  C14 UNK     1      19.077   4.228  30.554  1.00  0.00     0.015 C 
BRANCH  14  15
HETATM   15  C9  UNK     1      19.055   5.245  31.620  1.00  0.00    -0.033 A 
HETATM   16  C13 UNK     1      17.873   5.485  32.303  1.00  0.00     0.051 A 
HETATM   17  C16 UNK     1      17.852   6.447  33.313  1.00  0.00     0.102 A 
HETATM   18  C18 UNK     1      19.012   7.156  33.626  1.00  0.00     0.101 A 
HETATM   19  C19 UNK     1      20.193   6.902  32.929  1.00  0.00     0.040 A 
HETATM   20  C17 UNK     1      20.215   5.939  31.920  1.00  0.00     0.014 A 
BRANCH  17  21
HETATM   21  O1  UNK     1      16.692   6.688  33.986  1.00  0.00    -0.353 OA
HETATM   22  C20 UNK     1      15.611   7.241  33.238  1.00  0.00     0.210 C 
ENDBRANCH  17  21
BRANCH  18  23
HETATM   23  O2  UNK     1      19.005   8.096  34.611  1.00  0.00    -0.353 OA
HETATM   24  C21 UNK     1      20.000   9.115  34.542  1.00  0.00     0.210 C 
ENDBRANCH  18  23
ENDBRANCH  14  15
ENDBRANCH   2  13
TORSDOF 5
ENDMDL
MODEL 2
REMARK VINA RESULT:      -8.4      6.967     10.091
REMARK  5 active torsions:
REMARK  status: ('A' for Active; 'I' for Inactive)
REMARK    1  A    between atoms: C16_19  and  O1_1 
REMARK    2  A    between atoms: C18_21  and  O2_2 
REMARK    3  A    between atoms: C10_13  and  C3_6 
REMARK    4  A    between atoms: C14_17  and  C9_12 
REMARK    5  A    between atoms: C10_13  and  C15_18 
ROOT
HETATM    1  O3  UNK     1      22.830  -4.903  37.971  1.00  0.00    -0.288 OA
HETATM    2  C10 UNK     1      21.606  -5.108  37.957  1.00  0.00     0.182 C 
ENDROOT
BRANCH   2   3
HETATM    3  C3  UNK     1      21.070  -6.443  38.170  1.00  0.00     0.015 A 
HETATM    4  C4  UNK     1      21.314  -7.450  37.237  1.00  0.00     0.027 A 
HETATM    5  C1  UNK     1      20.804  -8.745  37.429  1.00  0.00    -0.025 A 
HETATM    6  C2  UNK     1      20.036  -9.020  38.586  1.00  0.00    -0.026 A 
HETATM    7  C7  UNK     1      21.039  -9.771  36.500  1.00  0.00     0.012 A 
HETATM    8  C5  UNK     1      19.801  -7.995  39.516  1.00  0.00     0.013 A 
HETATM    9  C8  UNK     1      19.526 -10.315  38.779  1.00  0.00     0.012 A 
HETATM   10  C6  UNK     1      20.315  -6.714  39.308  1.00  0.00     0.016 A 
HETATM   11  C12 UNK     1      19.769 -11.322  37.845  1.00  0.00     0.001 A 
HETATM   12  C11 UNK     1      20.525 -11.050  36.708  1.00  0.00     0.001 A 
ENDBRANCH   2   3
BRANCH   2  13
HETATM   13  C15 UNK     1      20.646  -3.971  37.748  1.00  0.00     0.056 C 
HETATM   14  C14 UNK     1      20.378  -3.520  36.514  1.00  0.00     0.015 C 
BRANCH  14  15
HETATM   15  C9  UNK     1      19.464  -2.404  36.212  1.00  0.00    -0.033 A 
HETATM   16  C13 UNK     1      19.517  -1.802  34.965  1.00  0.00     0.051 A 
HETATM   17  C16 UNK     1      18.652  -0.746  34.678  1.00  0.00     0.102 A 
HETATM   18  C18 UNK     1      17.746  -0.306  35.643  1.00  0.00     0.101 A 
HETATM   19  C19 UNK     1      17.706  -0.922  36.894  1.00  0.00     0.040 A 
HETATM   20  C17 UNK     1      18.570  -1.979  37.180  1.00  0.00     0.014 A 
BRANCH  17  21
HETATM   21  O1  UNK     1      18.702  -0.152  33.454  1.00  0.00    -0.353 OA
HETATM   22  C20 UNK     1      18.938  -0.999  32.331  1.00  0.00     0.210 C 
ENDBRANCH  17  21
BRANCH  18  23
HETATM   23  O2  UNK     1      16.896   0.723  35.376  1.00  0.00    -0.353 OA
HETATM   24  C21 UNK     1      15.514   0.514  35.661  1.00  0.00     0.210 C 
ENDBRANCH  18  23
ENDBRANCH  14  15
ENDBRANCH   2  13
TORSDOF 5
ENDMDL
MODEL 3
REMARK VINA RESULT:      -8.3      3.020      9.852
REMARK  5 active torsions:
REMARK  status: ('A' for Active; 'I' for Inactive)
REMARK    1  A    between atoms: C16_19  and  O1_1 
REMARK    2  A    between atoms: C18_21  and  O2_2 
REMARK    3  A    between atoms: C10_13  and  C3_6 
REMARK    4  A    between atoms: C14_17  and  C9_12 
REMARK    5  A    between atoms: C10_13  and  C15_18 
ROOT
HETATM    1  O3  UNK     1      20.115   8.972  34.589  1.00  0.00    -0.288 OA
HETATM    2  C10 UNK     1      18.995   8.692  34.133  1.00  0.00     0.182 C 
ENDROOT
BRANCH   2   3
HETATM    3  C3  UNK     1      17.954   9.702  34.039  1.00  0.00     0.015 A 
HETATM    4  C4  UNK     1      16.636   9.325  33.789  1.00  0.00     0.027 A 
HETATM    5  C1  UNK     1      15.618  10.289  33.696  1.00  0.00    -0.025 A 
HETATM    6  C2  UNK     1      15.945  11.656  33.860  1.00  0.00    -0.026 A 
HETATM    7  C7  UNK     1      14.285   9.927  33.444  1.00  0.00     0.012 A 
HETATM    8  C5  UNK     1      17.278  12.019  34.111  1.00  0.00     0.013 A 
HETATM    9  C8  UNK     1      14.929  12.621  33.767  1.00  0.00     0.012 A 
HETATM   10  C6  UNK     1      18.276  11.047  34.200  1.00  0.00     0.016 A 
HETATM   11  C12 UNK     1      13.610  12.243  33.517  1.00  0.00     0.001 A 
HETATM   12  C11 UNK     1      13.288  10.898  33.355  1.00  0.00     0.001 A 
ENDBRANCH   2   3
BRANCH   2  13
HETATM   13  C15 UNK     1      18.700   7.303  33.638  1.00  0.00     0.056 C 
HETATM   14  C14 UNK     1      19.144   6.896  32.440  1.00  0.00     0.015 C 
BRANCH  14  15
HETATM   15  C9  UNK     1      18.892   5.563  31.865  1.00  0.00    -0.033 A 
HETATM   16  C13 UNK     1      18.335   4.575  32.662  1.00  0.00     0.051 A 
HETATM   17  C16 UNK     1      18.095   3.313  32.118  1.00  0.00     0.102 A 
HETATM   18  C18 UNK     1      18.416   3.056  30.785  1.00  0.00     0.101 A 
HETATM   19  C19 UNK     1      18.976   4.060  29.996  1.00  0.00     0.040 A 
HETATM   20  C17 UNK     1      19.215   5.323  30.540  1.00  0.00     0.014 A 
BRANCH  17  21
HETATM   21  O1  UNK     1      17.549   2.339  32.898  1.00  0.00    -0.353 OA
HETATM   22  C20 UNK     1      18.210   2.047  34.128  1.00  0.00     0.210 C 
ENDBRANCH  17  21
BRANCH  18  23
HETATM   23  O2  UNK     1      18.186   1.828  30.242  1.00  0.00    -0.353 OA
HETATM   24  C21 UNK     1      17.864   1.783  28.853  1.00  0.00     0.210 C 
ENDBRANCH  18  23
ENDBRANCH  14  15
ENDBRANCH   2  13
TORSDOF 5
ENDMDL
MODEL 4
REMARK VINA RESULT:      -8.2      3.218      4.144
REMARK  5 active torsions:
REMARK  status: ('A' for Active; 'I' for Inactive)
REMARK    1  A    between atoms: C16_19  and  O1_1 
REMARK    2  A    between atoms: C18_21  and  O2_2 
REMARK    3  A    between atoms: C10_13  and  C3_6 
REMARK    4  A    between atoms: C14_17  and  C9_12 
REMARK    5  A    between atoms: C10_13  and  C15_18 
ROOT
HETATM    1  O3  UNK     1      18.270   2.272  31.468  1.00  0.00    -0.288 OA
HETATM    2  C10 UNK     1      18.205   2.514  32.684  1.00  0.00     0.182 C 
ENDROOT
BRANCH   2   3
HETATM    3  C3  UNK     1      18.242   1.438  33.662  1.00  0.00     0.015 A 
HETATM    4  C4  UNK     1      18.012   1.712  35.009  1.00  0.00     0.027 A 
HETATM    5  C1  UNK     1      18.043   0.684  35.966  1.00  0.00    -0.025 A 
HETATM    6  C2  UNK     1      18.311  -0.642  35.547  1.00  0.00    -0.026 A 
HETATM    7  C7  UNK     1      17.815   0.940  37.327  1.00  0.00     0.012 A 
HETATM    8  C5  UNK     1      18.540  -0.900  34.186  1.00  0.00     0.013 A 
HETATM    9  C8  UNK     1      18.343  -1.670  36.503  1.00  0.00     0.012 A 
HETATM   10  C6  UNK     1      18.505   0.134  33.250  1.00  0.00     0.016 A 
HETATM   11  C12 UNK     1      18.113  -1.397  37.851  1.00  0.00     0.001 A 
HETATM   12  C11 UNK     1      17.850  -0.093  38.263  1.00  0.00     0.001 A 
ENDBRANCH   2   3
BRANCH   2  13
HETATM   13  C15 UNK     1      18.119   3.932  33.175  1.00  0.00     0.056 C 
HETATM   14  C14 UNK     1      17.971   4.947  32.311  1.00  0.00     0.015 C 
BRANCH  14  15
HETATM   15  C9  UNK     1      17.891   6.367  32.696  1.00  0.00    -0.033 A 
HETATM   16  C13 UNK     1      16.795   7.117  32.300  1.00  0.00     0.051 A 
HETATM   17  C16 UNK     1      16.720   8.461  32.665  1.00  0.00     0.102 A 
HETATM   18  C18 UNK     1      17.740   9.037  33.421  1.00  0.00     0.101 A 
HETATM   19  C19 UNK     1      18.837   8.268  33.812  1.00  0.00     0.040 A 
HETATM   20  C17 UNK     1      18.912   6.924  33.448  1.00  0.00     0.014 A 
BRANCH  17  21
HETATM   21  O1  UNK     1      15.645   9.202  32.277  1.00  0.00    -0.353 OA
HETATM   22  C20 UNK     1      14.454   9.071  33.050  1.00  0.00     0.210 C 
ENDBRANCH  17  21
BRANCH  18  23
HETATM   23  O2  UNK     1      17.678  10.347  33.785  1.00  0.00    -0.353 OA
HETATM   24  C21 UNK     1      18.916  11.026  33.983  1.00  0.00     0.210 C 
ENDBRANCH  18  23
ENDBRANCH  14  15
ENDBRANCH   2  13
TORSDOF 5
ENDMDL
MODEL 5
REMARK VINA RESULT:      -8.0      3.408      8.645
REMARK  5 active torsions:
REMARK  status: ('A' for Active; 'I' for Inactive)
REMARK    1  A    between atoms: C16_19  and  O1_1 
REMARK    2  A    between atoms: C18_21  and  O2_2 
REMARK    3  A    between atoms: C10_13  and  C3_6 
REMARK    4  A    between atoms: C14_17  and  C9_12 
REMARK    5  A    between atoms: C10_13  and  C15_18 
ROOT
HETATM    1  O3  UNK     1      18.779   5.500  30.381  1.00  0.00    -0.288 OA
HETATM    2  C10 UNK     1      18.357   5.352  31.539  1.00  0.00     0.182 C 
ENDROOT
BRANCH   2   3
HETATM    3  C3  UNK     1      17.893   6.491  32.315  1.00  0.00     0.015 A 
HETATM    4  C4  UNK     1      16.528   6.700  32.500  1.00  0.00     0.027 A 
HETATM    5  C1  UNK     1      16.063   7.795  33.247  1.00  0.00    -0.025 A 
HETATM    6  C2  UNK     1      17.001   8.690  33.817  1.00  0.00    -0.026 A 
HETATM    7  C7  UNK     1      14.692   8.022  33.443  1.00  0.00     0.012 A 
HETATM    8  C5  UNK     1      18.373   8.464  33.622  1.00  0.00     0.013 A 
HETATM    9  C8  UNK     1      16.538   9.785  34.564  1.00  0.00     0.012 A 
HETATM   10  C6  UNK     1      18.815   7.371  32.876  1.00  0.00     0.016 A 
HETATM   11  C12 UNK     1      15.172   9.995  34.748  1.00  0.00     0.001 A 
HETATM   12  C11 UNK     1      14.250   9.115  34.188  1.00  0.00     0.001 A 
ENDBRANCH   2   3
BRANCH   2  13
HETATM   13  C15 UNK     1      18.288   3.983  32.156  1.00  0.00     0.056 C 
HETATM   14  C14 UNK     1      18.367   3.828  33.486  1.00  0.00     0.015 C 
BRANCH  14  15
HETATM   15  C9  UNK     1      18.324   2.528  34.179  1.00  0.00    -0.033 A 
HETATM   16  C13 UNK     1      18.140   1.371  33.439  1.00  0.00     0.051 A 
HETATM   17  C16 UNK     1      18.100   0.140  34.095  1.00  0.00     0.102 A 
HETATM   18  C18 UNK     1      18.245   0.083  35.481  1.00  0.00     0.101 A 
HETATM   19  C19 UNK     1      18.429   1.257  36.211  1.00  0.00     0.040 A 
HETATM   20  C17 UNK     1      18.470   2.488  35.555  1.00  0.00     0.014 A 
BRANCH  17  21
HETATM   21  O1  UNK     1      17.918  -1.000  33.371  1.00  0.00    -0.353 OA
HETATM   22  C20 UNK     1      18.938  -1.343  32.436  1.00  0.00     0.210 C 
ENDBRANCH  17  21
BRANCH  18  23
HETATM   23  O2  UNK     1      18.209  -1.112  36.132  1.00  0.00    -0.353 OA
HETATM   24  C21 UNK     1      17.943  -1.079  37.533  1.00  0.00     0.210 C 
ENDBRANCH  18  23
ENDBRANCH  14  15
ENDBRANCH   2  13
TORSDOF 5
ENDMDL
MODEL 6
REMARK VINA RESULT:      -8.0      6.343     10.528
REMARK  5 active torsions:
REMARK  status: ('A' for Active; 'I' for Inactive)
REMARK    1  A    between atoms: C16_19  and  O1_1 
REMARK    2  A    between atoms: C18_21  and  O2_2 
REMARK    3  A    between atoms: C10_13  and  C3_6 
REMARK    4  A    between atoms: C14_17  and  C9_12 
REMARK    5  A    between atoms: C10_13  and  C15_18 
ROOT
HETATM    1  O3  UNK     1      18.628  -1.019  35.571  1.00  0.00    -0.288 OA
HETATM    2  C10 UNK     1      19.411  -1.807  35.017  1.00  0.00     0.182 C 
ENDROOT
BRANCH   2   3
HETATM    3  C3  UNK     1      19.713  -1.685  33.600  1.00  0.00     0.015 A 
HETATM    4  C4  UNK     1      19.223  -0.601  32.873  1.00  0.00     0.027 A 
HETATM    5  C1  UNK     1      19.507  -0.469  31.503  1.00  0.00    -0.025 A 
HETATM    6  C2  UNK     1      20.302  -1.451  30.864  1.00  0.00    -0.026 A 
HETATM    7  C7  UNK     1      19.022   0.615  30.755  1.00  0.00     0.012 A 
HETATM    8  C5  UNK     1      20.788  -2.535  31.612  1.00  0.00     0.013 A 
HETATM    9  C8  UNK     1      20.586  -1.319  29.496  1.00  0.00     0.012 A 
HETATM   10  C6  UNK     1      20.495  -2.651  32.972  1.00  0.00     0.016 A 
HETATM   11  C12 UNK     1      20.095  -0.236  28.767  1.00  0.00     0.001 A 
HETATM   12  C11 UNK     1      19.314   0.730  29.396  1.00  0.00     0.001 A 
ENDBRANCH   2   3
BRANCH   2  13
HETATM   13  C15 UNK     1      20.088  -2.890  35.809  1.00  0.00     0.056 C 
HETATM   14  C14 UNK     1      19.377  -3.894  36.342  1.00  0.00     0.015 C 
BRANCH  14  15
HETATM   15  C9  UNK     1      19.950  -4.990  37.144  1.00  0.00    -0.033 A 
HETATM   16  C13 UNK     1      19.217  -6.152  37.324  1.00  0.00     0.051 A 
HETATM   17  C16 UNK     1      19.760  -7.190  38.082  1.00  0.00     0.102 A 
HETATM   18  C18 UNK     1      21.026  -7.051  38.649  1.00  0.00     0.101 A 
HETATM   19  C19 UNK     1      21.750  -5.875  38.459  1.00  0.00     0.040 A 
HETATM   20  C17 UNK     1      21.208  -4.837  37.700  1.00  0.00     0.014 A 
BRANCH  17  21
HETATM   21  O1  UNK     1      19.043  -8.334  38.263  1.00  0.00    -0.353 OA
HETATM   22  C20 UNK     1      19.027  -9.266  37.182  1.00  0.00     0.210 C 
ENDBRANCH  17  21
BRANCH  18  23
HETATM   23  O2  UNK     1      21.567  -8.058  39.390  1.00  0.00    -0.353 OA
HETATM   24  C21 UNK     1      22.984  -8.055  39.553  1.00  0.00     0.210 C 
ENDBRANCH  18  23
ENDBRANCH  14  15
ENDBRANCH   2  13
TORSDOF 5
ENDMDL
MODEL 7
REMARK VINA RESULT:      -7.9      5.759      8.672
REMARK  5 active torsions:
REMARK  status: ('A' for Active; 'I' for Inactive)
REMARK    1  A    between atoms: C16_19  and  O1_1 
REMARK    2  A    between atoms: C18_21  and  O2_2 
REMARK    3  A    between atoms: C10_13  and  C3_6 
REMARK    4  A    between atoms: C14_17  and  C9_12 
REMARK    5  A    between atoms: C10_13  and  C15_18 
ROOT
HETATM    1  O3  UNK     1      20.524  -3.213  38.030  1.00  0.00    -0.288 OA
HETATM    2  C10 UNK     1      20.193  -3.833  37.006  1.00  0.00     0.182 C 
ENDROOT
BRANCH   2   3
HETATM    3  C3  UNK     1      19.889  -5.254  37.060  1.00  0.00     0.015 A 
HETATM    4  C4  UNK     1      20.211  -5.994  38.196  1.00  0.00     0.027 A 
HETATM    5  C1  UNK     1      19.923  -7.367  38.264  1.00  0.00    -0.025 A 
HETATM    6  C2  UNK     1      19.298  -7.997  37.161  1.00  0.00    -0.026 A 
HETATM    7  C7  UNK     1      20.241  -8.129  39.399  1.00  0.00     0.012 A 
HETATM    8  C5  UNK     1      18.979  -7.236  36.024  1.00  0.00     0.013 A 
HETATM    9  C8  UNK     1      19.009  -9.370  37.227  1.00  0.00     0.012 A 
HETATM   10  C6  UNK     1      19.274  -5.873  35.975  1.00  0.00     0.016 A 
HETATM   11  C12 UNK     1      19.332 -10.111  38.364  1.00  0.00     0.001 A 
HETATM   12  C11 UNK     1      19.947  -9.491  39.448  1.00  0.00     0.001 A 
ENDBRANCH   2   3
BRANCH   2  13
HETATM   13  C15 UNK     1      20.071  -3.118  35.689  1.00  0.00     0.056 C 
HETATM   14  C14 UNK     1      19.316  -2.016  35.578  1.00  0.00     0.015 C 
BRANCH  14  15
HETATM   15  C9  UNK     1      19.124  -1.258  34.328  1.00  0.00    -0.033 A 
HETATM   16  C13 UNK     1      18.527  -0.008  34.378  1.00  0.00     0.051 A 
HETATM   17  C16 UNK     1      18.346   0.710  33.196  1.00  0.00     0.102 A 
HETATM   18  C18 UNK     1      18.764   0.169  31.980  1.00  0.00     0.101 A 
HETATM   19  C19 UNK     1      19.364  -1.090  31.947  1.00  0.00     0.040 A 
HETATM   20  C17 UNK     1      19.546  -1.808  33.130  1.00  0.00     0.014 A 
BRANCH  17  21
HETATM   21  O1  UNK     1      17.758   1.938  33.240  1.00  0.00    -0.353 OA
HETATM   22  C20 UNK     1      18.257   2.860  34.206  1.00  0.00     0.210 C 
ENDBRANCH  17  21
BRANCH  18  23
HETATM   23  O2  UNK     1      18.594   0.860  30.820  1.00  0.00    -0.353 OA
HETATM   24  C21 UNK     1      19.692   0.880  29.910  1.00  0.00     0.210 C 
ENDBRANCH  18  23
ENDBRANCH  14  15
ENDBRANCH   2  13
TORSDOF 5
ENDMDL
MODEL 8
REMARK VINA RESULT:      -7.9      1.568      2.477
REMARK  5 active torsions:
REMARK  status: ('A' for Active; 'I' for Inactive)
REMARK    1  A    between atoms: C16_19  and  O1_1 
REMARK    2  A    between atoms: C18_21  and  O2_2 
REMARK    3  A    between atoms: C10_13  and  C3_6 
REMARK    4  A    between atoms: C14_17  and  C9_12 
REMARK    5  A    between atoms: C10_13  and  C15_18 
ROOT
HETATM    1  O3  UNK     1      18.752   3.802  29.225  1.00  0.00    -0.288 OA
HETATM    2  C10 UNK     1      18.528   3.407  30.380  1.00  0.00     0.182 C 
ENDROOT
BRANCH   2   3
HETATM    3  C3  UNK     1      18.879   2.056  30.788  1.00  0.00     0.015 A 
HETATM    4  C4  UNK     1      19.529   1.205  29.896  1.00  0.00     0.027 A 
HETATM    5  C1  UNK     1      19.875  -0.103  30.274  1.00  0.00    -0.025 A 
HETATM    6  C2  UNK     1      19.557  -0.552  31.579  1.00  0.00    -0.026 A 
HETATM    7  C7  UNK     1      20.529  -0.975  29.389  1.00  0.00     0.012 A 
HETATM    8  C5  UNK     1      18.902   0.319  32.465  1.00  0.00     0.013 A 
HETATM    9  C8  UNK     1      19.902  -1.859  31.958  1.00  0.00     0.012 A 
HETATM   10  C6  UNK     1      18.566   1.615  32.071  1.00  0.00     0.016 A 
HETATM   11  C12 UNK     1      20.552  -2.711  31.066  1.00  0.00     0.001 A 
HETATM   12  C11 UNK     1      20.865  -2.269  29.783  1.00  0.00     0.001 A 
ENDBRANCH   2   3
BRANCH   2  13
HETATM   13  C15 UNK     1      17.915   4.330  31.396  1.00  0.00     0.056 C 
HETATM   14  C14 UNK     1      18.293   5.615  31.468  1.00  0.00     0.015 C 
BRANCH  14  15
HETATM   15  C9  UNK     1      17.760   6.589  32.437  1.00  0.00    -0.033 A 
HETATM   16  C13 UNK     1      16.397   6.626  32.682  1.00  0.00     0.051 A 
HETATM   17  C16 UNK     1      15.893   7.548  33.600  1.00  0.00     0.102 A 
HETATM   18  C18 UNK     1      16.759   8.419  34.261  1.00  0.00     0.101 A 
HETATM   19  C19 UNK     1      18.129   8.369  34.003  1.00  0.00     0.040 A 
HETATM   20  C17 UNK     1      18.633   7.447  33.085  1.00  0.00     0.014 A 
BRANCH  17  21
HETATM   21  O1  UNK     1      14.553   7.588  33.843  1.00  0.00    -0.353 OA
HETATM   22  C20 UNK     1      13.687   7.324  32.741  1.00  0.00     0.210 C 
ENDBRANCH  17  21
BRANCH  18  23
HETATM   23  O2  UNK     1      16.280   9.322  35.160  1.00  0.00    -0.353 OA
HETATM   24  C21 UNK     1      16.128  10.667  34.711  1.00  0.00     0.210 C 
ENDBRANCH  18  23
ENDBRANCH  14  15
ENDBRANCH   2  13
TORSDOF 5
ENDMDL
MODEL 9
REMARK VINA RESULT:      -7.9      3.241     10.320
REMARK  5 active torsions:
REMARK  status: ('A' for Active; 'I' for Inactive)
REMARK    1  A    between atoms: C16_19  and  O1_1 
REMARK    2  A    between atoms: C18_21  and  O2_2 
REMARK    3  A    between atoms: C10_13  and  C3_6 
REMARK    4  A    between atoms: C14_17  and  C9_12 
REMARK    5  A    between atoms: C10_13  and  C15_18 
ROOT
HETATM    1  O3  UNK     1      20.195   8.752  34.312  1.00  0.00    -0.288 OA
HETATM    2  C10 UNK     1      19.038   8.689  33.866  1.00  0.00     0.182 C 
ENDROOT
BRANCH   2   3
HETATM    3  C3  UNK     1      18.138   9.827  33.965  1.00  0.00     0.015 A 
HETATM    4  C4  UNK     1      18.652  11.121  34.019  1.00  0.00     0.027 A 
HETATM    5  C1  UNK     1      17.796  12.231  34.114  1.00  0.00    -0.025 A 
HETATM    6  C2  UNK     1      16.396  12.022  34.154  1.00  0.00    -0.026 A 
HETATM    7  C7  UNK     1      18.296  13.541  34.170  1.00  0.00     0.012 A 
HETATM    8  C5  UNK     1      15.895  10.711  34.098  1.00  0.00     0.013 A 
HETATM    9  C8  UNK     1      15.539  13.130  34.248  1.00  0.00     0.012 A 
HETATM   10  C6  UNK     1      16.761   9.621  34.004  1.00  0.00     0.016 A 
HETATM   11  C12 UNK     1      16.054  14.425  34.303  1.00  0.00     0.001 A 
HETATM   12  C11 UNK     1      17.430  14.631  34.264  1.00  0.00     0.001 A 
ENDBRANCH   2   3
BRANCH   2  13
HETATM   13  C15 UNK     1      18.551   7.441  33.185  1.00  0.00     0.056 C 
HETATM   14  C14 UNK     1      19.417   6.591  32.616  1.00  0.00     0.015 C 
BRANCH  14  15
HETATM   15  C9  UNK     1      19.033   5.353  31.914  1.00  0.00    -0.033 A 
HETATM   16  C13 UNK     1      18.451   4.319  32.632  1.00  0.00     0.051 A 
HETATM   17  C16 UNK     1      18.087   3.148  31.967  1.00  0.00     0.102 A 
HETATM   18  C18 UNK     1      18.310   3.025  30.596  1.00  0.00     0.101 A 
HETATM   19  C19 UNK     1      18.897   4.075  29.889  1.00  0.00     0.040 A 
HETATM   20  C17 UNK     1      19.260   5.247  30.553  1.00  0.00     0.014 A 
BRANCH  17  21
HETATM   21  O1  UNK     1      17.516   2.129  32.669  1.00  0.00    -0.353 OA
HETATM   22  C20 UNK     1      18.110   1.792  33.921  1.00  0.00     0.210 C 
ENDBRANCH  17  21
BRANCH  18  23
HETATM   23  O2  UNK     1      17.958   1.888  29.936  1.00  0.00    -0.353 OA
HETATM   24  C21 UNK     1      19.015   1.102  29.389  1.00  0.00     0.210 C 
ENDBRANCH  18  23
ENDBRANCH  14  15
ENDBRANCH   2  13
TORSDOF 5
ENDMDL
MODEL 10
REMARK VINA RESULT:      -7.9      3.768      8.597
REMARK  5 active torsions:
REMARK  status: ('A' for Active; 'I' for Inactive)
REMARK    1  A    between atoms: C16_19  and  O1_1 
REMARK    2  A    between atoms: C18_21  and  O2_2 
REMARK    3  A    between atoms: C10_13  and  C3_6 
REMARK    4  A    between atoms: C14_17  and  C9_12 
REMARK    5  A    between atoms: C10_13  and  C15_18 
ROOT
HETATM    1  O3  UNK     1      17.742   3.620  31.300  1.00  0.00    -0.288 OA
HETATM    2  C10 UNK     1      17.981   4.014  32.453  1.00  0.00     0.182 C 
ENDROOT
BRANCH   2   3
HETATM    3  C3  UNK     1      17.953   5.431  32.778  1.00  0.00     0.015 A 
HETATM    4  C4  UNK     1      19.095   6.054  33.280  1.00  0.00     0.027 A 
HETATM    5  C1  UNK     1      19.085   7.422  33.599  1.00  0.00    -0.025 A 
HETATM    6  C2  UNK     1      17.897   8.168  33.404  1.00  0.00    -0.026 A 
HETATM    7  C7  UNK     1      20.224   8.066  34.105  1.00  0.00     0.012 A 
HETATM    8  C5  UNK     1      16.757   7.524  32.897  1.00  0.00     0.013 A 
HETATM    9  C8  UNK     1      17.886   9.535  33.722  1.00  0.00     0.012 A 
HETATM   10  C6  UNK     1      16.785   6.164  32.586  1.00  0.00     0.016 A 
HETATM   11  C12 UNK     1      19.028  10.159  34.224  1.00  0.00     0.001 A 
HETATM   12  C11 UNK     1      20.196   9.425  34.416  1.00  0.00     0.001 A 
ENDBRANCH   2   3
BRANCH   2  13
HETATM   13  C15 UNK     1      18.275   3.028  33.549  1.00  0.00     0.056 C 
HETATM   14  C14 UNK     1      18.066   1.716  33.362  1.00  0.00     0.015 C 
BRANCH  14  15
HETATM   15  C9  UNK     1      18.310   0.679  34.380  1.00  0.00    -0.033 A 
HETATM   16  C13 UNK     1      18.085   0.973  35.716  1.00  0.00     0.051 A 
HETATM   17  C16 UNK     1      18.315  -0.010  36.679  1.00  0.00     0.102 A 
HETATM   18  C18 UNK     1      18.767  -1.272  36.294  1.00  0.00     0.101 A 
HETATM   19  C19 UNK     1      18.989  -1.551  34.946  1.00  0.00     0.040 A 
HETATM   20  C17 UNK     1      18.758  -0.569  33.982  1.00  0.00     0.014 A 
BRANCH  17  21
HETATM   21  O1  UNK     1      18.096   0.275  37.993  1.00  0.00    -0.353 OA
HETATM   22  C20 UNK     1      17.462   1.518  38.289  1.00  0.00     0.210 C 
ENDBRANCH  17  21
BRANCH  18  23
HETATM   23  O2  UNK     1      18.994  -2.239  37.225  1.00  0.00    -0.353 OA
HETATM   24  C21 UNK     1      19.582  -3.455  36.766  1.00  0.00     0.210 C 
ENDBRANCH  18  23
ENDBRANCH  14  15
ENDBRANCH   2  13
TORSDOF 5
ENDMDL
