MODEL 1
REMARK VINA RESULT:      -7.7      0.000      0.000
REMARK  2 active torsions:
REMARK  status: ('A' for Active; 'I' for Inactive)
REMARK    1  A    between atoms: C1_4  and  C4_7 
REMARK    2  A    between atoms: C2_5  and  C3_6 
ROOT
HETATM    1  N1  UNK     1      20.104   9.215  34.603  1.00  0.00    -0.191 NA
HETATM    2  C3  UNK     1      18.929   7.400  33.158  1.00  0.00     0.055 C 
HETATM    3  C4  UNK     1      19.711   6.459  32.568  1.00  0.00     0.036 C 
HETATM    4  C15 UNK     1      19.588   8.401  33.957  1.00  0.00     0.100 C 
ENDROOT
BRANCH   2   5
HETATM    5  C2  UNK     1      17.481   7.452  33.021  1.00  0.00    -0.015 A 
HETATM    6  C7  UNK     1      16.906   7.687  31.772  1.00  0.00     0.013 A 
HETATM    7  C12 UNK     1      15.519   7.736  31.640  1.00  0.00     0.001 A 
HETATM    8  C14 UNK     1      14.705   7.550  32.759  1.00  0.00     0.000 A 
HETATM    9  C13 UNK     1      15.279   7.314  34.008  1.00  0.00     0.001 A 
HETATM   10  C8  UNK     1      16.668   7.266  34.139  1.00  0.00     0.013 A 
ENDBRANCH   2   5
BRANCH   3  11
HETATM   11  C1  UNK     1      19.233   5.345  31.735  1.00  0.00    -0.013 A 
HETATM   12  C5  UNK     1      18.598   4.241  32.287  1.00  0.00     0.045 A 
HETATM   13 Cl1  UNK     1      18.322   4.087  33.988  1.00  0.00    -0.083 Cl
HETATM   14  C9  UNK     1      18.161   3.210  31.455  1.00  0.00     0.048 A 
HETATM   15  C11 UNK     1      18.363   3.294  30.077  1.00  0.00     0.035 A 
HETATM   16  C10 UNK     1      19.002   4.408  29.533  1.00  0.00     0.024 A 
HETATM   17 Cl2  UNK     1      17.824   2.023  29.049  1.00  0.00    -0.084 Cl
HETATM   18  C6  UNK     1      19.439   5.438  30.364  1.00  0.00     0.015 A 
ENDBRANCH   3  11
TORSDOF 2
ENDMDL
MODEL 2
REMARK VINA RESULT:      -6.7     22.552     24.606
REMARK  2 active torsions:
REMARK  status: ('A' for Active; 'I' for Inactive)
REMARK    1  A    between atoms: C1_4  and  C4_7 
REMARK    2  A    between atoms: C2_5  and  C3_6 
ROOT
HETATM    1  N1  UNK     1      16.521   4.978   9.426  1.00  0.00    -0.191 NA
HETATM    2  C3  UNK     1      14.214   6.022   8.833  1.00  0.00     0.055 C 
HETATM    3  C4  UNK     1      13.332   5.254   8.140  1.00  0.00     0.036 C 
HETATM    4  C15 UNK     1      15.488   5.435   9.157  1.00  0.00     0.100 C 
ENDROOT
BRANCH   2   5
HETATM    5  C2  UNK     1      13.942   7.388   9.252  1.00  0.00    -0.015 A 
HETATM    6  C7  UNK     1      13.231   7.630  10.427  1.00  0.00     0.013 A 
HETATM    7  C12 UNK     1      12.970   8.940  10.830  1.00  0.00     0.001 A 
HETATM    8  C14 UNK     1      13.423  10.009  10.056  1.00  0.00     0.000 A 
HETATM    9  C13 UNK     1      14.136   9.769   8.882  1.00  0.00     0.001 A 
HETATM   10  C8  UNK     1      14.395   8.458   8.480  1.00  0.00     0.013 A 
ENDBRANCH   2   5
BRANCH   3  11
HETATM   11  C1  UNK     1      11.978   5.657   7.734  1.00  0.00    -0.013 A 
HETATM   12  C5  UNK     1      10.873   5.428   8.543  1.00  0.00     0.045 A 
HETATM   13 Cl1  UNK     1      11.002   4.652  10.084  1.00  0.00    -0.083 Cl
HETATM   14  C9  UNK     1       9.609   5.830   8.113  1.00  0.00     0.048 A 
HETATM   15  C11 UNK     1       9.461   6.459   6.877  1.00  0.00     0.035 A 
HETATM   16  C10 UNK     1      10.577   6.685   6.072  1.00  0.00     0.024 A 
HETATM   17 Cl2  UNK     1       7.901   6.958   6.346  1.00  0.00    -0.084 Cl
HETATM   18  C6  UNK     1      11.841   6.283   6.501  1.00  0.00     0.015 A 
ENDBRANCH   3  11
TORSDOF 2
ENDMDL
MODEL 3
REMARK VINA RESULT:      -6.7     17.288     18.719
REMARK  2 active torsions:
REMARK  status: ('A' for Active; 'I' for Inactive)
REMARK    1  A    between atoms: C1_4  and  C4_7 
REMARK    2  A    between atoms: C2_5  and  C3_6 
ROOT
HETATM    1  N1  UNK     1      29.485  -3.665  39.956  1.00  0.00    -0.191 NA
HETATM    2  C3  UNK     1      29.874  -5.512  38.168  1.00  0.00     0.055 C 
HETATM    3  C4  UNK     1      28.779  -6.088  37.605  1.00  0.00     0.036 C 
HETATM    4  C15 UNK     1      29.649  -4.490  39.157  1.00  0.00     0.100 C 
ENDROOT
BRANCH   2   5
HETATM    5  C2  UNK     1      31.243  -5.876  37.832  1.00  0.00    -0.015 A 
HETATM    6  C7  UNK     1      31.999  -5.051  36.999  1.00  0.00     0.013 A 
HETATM    7  C12 UNK     1      33.311  -5.399  36.677  1.00  0.00     0.001 A 
HETATM    8  C14 UNK     1      33.867  -6.572  37.189  1.00  0.00     0.000 A 
HETATM    9  C13 UNK     1      33.111  -7.396  38.024  1.00  0.00     0.001 A 
HETATM   10  C8  UNK     1      31.799  -7.047  38.344  1.00  0.00     0.013 A 
ENDBRANCH   2   5
BRANCH   3  11
HETATM   11  C1  UNK     1      28.795  -7.128  36.567  1.00  0.00    -0.013 A 
HETATM   12  C5  UNK     1      28.770  -8.480  36.885  1.00  0.00     0.045 A 
HETATM   13 Cl1  UNK     1      28.722  -9.043  38.520  1.00  0.00    -0.083 Cl
HETATM   14  C9  UNK     1      28.785  -9.428  35.863  1.00  0.00     0.048 A 
HETATM   15  C11 UNK     1      28.823  -9.017  34.531  1.00  0.00     0.035 A 
HETATM   16  C10 UNK     1      28.847  -7.658  34.221  1.00  0.00     0.024 A 
HETATM   17 Cl2  UNK     1      28.840 -10.188  33.268  1.00  0.00    -0.084 Cl
HETATM   18  C6  UNK     1      28.833  -6.708  35.243  1.00  0.00     0.015 A 
ENDBRANCH   3  11
TORSDOF 2
ENDMDL
MODEL 4
REMARK VINA RESULT:      -6.6     17.492     19.147
REMARK  2 active torsions:
REMARK  status: ('A' for Active; 'I' for Inactive)
REMARK    1  A    between atoms: C1_4  and  C4_7 
REMARK    2  A    between atoms: C2_5  and  C3_6 
ROOT
HETATM    1  N1  UNK     1      29.338  -3.783  39.824  1.00  0.00    -0.191 NA
HETATM    2  C3  UNK     1      30.680  -5.126  38.047  1.00  0.00     0.055 C 
HETATM    3  C4  UNK     1      31.325  -4.424  37.079  1.00  0.00     0.036 C 
HETATM    4  C15 UNK     1      29.940  -4.374  39.026  1.00  0.00     0.100 C 
ENDROOT
BRANCH   2   5
HETATM    5  C2  UNK     1      30.693  -6.578  38.139  1.00  0.00    -0.015 A 
HETATM    6  C7  UNK     1      31.901  -7.256  38.301  1.00  0.00     0.013 A 
HETATM    7  C12 UNK     1      31.914  -8.648  38.389  1.00  0.00     0.001 A 
HETATM    8  C14 UNK     1      30.718  -9.363  38.317  1.00  0.00     0.000 A 
HETATM    9  C13 UNK     1      29.509  -8.685  38.156  1.00  0.00     0.001 A 
HETATM   10  C8  UNK     1      29.497  -7.292  38.067  1.00  0.00     0.013 A 
ENDBRANCH   2   5
BRANCH   3  11
HETATM   11  C1  UNK     1      32.148  -5.000  36.005  1.00  0.00    -0.013 A 
HETATM   12  C5  UNK     1      31.584  -5.690  34.941  1.00  0.00     0.045 A 
HETATM   13 Cl1  UNK     1      29.877  -5.928  34.795  1.00  0.00    -0.083 Cl
HETATM   14  C9  UNK     1      32.408  -6.216  33.947  1.00  0.00     0.048 A 
HETATM   15  C11 UNK     1      33.791  -6.047  34.025  1.00  0.00     0.035 A 
HETATM   16  C10 UNK     1      34.348  -5.352  35.098  1.00  0.00     0.024 A 
HETATM   17 Cl2  UNK     1      34.809  -6.695  32.798  1.00  0.00    -0.084 Cl
HETATM   18  C6  UNK     1      33.524  -4.825  36.093  1.00  0.00     0.015 A 
ENDBRANCH   3  11
TORSDOF 2
ENDMDL
MODEL 5
REMARK VINA RESULT:      -6.6     14.093     15.922
REMARK  2 active torsions:
REMARK  status: ('A' for Active; 'I' for Inactive)
REMARK    1  A    between atoms: C1_4  and  C4_7 
REMARK    2  A    between atoms: C2_5  and  C3_6 
ROOT
HETATM    1  N1  UNK     1      17.069  -5.962  36.919  1.00  0.00    -0.191 NA
HETATM    2  C3  UNK     1      19.230  -7.406  36.981  1.00  0.00     0.055 C 
HETATM    3  C4  UNK     1      19.247  -8.550  36.246  1.00  0.00     0.036 C 
HETATM    4  C15 UNK     1      18.029  -6.613  36.940  1.00  0.00     0.100 C 
ENDROOT
BRANCH   2   5
HETATM    5  C2  UNK     1      20.344  -6.954  37.801  1.00  0.00    -0.015 A 
HETATM    6  C7  UNK     1      20.656  -7.622  38.985  1.00  0.00     0.013 A 
HETATM    7  C12 UNK     1      21.724  -7.189  39.770  1.00  0.00     0.001 A 
HETATM    8  C14 UNK     1      22.482  -6.087  39.371  1.00  0.00     0.000 A 
HETATM    9  C13 UNK     1      22.171  -5.419  38.186  1.00  0.00     0.001 A 
HETATM   10  C8  UNK     1      21.101  -5.853  37.401  1.00  0.00     0.013 A 
ENDBRANCH   2   5
BRANCH   3  11
HETATM   11  C1  UNK     1      20.378  -9.482  36.136  1.00  0.00    -0.013 A 
HETATM   12  C5  UNK     1      20.524 -10.561  36.999  1.00  0.00     0.045 A 
HETATM   13 Cl1  UNK     1      19.393 -10.889  38.266  1.00  0.00    -0.083 Cl
HETATM   14  C9  UNK     1      21.614 -11.418  36.852  1.00  0.00     0.048 A 
HETATM   15  C11 UNK     1      22.550 -11.189  35.843  1.00  0.00     0.035 A 
HETATM   16  C10 UNK     1      22.394 -10.104  34.982  1.00  0.00     0.024 A 
HETATM   17 Cl2  UNK     1      23.895 -12.247  35.661  1.00  0.00    -0.084 Cl
HETATM   18  C6  UNK     1      21.305  -9.246  35.128  1.00  0.00     0.015 A 
ENDBRANCH   3  11
TORSDOF 2
ENDMDL
MODEL 6
REMARK VINA RESULT:      -6.6     17.655     19.373
REMARK  2 active torsions:
REMARK  status: ('A' for Active; 'I' for Inactive)
REMARK    1  A    between atoms: C1_4  and  C4_7 
REMARK    2  A    between atoms: C2_5  and  C3_6 
ROOT
HETATM    1  N1  UNK     1      29.530  -3.730  39.812  1.00  0.00    -0.191 NA
HETATM    2  C3  UNK     1      30.496  -5.593  38.277  1.00  0.00     0.055 C 
HETATM    3  C4  UNK     1      29.856  -6.792  38.260  1.00  0.00     0.036 C 
HETATM    4  C15 UNK     1      29.953  -4.568  39.130  1.00  0.00     0.100 C 
ENDROOT
BRANCH   2   5
HETATM    5  C2  UNK     1      31.687  -5.299  37.495  1.00  0.00    -0.015 A 
HETATM    6  C7  UNK     1      32.925  -5.804  37.893  1.00  0.00     0.013 A 
HETATM    7  C12 UNK     1      34.067  -5.523  37.143  1.00  0.00     0.001 A 
HETATM    8  C14 UNK     1      33.971  -4.738  35.993  1.00  0.00     0.000 A 
HETATM    9  C13 UNK     1      32.732  -4.234  35.594  1.00  0.00     0.001 A 
HETATM   10  C8  UNK     1      31.591  -4.515  36.346  1.00  0.00     0.013 A 
ENDBRANCH   2   5
BRANCH   3  11
HETATM   11  C1  UNK     1      30.236  -7.955  37.445  1.00  0.00    -0.013 A 
HETATM   12  C5  UNK     1      29.846  -8.077  36.118  1.00  0.00     0.045 A 
HETATM   13 Cl1  UNK     1      28.885  -6.877  35.324  1.00  0.00    -0.083 Cl
HETATM   14  C9  UNK     1      30.232  -9.199  35.386  1.00  0.00     0.048 A 
HETATM   15  C11 UNK     1      31.008 -10.191  35.988  1.00  0.00     0.035 A 
HETATM   16  C10 UNK     1      31.395 -10.059  37.321  1.00  0.00     0.024 A 
HETATM   17 Cl2  UNK     1      31.486 -11.576  35.085  1.00  0.00    -0.084 Cl
HETATM   18  C6  UNK     1      31.008  -8.938  38.054  1.00  0.00     0.015 A 
ENDBRANCH   3  11
TORSDOF 2
ENDMDL
MODEL 7
REMARK VINA RESULT:      -6.5     17.107     18.829
REMARK  2 active torsions:
REMARK  status: ('A' for Active; 'I' for Inactive)
REMARK    1  A    between atoms: C1_4  and  C4_7 
REMARK    2  A    between atoms: C2_5  and  C3_6 
ROOT
HETATM    1  N1  UNK     1      25.241  -7.732  38.693  1.00  0.00    -0.191 NA
HETATM    2  C3  UNK     1      27.697  -7.489  37.874  1.00  0.00     0.055 C 
HETATM    3  C4  UNK     1      28.605  -6.974  38.744  1.00  0.00     0.036 C 
HETATM    4  C15 UNK     1      26.340  -7.620  38.336  1.00  0.00     0.100 C 
ENDROOT
BRANCH   2   5
HETATM    5  C2  UNK     1      28.021  -7.903  36.517  1.00  0.00    -0.015 A 
HETATM    6  C7  UNK     1      28.151  -6.948  35.508  1.00  0.00     0.013 A 
HETATM    7  C12 UNK     1      28.462  -7.344  34.207  1.00  0.00     0.001 A 
HETATM    8  C14 UNK     1      28.642  -8.697  33.915  1.00  0.00     0.000 A 
HETATM    9  C13 UNK     1      28.513  -9.652  34.923  1.00  0.00     0.001 A 
HETATM   10  C8  UNK     1      28.202  -9.255  36.224  1.00  0.00     0.013 A 
ENDBRANCH   2   5
BRANCH   3  11
HETATM   11  C1  UNK     1      30.038  -6.780  38.475  1.00  0.00    -0.013 A 
HETATM   12  C5  UNK     1      30.588  -5.515  38.318  1.00  0.00     0.045 A 
HETATM   13 Cl1  UNK     1      29.637  -4.074  38.423  1.00  0.00    -0.083 Cl
HETATM   14  C9  UNK     1      31.953  -5.384  38.065  1.00  0.00     0.048 A 
HETATM   15  C11 UNK     1      32.757  -6.521  37.973  1.00  0.00     0.035 A 
HETATM   16  C10 UNK     1      32.195  -7.787  38.132  1.00  0.00     0.024 A 
HETATM   17 Cl2  UNK     1      34.443  -6.360  37.662  1.00  0.00    -0.084 Cl
HETATM   18  C6  UNK     1      30.830  -7.919  38.385  1.00  0.00     0.015 A 
ENDBRANCH   3  11
TORSDOF 2
ENDMDL
MODEL 8
REMARK VINA RESULT:      -6.4     17.630     18.984
REMARK  2 active torsions:
REMARK  status: ('A' for Active; 'I' for Inactive)
REMARK    1  A    between atoms: C1_4  and  C4_7 
REMARK    2  A    between atoms: C2_5  and  C3_6 
ROOT
HETATM    1  N1  UNK     1      29.547  -3.877  39.804  1.00  0.00    -0.191 NA
HETATM    2  C3  UNK     1      30.413  -5.373  37.862  1.00  0.00     0.055 C 
HETATM    3  C4  UNK     1      30.852  -4.753  36.735  1.00  0.00     0.036 C 
HETATM    4  C15 UNK     1      29.936  -4.536  38.932  1.00  0.00     0.100 C 
ENDROOT
BRANCH   2   5
HETATM    5  C2  UNK     1      30.395  -6.817  38.038  1.00  0.00    -0.015 A 
HETATM    6  C7  UNK     1      31.592  -7.516  38.198  1.00  0.00     0.013 A 
HETATM    7  C12 UNK     1      31.575  -8.900  38.366  1.00  0.00     0.001 A 
HETATM    8  C14 UNK     1      30.361  -9.587  38.375  1.00  0.00     0.000 A 
HETATM    9  C13 UNK     1      29.163  -8.888  38.217  1.00  0.00     0.001 A 
HETATM   10  C8  UNK     1      29.181  -7.503  38.047  1.00  0.00     0.013 A 
ENDBRANCH   2   5
BRANCH   3  11
HETATM   11  C1  UNK     1      31.396  -5.423  35.544  1.00  0.00    -0.013 A 
HETATM   12  C5  UNK     1      32.761  -5.610  35.371  1.00  0.00     0.045 A 
HETATM   13 Cl1  UNK     1      33.923  -5.072  36.533  1.00  0.00    -0.083 Cl
HETATM   14  C9  UNK     1      33.228  -6.252  34.224  1.00  0.00     0.048 A 
HETATM   15  C11 UNK     1      32.324  -6.703  33.261  1.00  0.00     0.035 A 
HETATM   16  C10 UNK     1      30.956  -6.510  33.445  1.00  0.00     0.024 A 
HETATM   17 Cl2  UNK     1      32.899  -7.497  31.846  1.00  0.00    -0.084 Cl
HETATM   18  C6  UNK     1      30.488  -5.868  34.591  1.00  0.00     0.015 A 
ENDBRANCH   3  11
TORSDOF 2
ENDMDL
MODEL 9
REMARK VINA RESULT:      -6.3     16.543     18.209
REMARK  2 active torsions:
REMARK  status: ('A' for Active; 'I' for Inactive)
REMARK    1  A    between atoms: C1_4  and  C4_7 
REMARK    2  A    between atoms: C2_5  and  C3_6 
ROOT
HETATM    1  N1  UNK     1      28.849 -10.128  39.264  1.00  0.00    -0.191 NA
HETATM    2  C3  UNK     1      29.209  -8.239  37.514  1.00  0.00     0.055 C 
HETATM    3  C4  UNK     1      29.156  -8.578  36.199  1.00  0.00     0.036 C 
HETATM    4  C15 UNK     1      29.008  -9.292  38.476  1.00  0.00     0.100 C 
ENDROOT
BRANCH   2   5
HETATM    5  C2  UNK     1      29.460  -6.888  37.993  1.00  0.00    -0.015 A 
HETATM    6  C7  UNK     1      30.769  -6.459  38.216  1.00  0.00     0.013 A 
HETATM    7  C12 UNK     1      31.010  -5.164  38.674  1.00  0.00     0.001 A 
HETATM    8  C14 UNK     1      29.943  -4.297  38.910  1.00  0.00     0.000 A 
HETATM    9  C13 UNK     1      28.634  -4.725  38.686  1.00  0.00     0.001 A 
HETATM   10  C8  UNK     1      28.393  -6.021  38.228  1.00  0.00     0.013 A 
ENDBRANCH   2   5
BRANCH   3  11
HETATM   11  C1  UNK     1      29.312  -7.652  35.068  1.00  0.00    -0.013 A 
HETATM   12  C5  UNK     1      30.560  -7.340  34.545  1.00  0.00     0.045 A 
HETATM   13 Cl1  UNK     1      32.022  -8.010  35.181  1.00  0.00    -0.083 Cl
HETATM   14  C9  UNK     1      30.655  -6.457  33.470  1.00  0.00     0.048 A 
HETATM   15  C11 UNK     1      29.500  -5.893  32.926  1.00  0.00     0.035 A 
HETATM   16  C10 UNK     1      28.251  -6.213  33.458  1.00  0.00     0.024 A 
HETATM   17 Cl2  UNK     1      29.616  -4.804  31.598  1.00  0.00    -0.084 Cl
HETATM   18  C6  UNK     1      28.156  -7.096  34.533  1.00  0.00     0.015 A 
ENDBRANCH   3  11
TORSDOF 2
ENDMDL
MODEL 10
REMARK VINA RESULT:      -6.3     16.501     18.962
REMARK  2 active torsions:
REMARK  status: ('A' for Active; 'I' for Inactive)
REMARK    1  A    between atoms: C1_4  and  C4_7 
REMARK    2  A    between atoms: C2_5  and  C3_6 
ROOT
HETATM    1  N1  UNK     1      25.595  -6.201  29.791  1.00  0.00    -0.191 NA
HETATM    2  C3  UNK     1      27.629  -7.559  30.674  1.00  0.00     0.055 C 
HETATM    3  C4  UNK     1      27.891  -7.509  32.007  1.00  0.00     0.036 C 
HETATM    4  C15 UNK     1      26.501  -6.804  30.195  1.00  0.00     0.100 C 
ENDROOT
BRANCH   2   5
HETATM    5  C2  UNK     1      28.422  -8.320  29.721  1.00  0.00    -0.015 A 
HETATM    6  C7  UNK     1      29.688  -7.867  29.348  1.00  0.00     0.013 A 
HETATM    7  C12 UNK     1      30.450  -8.596  28.435  1.00  0.00     0.001 A 
HETATM    8  C14 UNK     1      29.945  -9.779  27.893  1.00  0.00     0.000 A 
HETATM    9  C13 UNK     1      28.679 -10.233  28.267  1.00  0.00     0.001 A 
HETATM   10  C8  UNK     1      27.918  -9.502  29.180  1.00  0.00     0.013 A 
ENDBRANCH   2   5
BRANCH   3  11
HETATM   11  C1  UNK     1      28.978  -8.222  32.695  1.00  0.00    -0.013 A 
HETATM   12  C5  UNK     1      30.190  -7.608  32.981  1.00  0.00     0.045 A 
HETATM   13 Cl1  UNK     1      30.517  -5.965  32.550  1.00  0.00    -0.083 Cl
HETATM   14  C9  UNK     1      31.188  -8.327  33.636  1.00  0.00     0.048 A 
HETATM   15  C11 UNK     1      30.966  -9.654  34.002  1.00  0.00     0.035 A 
HETATM   16  C10 UNK     1      29.745 -10.262  33.711  1.00  0.00     0.024 A 
HETATM   17 Cl2  UNK     1      32.198 -10.542  34.813  1.00  0.00    -0.084 Cl
HETATM   18  C6  UNK     1      28.746  -9.544  33.055  1.00  0.00     0.015 A 
ENDBRANCH   3  11
TORSDOF 2
ENDMDL
