MODEL 1
REMARK VINA RESULT:      -8.0      0.000      0.000
REMARK  0 active torsions:
REMARK  status: ('A' for Active; 'I' for Inactive)
ROOT
HETATM    1  O1  UNK     1      16.300   6.335  10.192  1.00  0.00    -0.273 OA
HETATM    2  O2  UNK     1      10.123   6.804   9.056  1.00  0.00    -0.262 OA
HETATM    3  O3  UNK     1      15.666   4.188   9.775  1.00  0.00    -0.257 OA
HETATM    4  O4  UNK     1      10.863   4.291   9.036  1.00  0.00    -0.262 OA
HETATM    5  N1  UNK     1      12.340   7.543   9.353  1.00  0.00    -0.311 N 
HETATM    6  N2  UNK     1      13.057   4.895   9.419  1.00  0.00    -0.312 N 
HETATM    7  C1  UNK     1      13.695   7.179   9.428  1.00  0.00     0.083 C 
HETATM    8  C2  UNK     1      14.832   8.137   9.431  1.00  0.00     0.027 A 
HETATM    9  C3  UNK     1      14.009   5.873   9.528  1.00  0.00     0.139 C 
HETATM   10  C4  UNK     1      16.077   7.687   9.884  1.00  0.00     0.092 A 
HETATM   11  C5  UNK     1      11.324   6.586   9.189  1.00  0.00     0.316 C 
HETATM   12  C6  UNK     1      15.379   5.381   9.805  1.00  0.00     0.317 C 
HETATM   13  C7  UNK     1      14.802   9.452   8.945  1.00  0.00     0.017 A 
HETATM   14  C8  UNK     1      11.878   8.912   9.534  1.00  0.00     0.160 C 
HETATM   15  C9  UNK     1      11.730   5.140   9.198  1.00  0.00     0.314 C 
HETATM   16  C10 UNK     1      17.203   8.513   9.976  1.00  0.00     0.038 A 
HETATM   17  C11 UNK     1      15.920  10.295   9.020  1.00  0.00     0.001 A 
HETATM   18  C12 UNK     1      17.116   9.832   9.554  1.00  0.00     0.003 A 
HETATM   19  H1  UNK     1      13.362   3.928   9.484  1.00  0.00     0.169 HD
ENDROOT
TORSDOF 0
ENDMDL
MODEL 2
REMARK VINA RESULT:      -7.9     24.218     25.283
REMARK  0 active torsions:
REMARK  status: ('A' for Active; 'I' for Inactive)
ROOT
HETATM    1  O1  UNK     1      17.896   3.913  32.090  1.00  0.00    -0.273 OA
HETATM    2  O2  UNK     1      18.419  -0.553  36.499  1.00  0.00    -0.262 OA
HETATM    3  O3  UNK     1      18.098   5.092  34.027  1.00  0.00    -0.257 OA
HETATM    4  O4  UNK     1      18.342   1.818  37.611  1.00  0.00    -0.262 OA
HETATM    5  N1  UNK     1      18.403   0.369  34.332  1.00  0.00    -0.311 N 
HETATM    6  N2  UNK     1      18.230   2.827  35.539  1.00  0.00    -0.312 N 
HETATM    7  C1  UNK     1      18.444   1.541  33.558  1.00  0.00     0.083 C 
HETATM    8  C2  UNK     1      18.623   1.578  32.083  1.00  0.00     0.027 A 
HETATM    9  C3  UNK     1      18.287   2.729  34.174  1.00  0.00     0.139 C 
HETATM   10  C4  UNK     1      18.271   2.748  31.401  1.00  0.00     0.092 A 
HETATM   11  C5  UNK     1      18.396   0.409  35.736  1.00  0.00     0.316 C 
HETATM   12  C6  UNK     1      18.120   4.010  33.450  1.00  0.00     0.317 C 
HETATM   13  C7  UNK     1      19.194   0.566  31.297  1.00  0.00     0.017 A 
HETATM   14  C8  UNK     1      18.270  -0.959  33.749  1.00  0.00     0.160 C 
HETATM   15  C9  UNK     1      18.329   1.760  36.389  1.00  0.00     0.314 C 
HETATM   16  C10 UNK     1      18.353   2.878  30.010  1.00  0.00     0.038 A 
HETATM   17  C11 UNK     1      19.292   0.678  29.903  1.00  0.00     0.001 A 
HETATM   18  C12 UNK     1      18.853   1.826  29.256  1.00  0.00     0.003 A 
HETATM   19  H1  UNK     1      18.131   3.754  35.943  1.00  0.00     0.169 HD
ENDROOT
TORSDOF 0
ENDMDL
MODEL 3
REMARK VINA RESULT:      -7.7     23.166     24.308
REMARK  0 active torsions:
REMARK  status: ('A' for Active; 'I' for Inactive)
ROOT
HETATM    1  O1  UNK     1      18.309   3.287  34.092  1.00  0.00    -0.273 OA
HETATM    2  O2  UNK     1      19.209   0.315  28.613  1.00  0.00    -0.262 OA
HETATM    3  O3  UNK     1      17.499   4.751  32.548  1.00  0.00    -0.257 OA
HETATM    4  O4  UNK     1      18.256   2.720  28.198  1.00  0.00    -0.262 OA
HETATM    5  N1  UNK     1      19.045   0.562  30.950  1.00  0.00    -0.311 N 
HETATM    6  N2  UNK     1      18.137   3.107  30.469  1.00  0.00    -0.312 N 
HETATM    7  C1  UNK     1      18.613   1.371  32.014  1.00  0.00     0.083 C 
HETATM    8  C2  UNK     1      18.558   0.944  33.436  1.00  0.00     0.027 A 
HETATM    9  C3  UNK     1      18.239   2.638  31.752  1.00  0.00     0.139 C 
HETATM   10  C4  UNK     1      18.480   1.933  34.423  1.00  0.00     0.092 A 
HETATM   11  C5  UNK     1      18.917   0.969  29.611  1.00  0.00     0.316 C 
HETATM   12  C6  UNK     1      17.951   3.640  32.805  1.00  0.00     0.317 C 
HETATM   13  C7  UNK     1      18.499  -0.379  33.898  1.00  0.00     0.017 A 
HETATM   14  C8  UNK     1      19.736  -0.705  31.150  1.00  0.00     0.160 C 
HETATM   15  C9  UNK     1      18.393   2.353  29.356  1.00  0.00     0.314 C 
HETATM   16  C10 UNK     1      18.472   1.649  35.794  1.00  0.00     0.038 A 
HETATM   17  C11 UNK     1      18.483  -0.686  35.266  1.00  0.00     0.001 A 
HETATM   18  C12 UNK     1      18.489   0.327  36.215  1.00  0.00     0.003 A 
HETATM   19  H1  UNK     1      17.831   4.066  30.338  1.00  0.00     0.169 HD
ENDROOT
TORSDOF 0
ENDMDL
MODEL 4
REMARK VINA RESULT:      -7.6     25.959     27.145
REMARK  0 active torsions:
REMARK  status: ('A' for Active; 'I' for Inactive)
ROOT
HETATM    1  O1  UNK     1      18.373   0.213  32.352  1.00  0.00    -0.273 OA
HETATM    2  O2  UNK     1      18.284  -1.393  38.441  1.00  0.00    -0.262 OA
HETATM    3  O3  UNK     1      17.695   2.117  33.399  1.00  0.00    -0.257 OA
HETATM    4  O4  UNK     1      17.387   1.049  38.131  1.00  0.00    -0.262 OA
HETATM    5  N1  UNK     1      18.799  -1.585  36.150  1.00  0.00    -0.311 N 
HETATM    6  N2  UNK     1      17.765   0.940  35.857  1.00  0.00    -0.312 N 
HETATM    7  C1  UNK     1      18.861  -0.935  34.906  1.00  0.00     0.083 C 
HETATM    8  C2  UNK     1      19.502  -1.496  33.688  1.00  0.00     0.027 A 
HETATM    9  C3  UNK     1      18.283   0.274  34.778  1.00  0.00     0.139 C 
HETATM   10  C4  UNK     1      19.172  -0.938  32.448  1.00  0.00     0.092 A 
HETATM   11  C5  UNK     1      18.325  -0.934  37.302  1.00  0.00     0.316 C 
HETATM   12  C6  UNK     1      18.116   0.968  33.480  1.00  0.00     0.317 C 
HETATM   13  C7  UNK     1      20.484  -2.497  33.660  1.00  0.00     0.017 A 
HETATM   14  C8  UNK     1      19.125  -2.994  36.324  1.00  0.00     0.160 C 
HETATM   15  C9  UNK     1      17.786   0.458  37.137  1.00  0.00     0.314 C 
HETATM   16  C10 UNK     1      19.677  -1.416  31.233  1.00  0.00     0.038 A 
HETATM   17  C11 UNK     1      21.010  -2.986  32.455  1.00  0.00     0.001 A 
HETATM   18  C12 UNK     1      20.592  -2.460  31.240  1.00  0.00     0.003 A 
HETATM   19  H1  UNK     1      17.360   1.858  35.698  1.00  0.00     0.169 HD
ENDROOT
TORSDOF 0
ENDMDL
MODEL 5
REMARK VINA RESULT:      -7.6     23.466     24.738
REMARK  0 active torsions:
REMARK  status: ('A' for Active; 'I' for Inactive)
ROOT
HETATM    1  O1  UNK     1      18.077   2.208  32.959  1.00  0.00    -0.273 OA
HETATM    2  O2  UNK     1      20.900  -2.441  29.784  1.00  0.00    -0.262 OA
HETATM    3  O3  UNK     1      17.728   2.758  30.777  1.00  0.00    -0.257 OA
HETATM    4  O4  UNK     1      19.989  -0.629  28.125  1.00  0.00    -0.262 OA
HETATM    5  N1  UNK     1      19.966  -1.333  31.641  1.00  0.00    -0.311 N 
HETATM    6  N2  UNK     1      19.111   0.588  29.877  1.00  0.00    -0.312 N 
HETATM    7  C1  UNK     1      19.161  -0.271  32.087  1.00  0.00     0.083 C 
HETATM    8  C2  UNK     1      18.671  -0.106  33.481  1.00  0.00     0.027 A 
HETATM    9  C3  UNK     1      18.816   0.692  31.211  1.00  0.00     0.139 C 
HETATM   10  C4  UNK     1      18.213   1.155  33.878  1.00  0.00     0.092 A 
HETATM   11  C5  UNK     1      20.259  -1.518  30.279  1.00  0.00     0.316 C 
HETATM   12  C6  UNK     1      18.139   1.949  31.603  1.00  0.00     0.317 C 
HETATM   13  C7  UNK     1      18.546  -1.126  34.436  1.00  0.00     0.017 A 
HETATM   14  C8  UNK     1      20.631  -2.257  32.549  1.00  0.00     0.160 C 
HETATM   15  C9  UNK     1      19.763  -0.476  29.318  1.00  0.00     0.314 C 
HETATM   16  C10 UNK     1      17.774   1.437  35.177  1.00  0.00     0.038 A 
HETATM   17  C11 UNK     1      18.102  -0.867  35.741  1.00  0.00     0.001 A 
HETATM   18  C12 UNK     1      17.735   0.418  36.118  1.00  0.00     0.003 A 
HETATM   19  H1  UNK     1      18.806   1.339  29.265  1.00  0.00     0.169 HD
ENDROOT
TORSDOF 0
ENDMDL
MODEL 6
REMARK VINA RESULT:      -7.6     25.744     26.934
REMARK  0 active torsions:
REMARK  status: ('A' for Active; 'I' for Inactive)
ROOT
HETATM    1  O1  UNK     1      18.048   1.988  34.589  1.00  0.00    -0.273 OA
HETATM    2  O2  UNK     1      20.836  -3.428  32.991  1.00  0.00    -0.262 OA
HETATM    3  O3  UNK     1      17.884   1.949  32.318  1.00  0.00    -0.257 OA
HETATM    4  O4  UNK     1      20.142  -2.094  30.845  1.00  0.00    -0.262 OA
HETATM    5  N1  UNK     1      19.834  -1.835  34.408  1.00  0.00    -0.311 N 
HETATM    6  N2  UNK     1      19.209  -0.426  32.137  1.00  0.00    -0.312 N 
HETATM    7  C1  UNK     1      19.057  -0.667  34.492  1.00  0.00     0.083 C 
HETATM    8  C2  UNK     1      18.479  -0.121  35.747  1.00  0.00     0.027 A 
HETATM    9  C3  UNK     1      18.827   0.038  33.368  1.00  0.00     0.139 C 
HETATM   10  C4  UNK     1      18.063   1.214  35.760  1.00  0.00     0.092 A 
HETATM   11  C5  UNK     1      20.211  -2.386  33.171  1.00  0.00     0.316 C 
HETATM   12  C6  UNK     1      18.191   1.376  33.358  1.00  0.00     0.317 C 
HETATM   13  C7  UNK     1      18.233  -0.845  36.924  1.00  0.00     0.017 A 
HETATM   14  C8  UNK     1      20.383  -2.506  35.579  1.00  0.00     0.160 C 
HETATM   15  C9  UNK     1      19.841  -1.622  31.933  1.00  0.00     0.314 C 
HETATM   16  C10 UNK     1      17.549   1.846  36.899  1.00  0.00     0.038 A 
HETATM   17  C11 UNK     1      17.712  -0.234  38.073  1.00  0.00     0.001 A 
HETATM   18  C12 UNK     1      17.389   1.117  38.068  1.00  0.00     0.003 A 
HETATM   19  H1  UNK     1      18.988   0.144  31.326  1.00  0.00     0.169 HD
ENDROOT
TORSDOF 0
ENDMDL
MODEL 7
REMARK VINA RESULT:      -7.6     34.158     35.752
REMARK  0 active torsions:
REMARK  status: ('A' for Active; 'I' for Inactive)
ROOT
HETATM    1  O1  UNK     1      27.582  -6.170  39.495  1.00  0.00    -0.273 OA
HETATM    2  O2  UNK     1      33.002  -4.586  36.707  1.00  0.00    -0.262 OA
HETATM    3  O3  UNK     1      27.197  -4.060  38.733  1.00  0.00    -0.257 OA
HETATM    4  O4  UNK     1      31.340  -2.561  36.681  1.00  0.00    -0.262 OA
HETATM    5  N1  UNK     1      31.392  -6.004  37.681  1.00  0.00    -0.311 N 
HETATM    6  N2  UNK     1      29.716  -3.831  37.717  1.00  0.00    -0.312 N 
HETATM    7  C1  UNK     1      30.060  -6.146  38.103  1.00  0.00     0.083 C 
HETATM    8  C2  UNK     1      29.431  -7.430  38.509  1.00  0.00     0.027 A 
HETATM    9  C3  UNK     1      29.284  -5.048  38.175  1.00  0.00     0.139 C 
HETATM   10  C4  UNK     1      28.249  -7.383  39.255  1.00  0.00     0.092 A 
HETATM   11  C5  UNK     1      31.878  -4.794  37.154  1.00  0.00     0.316 C 
HETATM   12  C6  UNK     1      27.933  -5.039  38.783  1.00  0.00     0.317 C 
HETATM   13  C7  UNK     1      29.871  -8.713  38.149  1.00  0.00     0.017 A 
HETATM   14  C8  UNK     1      32.389  -7.054  37.841  1.00  0.00     0.160 C 
HETATM   15  C9  UNK     1      30.944  -3.618  37.153  1.00  0.00     0.314 C 
HETATM   16  C10 UNK     1      27.597  -8.526  39.732  1.00  0.00     0.038 A 
HETATM   17  C11 UNK     1      29.229  -9.872  38.609  1.00  0.00     0.001 A 
HETATM   18  C12 UNK     1      28.103  -9.779  39.418  1.00  0.00     0.003 A 
HETATM   19  H1  UNK     1      29.076  -3.046  37.782  1.00  0.00     0.169 HD
ENDROOT
TORSDOF 0
ENDMDL
MODEL 8
REMARK VINA RESULT:      -7.5     22.617     23.489
REMARK  0 active torsions:
REMARK  status: ('A' for Active; 'I' for Inactive)
ROOT
HETATM    1  O1  UNK     1      19.053   3.822  29.721  1.00  0.00    -0.273 OA
HETATM    2  O2  UNK     1      18.296  -0.009  34.662  1.00  0.00    -0.262 OA
HETATM    3  O3  UNK     1      18.836   1.762  28.775  1.00  0.00    -0.257 OA
HETATM    4  O4  UNK     1      18.410  -1.398  32.443  1.00  0.00    -0.262 OA
HETATM    5  N1  UNK     1      18.392   2.032  33.489  1.00  0.00    -0.311 N 
HETATM    6  N2  UNK     1      18.602   0.535  31.198  1.00  0.00    -0.312 N 
HETATM    7  C1  UNK     1      18.403   2.660  32.233  1.00  0.00     0.083 C 
HETATM    8  C2  UNK     1      18.262   4.124  32.015  1.00  0.00     0.027 A 
HETATM    9  C3  UNK     1      18.577   1.903  31.133  1.00  0.00     0.139 C 
HETATM   10  C4  UNK     1      18.664   4.653  30.784  1.00  0.00     0.092 A 
HETATM   11  C5  UNK     1      18.365   0.632  33.617  1.00  0.00     0.316 C 
HETATM   12  C6  UNK     1      18.798   2.465  29.780  1.00  0.00     0.317 C 
HETATM   13  C7  UNK     1      17.684   5.038  32.909  1.00  0.00     0.017 A 
HETATM   14  C8  UNK     1      18.503   2.767  34.742  1.00  0.00     0.160 C 
HETATM   15  C9  UNK     1      18.452  -0.178  32.356  1.00  0.00     0.314 C 
HETATM   16  C10 UNK     1      18.621   6.020  30.487  1.00  0.00     0.038 A 
HETATM   17  C11 UNK     1      17.624   6.410  32.629  1.00  0.00     0.001 A 
HETATM   18  C12 UNK     1      18.111   6.906  31.426  1.00  0.00     0.003 A 
HETATM   19  H1  UNK     1      18.717   0.022  30.330  1.00  0.00     0.169 HD
ENDROOT
TORSDOF 0
ENDMDL
MODEL 9
REMARK VINA RESULT:      -7.4     24.417     25.445
REMARK  0 active torsions:
REMARK  status: ('A' for Active; 'I' for Inactive)
ROOT
HETATM    1  O1  UNK     1      20.975  -2.002  31.972  1.00  0.00    -0.273 OA
HETATM    2  O2  UNK     1      17.090   1.021  35.900  1.00  0.00    -0.262 OA
HETATM    3  O3  UNK     1      20.596  -3.520  33.626  1.00  0.00    -0.257 OA
HETATM    4  O4  UNK     1      17.736  -1.321  36.883  1.00  0.00    -0.262 OA
HETATM    5  N1  UNK     1      18.270   0.604  33.905  1.00  0.00    -0.311 N 
HETATM    6  N2  UNK     1      18.998  -1.800  35.012  1.00  0.00    -0.312 N 
HETATM    7  C1  UNK     1      19.002  -0.329  33.151  1.00  0.00     0.083 C 
HETATM    8  C2  UNK     1      19.401  -0.146  31.731  1.00  0.00     0.027 A 
HETATM    9  C3  UNK     1      19.403  -1.469  33.746  1.00  0.00     0.139 C 
HETATM   10  C4  UNK     1      20.428  -0.949  31.222  1.00  0.00     0.092 A 
HETATM   11  C5  UNK     1      17.784   0.301  35.188  1.00  0.00     0.316 C 
HETATM   12  C6  UNK     1      20.336  -2.433  33.119  1.00  0.00     0.317 C 
HETATM   13  C7  UNK     1      18.790   0.716  30.808  1.00  0.00     0.017 A 
HETATM   14  C8  UNK     1      18.041   1.973  33.463  1.00  0.00     0.160 C 
HETATM   15  C9  UNK     1      18.164  -1.029  35.775  1.00  0.00     0.314 C 
HETATM   16  C10 UNK     1      20.917  -0.830  29.916  1.00  0.00     0.038 A 
HETATM   17  C11 UNK     1      19.259   0.844  29.493  1.00  0.00     0.001 A 
HETATM   18  C12 UNK     1      20.336   0.086  29.052  1.00  0.00     0.003 A 
HETATM   19  H1  UNK     1      19.319  -2.683  35.396  1.00  0.00     0.169 HD
ENDROOT
TORSDOF 0
ENDMDL
MODEL 10
REMARK VINA RESULT:      -7.3      1.935      4.780
REMARK  0 active torsions:
REMARK  status: ('A' for Active; 'I' for Inactive)
ROOT
HETATM    1  O1  UNK     1      13.567   4.721   8.778  1.00  0.00    -0.273 OA
HETATM    2  O2  UNK     1      17.117   9.797   9.913  1.00  0.00    -0.262 OA
HETATM    3  O3  UNK     1      15.372   3.878   9.881  1.00  0.00    -0.257 OA
HETATM    4  O4  UNK     1      18.351   7.628  10.711  1.00  0.00    -0.262 OA
HETATM    5  N1  UNK     1      15.187   8.584   9.319  1.00  0.00    -0.311 N 
HETATM    6  N2  UNK     1      16.552   6.328  10.081  1.00  0.00    -0.312 N 
HETATM    7  C1  UNK     1      14.544   7.335   9.320  1.00  0.00     0.083 C 
HETATM    8  C2  UNK     1      13.116   7.117   8.971  1.00  0.00     0.027 A 
HETATM    9  C3  UNK     1      15.261   6.238   9.632  1.00  0.00     0.139 C 
HETATM   10  C4  UNK     1      12.703   5.820   8.644  1.00  0.00     0.092 A 
HETATM   11  C5  UNK     1      16.492   8.745   9.816  1.00  0.00     0.316 C 
HETATM   12  C6  UNK     1      14.749   4.856   9.481  1.00  0.00     0.317 C 
HETATM   13  C7  UNK     1      12.100   8.084   9.012  1.00  0.00     0.017 A 
HETATM   14  C8  UNK     1      14.599   9.777   8.726  1.00  0.00     0.160 C 
HETATM   15  C9  UNK     1      17.221   7.508  10.256  1.00  0.00     0.314 C 
HETATM   16  C10 UNK     1      11.396   5.507   8.254  1.00  0.00     0.038 A 
HETATM   17  C11 UNK     1      10.783   7.790   8.633  1.00  0.00     0.001 A 
HETATM   18  C12 UNK     1      10.434   6.506   8.234  1.00  0.00     0.003 A 
HETATM   19  H1  UNK     1      17.031   5.465  10.318  1.00  0.00     0.169 HD
ENDROOT
TORSDOF 0
ENDMDL
