MODEL 1
REMARK VINA RESULT:     -10.1      0.000      0.000
REMARK  3 active torsions:
REMARK  status: ('A' for Active; 'I' for Inactive)
REMARK       I    between atoms: C17_23  and  N1_6 
REMARK    1  A    between atoms: C4_10  and  N1_6 
REMARK    2  A    between atoms: C1_7  and  C3_9 
REMARK    3  A    between atoms: C14_20  and  C17_23 
ROOT
HETATM    1  C1  UNK     1      17.602   7.642  33.378  1.00  0.00    -0.014 A 
HETATM    2  C2  UNK     1      17.226   7.173  32.118  1.00  0.00    -0.049 A 
HETATM    3  C4  UNK     1      18.373   5.090  32.547  1.00  0.00     0.035 A 
HETATM    4  C5  UNK     1      17.611   5.899  31.702  1.00  0.00     0.037 A 
HETATM    5  C6  UNK     1      18.364   6.832  34.221  1.00  0.00     0.015 A 
HETATM    6  C9  UNK     1      18.749   5.557  33.807  1.00  0.00     0.030 A 
HETATM    7  C12 UNK     1      16.411   8.012  31.187  1.00  0.00     0.049 C 
ENDROOT
BRANCH   3   8
HETATM    8  N1  UNK     1      18.759   3.815  32.131  1.00  0.00    -0.322 N 
HETATM    9  C17 UNK     1      18.053   2.924  31.314  1.00  0.00     0.264 C 
HETATM   10  O3  UNK     1      16.950   3.104  30.810  1.00  0.00    -0.267 OA
HETATM   11  H8  UNK     1      19.668   3.505  32.469  1.00  0.00     0.169 HD
BRANCH   9  12
HETATM   12  C14 UNK     1      18.720   1.617  31.070  1.00  0.00     0.096 A 
HETATM   13  S1  UNK     1      19.271   1.332  29.512  1.00  0.00    -0.082 SA
HETATM   14  C15 UNK     1      19.859  -0.220  29.980  1.00  0.00     0.017 A 
HETATM   15  C11 UNK     1      19.610  -0.472  31.332  1.00  0.00     0.004 A 
HETATM   16  C21 UNK     1      20.513  -1.163  29.163  1.00  0.00     0.020 A 
HETATM   17  C16 UNK     1      18.935   0.633  31.951  1.00  0.00     0.068 A 
HETATM   18  C20 UNK     1      20.035  -1.710  31.871  1.00  0.00     0.014 A 
HETATM   19 Cl1  UNK     1      18.483   0.642  33.609  1.00  0.00    -0.082 Cl
HETATM   20  C24 UNK     1      20.684  -2.649  31.064  1.00  0.00     0.001 A 
HETATM   21  C25 UNK     1      20.919  -2.375  29.724  1.00  0.00     0.001 A 
ENDBRANCH   9  12
ENDBRANCH   3   8
BRANCH   1  22
HETATM   22  C3  UNK     1      17.222   8.955  33.836  1.00  0.00     0.051 A 
HETATM   23  C13 UNK     1      15.862   9.132  34.426  1.00  0.00     0.299 A 
HETATM   24  O1  UNK     1      15.510  10.415  34.841  1.00  0.00    -0.274 OA
HETATM   25  O2  UNK     1      15.077   8.195  34.554  1.00  0.00    -0.259 OA
HETATM   26  C10 UNK     1      16.395  11.503  34.739  1.00  0.00     0.089 A 
HETATM   27  C8  UNK     1      17.664  11.329  34.204  1.00  0.00    -0.001 A 
HETATM   28  C19 UNK     1      15.954  12.744  35.194  1.00  0.00     0.038 A 
HETATM   29  C18 UNK     1      18.518  12.431  34.120  1.00  0.00     0.014 A 
HETATM   30  C7  UNK     1      18.054  10.006  33.746  1.00  0.00     0.032 A 
HETATM   31  C22 UNK     1      18.091  13.683  34.572  1.00  0.00     0.001 A 
HETATM   32  C23 UNK     1      16.811  13.838  35.108  1.00  0.00     0.003 A 
ENDBRANCH   1  22
TORSDOF 3
ENDMDL
MODEL 2
REMARK VINA RESULT:      -9.8      6.817      9.615
REMARK  3 active torsions:
REMARK  status: ('A' for Active; 'I' for Inactive)
REMARK       I    between atoms: C17_23  and  N1_6 
REMARK    1  A    between atoms: C4_10  and  N1_6 
REMARK    2  A    between atoms: C1_7  and  C3_9 
REMARK    3  A    between atoms: C14_20  and  C17_23 
ROOT
HETATM    1  C1  UNK     1      18.659  -0.329  35.307  1.00  0.00    -0.014 A 
HETATM    2  C2  UNK     1      17.616  -0.943  36.004  1.00  0.00    -0.049 A 
HETATM    3  C4  UNK     1      18.928  -2.963  36.195  1.00  0.00     0.035 A 
HETATM    4  C5  UNK     1      17.750  -2.259  36.448  1.00  0.00     0.037 A 
HETATM    5  C6  UNK     1      19.836  -1.035  35.056  1.00  0.00     0.015 A 
HETATM    6  C9  UNK     1      19.971  -2.351  35.499  1.00  0.00     0.030 A 
HETATM    7  C12 UNK     1      16.340  -0.220  36.292  1.00  0.00     0.049 C 
ENDROOT
BRANCH   3   8
HETATM    8  N1  UNK     1      19.063  -4.280  36.637  1.00  0.00    -0.322 N 
HETATM    9  C17 UNK     1      20.207  -4.903  37.152  1.00  0.00     0.264 C 
HETATM   10  O3  UNK     1      21.313  -4.398  37.309  1.00  0.00    -0.267 OA
HETATM   11  H8  UNK     1      18.221  -4.848  36.573  1.00  0.00     0.169 HD
BRANCH   9  12
HETATM   12  C14 UNK     1      20.043  -6.336  37.515  1.00  0.00     0.096 A 
HETATM   13  S1  UNK     1      20.145  -6.718  39.145  1.00  0.00    -0.082 SA
HETATM   14  C15 UNK     1      19.881  -8.385  38.795  1.00  0.00     0.017 A 
HETATM   15  C11 UNK     1      19.723  -8.598  37.422  1.00  0.00     0.004 A 
HETATM   16  C21 UNK     1      19.822  -9.449  39.716  1.00  0.00     0.020 A 
HETATM   17  C16 UNK     1      19.823  -7.367  36.691  1.00  0.00     0.068 A 
HETATM   18  C20 UNK     1      19.496  -9.921  36.971  1.00  0.00     0.014 A 
HETATM   19 Cl1  UNK     1      19.674  -7.281  34.981  1.00  0.00    -0.082 Cl
HETATM   20  C24 UNK     1      19.437 -10.979  37.883  1.00  0.00     0.001 A 
HETATM   21  C25 UNK     1      19.598 -10.742  39.240  1.00  0.00     0.001 A 
ENDBRANCH   9  12
ENDBRANCH   3   8
BRANCH   1  22
HETATM   22  C3  UNK     1      18.550   1.028  34.834  1.00  0.00     0.051 A 
HETATM   23  C13 UNK     1      18.646   2.134  35.833  1.00  0.00     0.299 A 
HETATM   24  O1  UNK     1      18.516   3.436  35.354  1.00  0.00    -0.274 OA
HETATM   25  O2  UNK     1      18.837   1.923  37.027  1.00  0.00    -0.259 OA
HETATM   26  C10 UNK     1      18.327   3.716  33.989  1.00  0.00     0.089 A 
HETATM   27  C8  UNK     1      18.254   2.684  33.063  1.00  0.00    -0.001 A 
HETATM   28  C19 UNK     1      18.221   5.053  33.607  1.00  0.00     0.038 A 
HETATM   29  C18 UNK     1      18.069   2.998  31.715  1.00  0.00     0.014 A 
HETATM   30  C7  UNK     1      18.369   1.314  33.535  1.00  0.00     0.032 A 
HETATM   31  C22 UNK     1      17.961   4.333  31.316  1.00  0.00     0.001 A 
HETATM   32  C23 UNK     1      18.038   5.358  32.261  1.00  0.00     0.003 A 
ENDBRANCH   1  22
TORSDOF 3
ENDMDL
MODEL 3
REMARK VINA RESULT:      -9.8     22.704     25.147
REMARK  3 active torsions:
REMARK  status: ('A' for Active; 'I' for Inactive)
REMARK       I    between atoms: C17_23  and  N1_6 
REMARK    1  A    between atoms: C4_10  and  N1_6 
REMARK    2  A    between atoms: C1_7  and  C3_9 
REMARK    3  A    between atoms: C14_20  and  C17_23 
ROOT
HETATM    1  C1  UNK     1      14.555   8.862   9.168  1.00  0.00    -0.014 A 
HETATM    2  C2  UNK     1      15.488   8.142   9.917  1.00  0.00    -0.049 A 
HETATM    3  C4  UNK     1      17.028   9.999   9.790  1.00  0.00     0.035 A 
HETATM    4  C5  UNK     1      16.724   8.710  10.228  1.00  0.00     0.037 A 
HETATM    5  C6  UNK     1      14.862  10.151   8.732  1.00  0.00     0.015 A 
HETATM    6  C9  UNK     1      16.097  10.720   9.041  1.00  0.00     0.030 A 
HETATM    7  C12 UNK     1      15.196   6.759  10.402  1.00  0.00     0.049 C 
ENDROOT
BRANCH   3   8
HETATM    8  N1  UNK     1      18.264  10.568  10.099  1.00  0.00    -0.322 N 
HETATM    9  C17 UNK     1      18.530  11.876  10.524  1.00  0.00     0.264 C 
HETATM   10  O3  UNK     1      17.712  12.772  10.701  1.00  0.00    -0.267 OA
HETATM   11  H8  UNK     1      19.066   9.947  10.002  1.00  0.00     0.169 HD
BRANCH   9  12
HETATM   12  C14 UNK     1      19.965  12.194  10.750  1.00  0.00     0.096 A 
HETATM   13  S1  UNK     1      20.399  12.654  12.303  1.00  0.00    -0.082 SA
HETATM   14  C15 UNK     1      22.043  12.836  11.814  1.00  0.00     0.017 A 
HETATM   15  C11 UNK     1      22.207  12.535  10.459  1.00  0.00     0.004 A 
HETATM   16  C21 UNK     1      23.130  13.232  12.618  1.00  0.00     0.020 A 
HETATM   17  C16 UNK     1      20.960  12.158   9.856  1.00  0.00     0.068 A 
HETATM   18  C20 UNK     1      23.505  12.636   9.903  1.00  0.00     0.014 A 
HETATM   19 Cl1  UNK     1      20.816  11.727   8.198  1.00  0.00    -0.082 Cl
HETATM   20  C24 UNK     1      24.586  13.029  10.697  1.00  0.00     0.001 A 
HETATM   21  C25 UNK     1      24.398  13.323  12.039  1.00  0.00     0.001 A 
ENDBRANCH   9  12
ENDBRANCH   3   8
BRANCH   1  22
HETATM   22  C3  UNK     1      13.271   8.302   8.829  1.00  0.00     0.051 A 
HETATM   23  C13 UNK     1      12.173   8.389   9.838  1.00  0.00     0.299 A 
HETATM   24  O1  UNK     1      10.947   7.822   9.495  1.00  0.00    -0.274 OA
HETATM   25  O2  UNK     1      12.325   8.940  10.925  1.00  0.00    -0.259 OA
HETATM   26  C10 UNK     1      10.728   7.212   8.247  1.00  0.00     0.089 A 
HETATM   27  C8  UNK     1      11.748   7.147   7.307  1.00  0.00    -0.001 A 
HETATM   28  C19 UNK     1       9.464   6.684   7.994  1.00  0.00     0.038 A 
HETATM   29  C18 UNK     1      11.496   6.536   6.077  1.00  0.00     0.014 A 
HETATM   30  C7  UNK     1      13.044   7.715   7.643  1.00  0.00     0.032 A 
HETATM   31  C22 UNK     1      10.232   6.003   5.807  1.00  0.00     0.001 A 
HETATM   32  C23 UNK     1       9.218   6.077   6.765  1.00  0.00     0.003 A 
ENDBRANCH   1  22
TORSDOF 3
ENDMDL
MODEL 4
REMARK VINA RESULT:      -9.7      2.975     10.964
REMARK  3 active torsions:
REMARK  status: ('A' for Active; 'I' for Inactive)
REMARK       I    between atoms: C17_23  and  N1_6 
REMARK    1  A    between atoms: C4_10  and  N1_6 
REMARK    2  A    between atoms: C1_7  and  C3_9 
REMARK    3  A    between atoms: C14_20  and  C17_23 
ROOT
HETATM    1  C1  UNK     1      18.680   3.770  30.955  1.00  0.00    -0.014 A 
HETATM    2  C2  UNK     1      18.140   3.913  32.235  1.00  0.00    -0.049 A 
HETATM    3  C4  UNK     1      18.129   6.314  31.965  1.00  0.00     0.035 A 
HETATM    4  C5  UNK     1      17.865   5.184  32.740  1.00  0.00     0.037 A 
HETATM    5  C6  UNK     1      18.943   4.901  30.182  1.00  0.00     0.015 A 
HETATM    6  C9  UNK     1      18.668   6.173  30.686  1.00  0.00     0.030 A 
HETATM    7  C12 UNK     1      17.846   2.725  33.093  1.00  0.00     0.049 C 
ENDROOT
BRANCH   3   8
HETATM    8  N1  UNK     1      17.855   7.586  32.469  1.00  0.00    -0.322 N 
HETATM    9  C17 UNK     1      18.307   8.155  33.667  1.00  0.00     0.264 C 
HETATM   10  O3  UNK     1      19.035   7.629  34.502  1.00  0.00    -0.267 OA
HETATM   11  H8  UNK     1      17.252   8.164  31.887  1.00  0.00     0.169 HD
BRANCH   9  12
HETATM   12  C14 UNK     1      17.817   9.531  33.944  1.00  0.00     0.096 A 
HETATM   13  S1  UNK     1      18.969  10.749  33.976  1.00  0.00    -0.082 SA
HETATM   14  C15 UNK     1      17.753  11.922  34.321  1.00  0.00     0.017 A 
HETATM   15  C11 UNK     1      16.487  11.333  34.401  1.00  0.00     0.004 A 
HETATM   16  C21 UNK     1      17.935  13.306  34.509  1.00  0.00     0.020 A 
HETATM   17  C16 UNK     1      16.557   9.918  34.174  1.00  0.00     0.068 A 
HETATM   18  C20 UNK     1      15.377  12.168  34.678  1.00  0.00     0.014 A 
HETATM   19 Cl1  UNK     1      15.174   8.898  34.204  1.00  0.00    -0.082 Cl
HETATM   20  C24 UNK     1      15.554  13.542  34.866  1.00  0.00     0.001 A 
HETATM   21  C25 UNK     1      16.820  14.102  34.782  1.00  0.00     0.001 A 
ENDBRANCH   9  12
ENDBRANCH   3   8
BRANCH   1  22
HETATM   22  C3  UNK     1      18.977   2.470  30.407  1.00  0.00     0.051 A 
HETATM   23  C13 UNK     1      18.559   2.183  29.002  1.00  0.00     0.299 A 
HETATM   24  O1  UNK     1      18.839   0.913  28.502  1.00  0.00    -0.274 OA
HETATM   25  O2  UNK     1      17.997   3.022  28.303  1.00  0.00    -0.259 OA
HETATM   26  C10 UNK     1      19.508  -0.061  29.265  1.00  0.00     0.089 A 
HETATM   27  C8  UNK     1      19.909   0.217  30.565  1.00  0.00    -0.001 A 
HETATM   28  C19 UNK     1      19.753  -1.297  28.671  1.00  0.00     0.038 A 
HETATM   29  C18 UNK     1      20.574  -0.772  31.293  1.00  0.00     0.014 A 
HETATM   30  C7  UNK     1      19.616   1.528  31.120  1.00  0.00     0.032 A 
HETATM   31  C22 UNK     1      20.827  -2.017  30.711  1.00  0.00     0.001 A 
HETATM   32  C23 UNK     1      20.417  -2.278  29.402  1.00  0.00     0.003 A 
ENDBRANCH   1  22
TORSDOF 3
ENDMDL
MODEL 5
REMARK VINA RESULT:      -9.7      1.453      2.072
REMARK  3 active torsions:
REMARK  status: ('A' for Active; 'I' for Inactive)
REMARK       I    between atoms: C17_23  and  N1_6 
REMARK    1  A    between atoms: C4_10  and  N1_6 
REMARK    2  A    between atoms: C1_7  and  C3_9 
REMARK    3  A    between atoms: C14_20  and  C17_23 
ROOT
HETATM    1  C1  UNK     1      17.046   8.046  33.684  1.00  0.00    -0.014 A 
HETATM    2  C2  UNK     1      16.512   7.566  32.486  1.00  0.00    -0.049 A 
HETATM    3  C4  UNK     1      17.826   5.550  32.702  1.00  0.00     0.035 A 
HETATM    4  C5  UNK     1      16.901   6.320  31.996  1.00  0.00     0.037 A 
HETATM    5  C6  UNK     1      17.971   7.274  34.389  1.00  0.00     0.015 A 
HETATM    6  C9  UNK     1      18.362   6.028  33.899  1.00  0.00     0.030 A 
HETATM    7  C12 UNK     1      15.520   8.364  31.703  1.00  0.00     0.049 C 
ENDROOT
BRANCH   3   8
HETATM    8  N1  UNK     1      18.217   4.304  32.212  1.00  0.00    -0.322 N 
HETATM    9  C17 UNK     1      18.074   3.053  32.824  1.00  0.00     0.264 C 
HETATM   10  O3  UNK     1      17.574   2.823  33.920  1.00  0.00    -0.267 OA
HETATM   11  H8  UNK     1      18.660   4.317  31.295  1.00  0.00     0.169 HD
BRANCH   9  12
HETATM   12  C14 UNK     1      18.619   1.901  32.057  1.00  0.00     0.096 A 
HETATM   13  S1  UNK     1      18.992   2.177  30.446  1.00  0.00    -0.082 SA
HETATM   14  C15 UNK     1      19.510   0.543  30.261  1.00  0.00     0.017 A 
HETATM   15  C11 UNK     1      19.378  -0.170  31.457  1.00  0.00     0.004 A 
HETATM   16  C21 UNK     1      20.011  -0.064  29.093  1.00  0.00     0.020 A 
HETATM   17  C16 UNK     1      18.848   0.660  32.501  1.00  0.00     0.068 A 
HETATM   18  C20 UNK     1      19.765  -1.532  31.469  1.00  0.00     0.014 A 
HETATM   19 Cl1  UNK     1      18.564   0.086  34.096  1.00  0.00    -0.082 Cl
HETATM   20  C24 UNK     1      20.262  -2.138  30.312  1.00  0.00     0.001 A 
HETATM   21  C25 UNK     1      20.383  -1.409  29.138  1.00  0.00     0.001 A 
ENDBRANCH   9  12
ENDBRANCH   3   8
BRANCH   1  22
HETATM   22  C3  UNK     1      16.666   9.330  34.216  1.00  0.00     0.051 A 
HETATM   23  C13 UNK     1      17.595  10.482  34.015  1.00  0.00     0.299 A 
HETATM   24  O1  UNK     1      17.214  11.708  34.557  1.00  0.00    -0.274 OA
HETATM   25  O2  UNK     1      18.650  10.371  33.397  1.00  0.00    -0.259 OA
HETATM   26  C10 UNK     1      15.999  11.877  35.244  1.00  0.00     0.089 A 
HETATM   27  C8  UNK     1      15.132  10.806  35.413  1.00  0.00    -0.001 A 
HETATM   28  C19 UNK     1      15.703  13.146  35.738  1.00  0.00     0.038 A 
HETATM   29  C18 UNK     1      13.932  11.011  36.098  1.00  0.00     0.014 A 
HETATM   30  C7  UNK     1      15.509   9.510  34.874  1.00  0.00     0.032 A 
HETATM   31  C22 UNK     1      13.619  12.277  36.600  1.00  0.00     0.001 A 
HETATM   32  C23 UNK     1      14.504  13.343  36.419  1.00  0.00     0.003 A 
ENDBRANCH   1  22
TORSDOF 3
ENDMDL
MODEL 6
REMARK VINA RESULT:      -9.4      6.011     12.554
REMARK  3 active torsions:
REMARK  status: ('A' for Active; 'I' for Inactive)
REMARK       I    between atoms: C17_23  and  N1_6 
REMARK    1  A    between atoms: C4_10  and  N1_6 
REMARK    2  A    between atoms: C1_7  and  C3_9 
REMARK    3  A    between atoms: C14_20  and  C17_23 
ROOT
HETATM    1  C1  UNK     1      19.700  -3.352  36.253  1.00  0.00    -0.014 A 
HETATM    2  C2  UNK     1      19.130  -2.233  36.864  1.00  0.00    -0.049 A 
HETATM    3  C4  UNK     1      19.409  -0.971  34.823  1.00  0.00     0.035 A 
HETATM    4  C5  UNK     1      18.985  -1.044  36.150  1.00  0.00     0.037 A 
HETATM    5  C6  UNK     1      20.124  -3.277  34.925  1.00  0.00     0.015 A 
HETATM    6  C9  UNK     1      19.979  -2.088  34.210  1.00  0.00     0.030 A 
HETATM    7  C12 UNK     1      18.666  -2.275  38.284  1.00  0.00     0.049 C 
ENDROOT
BRANCH   3   8
HETATM    8  N1  UNK     1      19.265   0.219  34.108  1.00  0.00    -0.322 N 
HETATM    9  C17 UNK     1      18.089   0.935  33.854  1.00  0.00     0.264 C 
HETATM   10  O3  UNK     1      16.955   0.641  34.218  1.00  0.00    -0.267 OA
HETATM   11  H8  UNK     1      20.127   0.605  33.728  1.00  0.00     0.169 HD
BRANCH   9  12
HETATM   12  C14 UNK     1      18.255   2.163  33.032  1.00  0.00     0.096 A 
HETATM   13  S1  UNK     1      18.044   3.630  33.816  1.00  0.00    -0.082 SA
HETATM   14  C15 UNK     1      18.365   4.485  32.354  1.00  0.00     0.017 A 
HETATM   15  C11 UNK     1      18.626   3.606  31.298  1.00  0.00     0.004 A 
HETATM   16  C21 UNK     1      18.379   5.881  32.170  1.00  0.00     0.020 A 
HETATM   17  C16 UNK     1      18.554   2.239  31.730  1.00  0.00     0.068 A 
HETATM   18  C20 UNK     1      18.911   4.156  30.025  1.00  0.00     0.014 A 
HETATM   19 Cl1  UNK     1      18.824   0.911  30.674  1.00  0.00    -0.082 Cl
HETATM   20  C24 UNK     1      18.926   5.541  29.839  1.00  0.00     0.001 A 
HETATM   21  C25 UNK     1      18.662   6.392  30.902  1.00  0.00     0.001 A 
ENDBRANCH   9  12
ENDBRANCH   3   8
BRANCH   1  22
HETATM   22  C3  UNK     1      19.866  -4.594  36.965  1.00  0.00     0.051 A 
HETATM   23  C13 UNK     1      18.731  -5.565  36.965  1.00  0.00     0.299 A 
HETATM   24  O1  UNK     1      18.908  -6.749  37.678  1.00  0.00    -0.274 OA
HETATM   25  O2  UNK     1      17.683  -5.347  36.364  1.00  0.00    -0.259 OA
HETATM   26  C10 UNK     1      20.106  -7.045  38.352  1.00  0.00     0.089 A 
HETATM   27  C8  UNK     1      21.163  -6.145  38.335  1.00  0.00    -0.001 A 
HETATM   28  C19 UNK     1      20.190  -8.262  39.027  1.00  0.00     0.038 A 
HETATM   29  C18 UNK     1      22.340  -6.472  39.013  1.00  0.00     0.014 A 
HETATM   30  C7  UNK     1      21.003  -4.893  37.614  1.00  0.00     0.032 A 
HETATM   31  C22 UNK     1      22.440  -7.689  39.694  1.00  0.00     0.001 A 
HETATM   32  C23 UNK     1      21.366  -8.582  39.700  1.00  0.00     0.003 A 
ENDBRANCH   1  22
TORSDOF 3
ENDMDL
MODEL 7
REMARK VINA RESULT:      -9.3      3.242     10.954
REMARK  3 active torsions:
REMARK  status: ('A' for Active; 'I' for Inactive)
REMARK       I    between atoms: C17_23  and  N1_6 
REMARK    1  A    between atoms: C4_10  and  N1_6 
REMARK    2  A    between atoms: C1_7  and  C3_9 
REMARK    3  A    between atoms: C14_20  and  C17_23 
ROOT
HETATM    1  C1  UNK     1      18.387   4.362  31.349  1.00  0.00    -0.014 A 
HETATM    2  C2  UNK     1      19.228   5.477  31.331  1.00  0.00    -0.049 A 
HETATM    3  C4  UNK     1      17.610   6.722  32.622  1.00  0.00     0.035 A 
HETATM    4  C5  UNK     1      18.839   6.656  31.967  1.00  0.00     0.037 A 
HETATM    5  C6  UNK     1      17.158   4.430  32.005  1.00  0.00     0.015 A 
HETATM    6  C9  UNK     1      16.768   5.608  32.642  1.00  0.00     0.030 A 
HETATM    7  C12 UNK     1      20.551   5.442  30.637  1.00  0.00     0.049 C 
ENDROOT
BRANCH   3   8
HETATM    8  N1  UNK     1      17.220   7.901  33.258  1.00  0.00    -0.322 N 
HETATM    9  C17 UNK     1      16.373   8.905  32.770  1.00  0.00     0.264 C 
HETATM   10  O3  UNK     1      15.815   8.930  31.678  1.00  0.00    -0.267 OA
HETATM   11  H8  UNK     1      17.603   8.039  34.191  1.00  0.00     0.169 HD
BRANCH   9  12
HETATM   12  C14 UNK     1      16.168  10.064  33.679  1.00  0.00     0.096 A 
HETATM   13  S1  UNK     1      14.601  10.337  34.209  1.00  0.00    -0.082 SA
HETATM   14  C15 UNK     1      15.124  11.704  35.121  1.00  0.00     0.017 A 
HETATM   15  C11 UNK     1      16.500  11.909  34.987  1.00  0.00     0.004 A 
HETATM   16  C21 UNK     1      14.327  12.550  35.918  1.00  0.00     0.020 A 
HETATM   17  C16 UNK     1      17.091  10.922  34.128  1.00  0.00     0.068 A 
HETATM   18  C20 UNK     1      17.086  12.996  35.679  1.00  0.00     0.014 A 
HETATM   19 Cl1  UNK     1      18.768  10.892  33.755  1.00  0.00    -0.082 Cl
HETATM   20  C24 UNK     1      16.299  13.838  36.471  1.00  0.00     0.001 A 
HETATM   21  C25 UNK     1      14.935  13.615  36.587  1.00  0.00     0.001 A 
ENDBRANCH   9  12
ENDBRANCH   3   8
BRANCH   1  22
HETATM   22  C3  UNK     1      18.760   3.130  30.699  1.00  0.00     0.051 A 
HETATM   23  C13 UNK     1      18.603   3.037  29.217  1.00  0.00     0.299 A 
HETATM   24  O1  UNK     1      18.949   1.829  28.615  1.00  0.00    -0.274 OA
HETATM   25  O2  UNK     1      18.193   3.978  28.542  1.00  0.00    -0.259 OA
HETATM   26  C10 UNK     1      19.451   0.742  29.353  1.00  0.00     0.089 A 
HETATM   27  C8  UNK     1      19.609   0.840  30.729  1.00  0.00    -0.001 A 
HETATM   28  C19 UNK     1      19.780  -0.420  28.658  1.00  0.00     0.038 A 
HETATM   29  C18 UNK     1      20.112  -0.258  31.431  1.00  0.00     0.014 A 
HETATM   30  C7  UNK     1      19.240   2.082  31.388  1.00  0.00     0.032 A 
HETATM   31  C22 UNK     1      20.448  -1.431  30.748  1.00  0.00     0.001 A 
HETATM   32  C23 UNK     1      20.282  -1.510  29.364  1.00  0.00     0.003 A 
ENDBRANCH   1  22
TORSDOF 3
ENDMDL
MODEL 8
REMARK VINA RESULT:      -9.2      3.684     11.241
REMARK  3 active torsions:
REMARK  status: ('A' for Active; 'I' for Inactive)
REMARK       I    between atoms: C17_23  and  N1_6 
REMARK    1  A    between atoms: C4_10  and  N1_6 
REMARK    2  A    between atoms: C1_7  and  C3_9 
REMARK    3  A    between atoms: C14_20  and  C17_23 
ROOT
HETATM    1  C1  UNK     1      17.949   5.729  32.536  1.00  0.00    -0.014 A 
HETATM    2  C2  UNK     1      18.929   6.613  32.991  1.00  0.00    -0.049 A 
HETATM    3  C4  UNK     1      17.285   8.379  33.112  1.00  0.00     0.035 A 
HETATM    4  C5  UNK     1      18.598   7.937  33.278  1.00  0.00     0.037 A 
HETATM    5  C6  UNK     1      16.636   6.173  32.371  1.00  0.00     0.015 A 
HETATM    6  C9  UNK     1      16.304   7.497  32.658  1.00  0.00     0.030 A 
HETATM    7  C12 UNK     1      20.346   6.174  33.179  1.00  0.00     0.049 C 
ENDROOT
BRANCH   3   8
HETATM    8  N1  UNK     1      16.953   9.704  33.398  1.00  0.00    -0.322 N 
HETATM    9  C17 UNK     1      16.247  10.197  34.503  1.00  0.00     0.264 C 
HETATM   10  O3  UNK     1      15.784   9.543  35.431  1.00  0.00    -0.267 OA
HETATM   11  H8  UNK     1      17.268  10.389  32.713  1.00  0.00     0.169 HD
BRANCH   9  12
HETATM   12  C14 UNK     1      16.025  11.667  34.514  1.00  0.00     0.096 A 
HETATM   13  S1  UNK     1      17.392  12.636  34.576  1.00  0.00    -0.082 SA
HETATM   14  C15 UNK     1      16.415  14.056  34.560  1.00  0.00     0.017 A 
HETATM   15  C11 UNK     1      15.055  13.737  34.506  1.00  0.00     0.004 A 
HETATM   16  C21 UNK     1      16.857  15.393  34.593  1.00  0.00     0.020 A 
HETATM   17  C16 UNK     1      14.855  12.316  34.480  1.00  0.00     0.068 A 
HETATM   18  C20 UNK     1      14.118  14.799  34.485  1.00  0.00     0.014 A 
HETATM   19 Cl1  UNK     1      13.297  11.593  34.415  1.00  0.00    -0.082 Cl
HETATM   20  C24 UNK     1      14.553  16.127  34.519  1.00  0.00     0.001 A 
HETATM   21  C25 UNK     1      15.909  16.418  34.573  1.00  0.00     0.001 A 
ENDBRANCH   9  12
ENDBRANCH   3   8
BRANCH   1  22
HETATM   22  C3  UNK     1      18.260   4.355  32.229  1.00  0.00     0.051 A 
HETATM   23  C13 UNK     1      18.760   4.033  30.859  1.00  0.00     0.299 A 
HETATM   24  O1  UNK     1      19.034   2.696  30.580  1.00  0.00    -0.274 OA
HETATM   25  O2  UNK     1      18.935   4.899  30.006  1.00  0.00    -0.259 OA
HETATM   26  C10 UNK     1      18.876   1.683  31.543  1.00  0.00     0.089 A 
HETATM   27  C8  UNK     1      18.425   1.991  32.820  1.00  0.00    -0.001 A 
HETATM   28  C19 UNK     1      19.188   0.377  31.170  1.00  0.00     0.038 A 
HETATM   29  C18 UNK     1      18.282   0.961  33.752  1.00  0.00     0.014 A 
HETATM   30  C7  UNK     1      18.115   3.375  33.136  1.00  0.00     0.032 A 
HETATM   31  C22 UNK     1      18.591  -0.355  33.394  1.00  0.00     0.001 A 
HETATM   32  C23 UNK     1      19.044  -0.645  32.105  1.00  0.00     0.003 A 
ENDBRANCH   1  22
TORSDOF 3
ENDMDL
MODEL 9
REMARK VINA RESULT:      -9.1     22.876     25.379
REMARK  3 active torsions:
REMARK  status: ('A' for Active; 'I' for Inactive)
REMARK       I    between atoms: C17_23  and  N1_6 
REMARK    1  A    between atoms: C4_10  and  N1_6 
REMARK    2  A    between atoms: C1_7  and  C3_9 
REMARK    3  A    between atoms: C14_20  and  C17_23 
ROOT
HETATM    1  C1  UNK     1      14.333   8.664   8.727  1.00  0.00    -0.014 A 
HETATM    2  C2  UNK     1      15.188   8.024   9.626  1.00  0.00    -0.049 A 
HETATM    3  C4  UNK     1      16.729   9.879   9.488  1.00  0.00     0.035 A 
HETATM    4  C5  UNK     1      16.384   8.630  10.007  1.00  0.00     0.037 A 
HETATM    5  C6  UNK     1      14.679   9.913   8.210  1.00  0.00     0.015 A 
HETATM    6  C9  UNK     1      15.876  10.521   8.589  1.00  0.00     0.030 A 
HETATM    7  C12 UNK     1      14.851   6.685  10.200  1.00  0.00     0.049 C 
ENDROOT
BRANCH   3   8
HETATM    8  N1  UNK     1      17.926  10.487   9.868  1.00  0.00    -0.322 N 
HETATM    9  C17 UNK     1      18.144  11.829  10.201  1.00  0.00     0.264 C 
HETATM   10  O3  UNK     1      17.310  12.728  10.219  1.00  0.00    -0.267 OA
HETATM   11  H8  UNK     1      18.735   9.869   9.904  1.00  0.00     0.169 HD
BRANCH   9  12
HETATM   12  C14 UNK     1      19.549  12.182  10.540  1.00  0.00     0.096 A 
HETATM   13  S1  UNK     1      19.841  12.687  12.112  1.00  0.00    -0.082 SA
HETATM   14  C15 UNK     1      21.517  12.892  11.759  1.00  0.00     0.017 A 
HETATM   15  C11 UNK     1      21.800  12.563  10.430  1.00  0.00     0.004 A 
HETATM   16  C21 UNK     1      22.524  13.329  12.641  1.00  0.00     0.020 A 
HETATM   17  C16 UNK     1      20.616  12.146   9.734  1.00  0.00     0.068 A 
HETATM   18  C20 UNK     1      23.139  12.677   9.983  1.00  0.00     0.014 A 
HETATM   19 Cl1  UNK     1      20.621  11.674   8.082  1.00  0.00    -0.082 Cl
HETATM   20  C24 UNK     1      24.142  13.111  10.855  1.00  0.00     0.001 A 
HETATM   21  C25 UNK     1      23.834  13.433  12.169  1.00  0.00     0.001 A 
ENDBRANCH   9  12
ENDBRANCH   3   8
BRANCH   1  22
HETATM   22  C3  UNK     1      13.090   8.062   8.312  1.00  0.00     0.051 A 
HETATM   23  C13 UNK     1      13.107   7.147   7.132  1.00  0.00     0.299 A 
HETATM   24  O1  UNK     1      11.890   6.595   6.738  1.00  0.00    -0.274 OA
HETATM   25  O2  UNK     1      14.141   6.878   6.527  1.00  0.00    -0.259 OA
HETATM   26  C10 UNK     1      10.692   6.856   7.427  1.00  0.00     0.089 A 
HETATM   27  C8  UNK     1      10.685   7.695   8.533  1.00  0.00    -0.001 A 
HETATM   28  C19 UNK     1       9.528   6.245   6.963  1.00  0.00     0.038 A 
HETATM   29  C18 UNK     1       9.478   7.930   9.195  1.00  0.00     0.014 A 
HETATM   30  C7  UNK     1      11.937   8.300   8.958  1.00  0.00     0.032 A 
HETATM   31  C22 UNK     1       8.302   7.325   8.743  1.00  0.00     0.001 A 
HETATM   32  C23 UNK     1       8.329   6.484   7.628  1.00  0.00     0.003 A 
ENDBRANCH   1  22
TORSDOF 3
ENDMDL
MODEL 10
REMARK VINA RESULT:      -9.0      3.706     11.179
REMARK  3 active torsions:
REMARK  status: ('A' for Active; 'I' for Inactive)
REMARK       I    between atoms: C17_23  and  N1_6 
REMARK    1  A    between atoms: C4_10  and  N1_6 
REMARK    2  A    between atoms: C1_7  and  C3_9 
REMARK    3  A    between atoms: C14_20  and  C17_23 
ROOT
HETATM    1  C1  UNK     1      17.854   5.636  32.436  1.00  0.00    -0.014 A 
HETATM    2  C2  UNK     1      18.831   6.571  32.786  1.00  0.00    -0.049 A 
HETATM    3  C4  UNK     1      17.131   8.275  32.995  1.00  0.00     0.035 A 
HETATM    4  C5  UNK     1      18.470   7.889  33.065  1.00  0.00     0.037 A 
HETATM    5  C6  UNK     1      16.515   6.025  32.367  1.00  0.00     0.015 A 
HETATM    6  C9  UNK     1      16.153   7.343  32.646  1.00  0.00     0.030 A 
HETATM    7  C12 UNK     1      20.275   6.192  32.869  1.00  0.00     0.049 C 
ENDROOT
BRANCH   3   8
HETATM    8  N1  UNK     1      16.769   9.594  33.273  1.00  0.00    -0.322 N 
HETATM    9  C17 UNK     1      16.164  10.096  34.432  1.00  0.00     0.264 C 
HETATM   10  O3  UNK     1      15.837   9.458  35.426  1.00  0.00    -0.267 OA
HETATM   11  H8  UNK     1      16.975  10.266  32.536  1.00  0.00     0.169 HD
BRANCH   9  12
HETATM   12  C14 UNK     1      15.875  11.555  34.420  1.00  0.00     0.096 A 
HETATM   13  S1  UNK     1      14.269  12.003  34.243  1.00  0.00    -0.082 SA
HETATM   14  C15 UNK     1      14.703  13.671  34.315  1.00  0.00     0.017 A 
HETATM   15  C11 UNK     1      16.083  13.831  34.473  1.00  0.00     0.004 A 
HETATM   16  C21 UNK     1      13.838  14.779  34.232  1.00  0.00     0.020 A 
HETATM   17  C16 UNK     1      16.750  12.561  34.532  1.00  0.00     0.068 A 
HETATM   18  C20 UNK     1      16.600  15.147  34.551  1.00  0.00     0.014 A 
HETATM   19 Cl1  UNK     1      18.451  12.407  34.722  1.00  0.00    -0.082 Cl
HETATM   20  C24 UNK     1      15.745  16.249  34.468  1.00  0.00     0.001 A 
HETATM   21  C25 UNK     1      14.379  16.064  34.310  1.00  0.00     0.001 A 
ENDBRANCH   9  12
ENDBRANCH   3   8
BRANCH   1  22
HETATM   22  C3  UNK     1      18.195   4.267  32.140  1.00  0.00     0.051 A 
HETATM   23  C13 UNK     1      18.316   3.307  33.277  1.00  0.00     0.299 A 
HETATM   24  O1  UNK     1      18.668   1.995  32.967  1.00  0.00    -0.274 OA
HETATM   25  O2  UNK     1      18.112   3.642  34.441  1.00  0.00    -0.259 OA
HETATM   26  C10 UNK     1      18.878   1.570  31.643  1.00  0.00     0.089 A 
HETATM   27  C8  UNK     1      18.749   2.463  30.589  1.00  0.00    -0.001 A 
HETATM   28  C19 UNK     1      19.215   0.233  31.435  1.00  0.00     0.038 A 
HETATM   29  C18 UNK     1      18.962   2.007  29.286  1.00  0.00     0.014 A 
HETATM   30  C7  UNK     1      18.400   3.844  30.882  1.00  0.00     0.032 A 
HETATM   31  C22 UNK     1      19.300   0.669  29.060  1.00  0.00     0.001 A 
HETATM   32  C23 UNK     1      19.425  -0.215  30.134  1.00  0.00     0.003 A 
ENDBRANCH   1  22
TORSDOF 3
ENDMDL
