MODEL 1
REMARK VINA RESULT:      -9.4      0.000      0.000
REMARK  7 active torsions:
REMARK  status: ('A' for Active; 'I' for Inactive)
REMARK    1  A    between atoms: N1_6  and  S1_1 
REMARK    2  A    between atoms: C22_29  and  O4_5 
REMARK    3  A    between atoms: C1_8  and  N1_6 
REMARK       I    between atoms: C10_17  and  N2_7 
REMARK    4  A    between atoms: C2_9  and  N2_7 
REMARK    5  A    between atoms: C10_17  and  C5_12 
REMARK    6  A    between atoms: C11_18  and  C5_12 
REMARK    7  A    between atoms: C12_19  and  C13_20 
ROOT
HETATM    1  C5  UNK     1      18.340   4.921  33.366  1.00  0.00     0.043 C 
HETATM    2  C12 UNK     1      17.911   5.830  34.265  1.00  0.00     0.029 C 
ENDROOT
BRANCH   1   3
HETATM    3  C10 UNK     1      18.121   3.472  33.738  1.00  0.00     0.257 C 
HETATM    4  O3  UNK     1      17.805   2.652  32.880  1.00  0.00    -0.267 OA
HETATM    5  N2  UNK     1      18.319   3.203  35.101  1.00  0.00    -0.323 N 
HETATM    6  H7  UNK     1      18.585   3.974  35.708  1.00  0.00     0.169 HD
BRANCH   5   7
HETATM    7  C2  UNK     1      18.199   1.983  35.766  1.00  0.00     0.037 A 
HETATM    8  C3  UNK     1      18.706   0.819  35.189  1.00  0.00     0.059 A 
HETATM    9  C1  UNK     1      18.578  -0.386  35.862  1.00  0.00     0.046 A 
HETATM   10  C4  UNK     1      17.955  -0.456  37.099  1.00  0.00     0.030 A 
HETATM   11  C8  UNK     1      17.447   0.708  37.675  1.00  0.00     0.004 A 
HETATM   12  C7  UNK     1      17.569   1.927  37.010  1.00  0.00     0.029 A 
BRANCH   9  13
HETATM   13  N1  UNK     1      19.105  -1.591  35.264  1.00  0.00    -0.281 N 
HETATM   14  C6  UNK     1      19.122  -1.653  33.783  1.00  0.00     0.169 C 
BRANCH  13  15
HETATM   15  S1  UNK     1      20.342  -2.413  36.132  1.00  0.00     0.228 S 
HETATM   16  C9  UNK     1      20.115  -4.087  35.569  1.00  0.00     0.186 C 
HETATM   17  O1  UNK     1      20.016  -2.397  37.546  1.00  0.00    -0.206 OA
HETATM   18  O2  UNK     1      21.650  -1.977  35.680  1.00  0.00    -0.206 OA
ENDBRANCH  13  15
ENDBRANCH   9  13
ENDBRANCH   5   7
ENDBRANCH   1   3
BRANCH   1  19
HETATM   19  C11 UNK     1      19.015   5.302  32.108  1.00  0.00    -0.021 A 
HETATM   20  C14 UNK     1      20.386   5.491  32.109  1.00  0.00     0.012 A 
HETATM   21  C18 UNK     1      21.024   5.852  30.922  1.00  0.00     0.001 A 
HETATM   22  C23 UNK     1      20.280   6.017  29.753  1.00  0.00     0.000 A 
HETATM   23  C19 UNK     1      18.899   5.822  29.772  1.00  0.00     0.001 A 
HETATM   24  C15 UNK     1      18.261   5.461  30.959  1.00  0.00     0.012 A 
ENDBRANCH   1  19
BRANCH   2  25
HETATM   25  C13 UNK     1      18.050   7.290  34.152  1.00  0.00    -0.035 A 
HETATM   26  C16 UNK     1      19.245   7.889  34.521  1.00  0.00     0.014 A 
HETATM   27  C20 UNK     1      19.379   9.274  34.414  1.00  0.00     0.037 A 
HETATM   28  C22 UNK     1      18.316  10.043  33.940  1.00  0.00     0.068 A 
HETATM   29  C21 UNK     1      17.120   9.426  33.571  1.00  0.00     0.037 A 
HETATM   30  C17 UNK     1      16.986   8.042  33.678  1.00  0.00     0.014 A 
BRANCH  28  31
HETATM   31  O4  UNK     1      18.445  11.393  33.836  1.00  0.00    -0.356 OA
HETATM   32  C24 UNK     1      17.424  12.191  34.432  1.00  0.00     0.210 C 
ENDBRANCH  28  31
ENDBRANCH   2  25
TORSDOF 7
ENDMDL
MODEL 2
REMARK VINA RESULT:      -8.9     12.204     15.489
REMARK  7 active torsions:
REMARK  status: ('A' for Active; 'I' for Inactive)
REMARK    1  A    between atoms: N1_6  and  S1_1 
REMARK    2  A    between atoms: C22_29  and  O4_5 
REMARK    3  A    between atoms: C1_8  and  N1_6 
REMARK       I    between atoms: C10_17  and  N2_7 
REMARK    4  A    between atoms: C2_9  and  N2_7 
REMARK    5  A    between atoms: C10_17  and  C5_12 
REMARK    6  A    between atoms: C11_18  and  C5_12 
REMARK    7  A    between atoms: C12_19  and  C13_20 
ROOT
HETATM    1  C5  UNK     1      27.453  -7.939  38.137  1.00  0.00     0.043 C 
HETATM    2  C12 UNK     1      28.266  -7.308  39.010  1.00  0.00     0.029 C 
ENDROOT
BRANCH   1   3
HETATM    3  C10 UNK     1      26.138  -8.430  38.700  1.00  0.00     0.257 C 
HETATM    4  O3  UNK     1      26.121  -9.293  39.573  1.00  0.00    -0.267 OA
HETATM    5  N2  UNK     1      25.015  -7.805  38.137  1.00  0.00    -0.323 N 
HETATM    6  H7  UNK     1      25.167  -7.099  37.422  1.00  0.00     0.169 HD
BRANCH   5   7
HETATM    7  C2  UNK     1      23.668  -8.025  38.430  1.00  0.00     0.037 A 
HETATM    8  C3  UNK     1      22.747  -8.188  37.395  1.00  0.00     0.059 A 
HETATM    9  C1  UNK     1      21.412  -8.405  37.701  1.00  0.00     0.046 A 
HETATM   10  C4  UNK     1      20.977  -8.463  39.017  1.00  0.00     0.030 A 
HETATM   11  C8  UNK     1      21.898  -8.299  40.050  1.00  0.00     0.004 A 
HETATM   12  C7  UNK     1      23.244  -8.080  39.758  1.00  0.00     0.029 A 
BRANCH   9  13
HETATM   13  N1  UNK     1      20.458  -8.576  36.631  1.00  0.00    -0.281 N 
HETATM   14  C6  UNK     1      19.259  -9.398  36.926  1.00  0.00     0.169 C 
BRANCH  13  15
HETATM   15  S1  UNK     1      20.306  -7.281  35.510  1.00  0.00     0.228 S 
HETATM   16  C9  UNK     1      18.549  -7.270  35.220  1.00  0.00     0.186 C 
HETATM   17  O1  UNK     1      20.936  -7.663  34.260  1.00  0.00    -0.206 OA
HETATM   18  O2  UNK     1      20.648  -6.022  36.144  1.00  0.00    -0.206 OA
ENDBRANCH  13  15
ENDBRANCH   9  13
ENDBRANCH   5   7
ENDBRANCH   1   3
BRANCH   1  19
HETATM   19  C11 UNK     1      27.825  -8.172  36.727  1.00  0.00    -0.021 A 
HETATM   20  C14 UNK     1      28.051  -9.467  36.294  1.00  0.00     0.012 A 
HETATM   21  C18 UNK     1      28.403  -9.688  34.963  1.00  0.00     0.001 A 
HETATM   22  C23 UNK     1      28.525  -8.610  34.086  1.00  0.00     0.000 A 
HETATM   23  C19 UNK     1      28.294  -7.312  34.540  1.00  0.00     0.001 A 
HETATM   24  C15 UNK     1      27.941  -7.091  35.872  1.00  0.00     0.012 A 
ENDBRANCH   1  19
BRANCH   2  25
HETATM   25  C13 UNK     1      29.608  -6.783  38.716  1.00  0.00    -0.035 A 
HETATM   26  C16 UNK     1      30.649  -7.669  38.482  1.00  0.00     0.014 A 
HETATM   27  C20 UNK     1      31.922  -7.172  38.202  1.00  0.00     0.037 A 
HETATM   28  C22 UNK     1      32.140  -5.795  38.160  1.00  0.00     0.068 A 
HETATM   29  C21 UNK     1      31.083  -4.915  38.397  1.00  0.00     0.037 A 
HETATM   30  C17 UNK     1      29.810  -5.412  38.676  1.00  0.00     0.014 A 
BRANCH  28  31
HETATM   31  O4  UNK     1      33.381  -5.309  37.888  1.00  0.00    -0.356 OA
HETATM   32  C24 UNK     1      34.401  -6.262  37.591  1.00  0.00     0.210 C 
ENDBRANCH  28  31
ENDBRANCH   2  25
TORSDOF 7
ENDMDL
MODEL 3
REMARK VINA RESULT:      -8.7      5.715      8.750
REMARK  7 active torsions:
REMARK  status: ('A' for Active; 'I' for Inactive)
REMARK    1  A    between atoms: N1_6  and  S1_1 
REMARK    2  A    between atoms: C22_29  and  O4_5 
REMARK    3  A    between atoms: C1_8  and  N1_6 
REMARK       I    between atoms: C10_17  and  N2_7 
REMARK    4  A    between atoms: C2_9  and  N2_7 
REMARK    5  A    between atoms: C10_17  and  C5_12 
REMARK    6  A    between atoms: C11_18  and  C5_12 
REMARK    7  A    between atoms: C12_19  and  C13_20 
ROOT
HETATM    1  C5  UNK     1      19.554  -2.320  35.095  1.00  0.00     0.043 C 
HETATM    2  C12 UNK     1      20.097  -2.503  33.874  1.00  0.00     0.029 C 
ENDROOT
BRANCH   1   3
HETATM    3  C10 UNK     1      19.798  -3.426  36.096  1.00  0.00     0.257 C 
HETATM    4  O3  UNK     1      20.164  -3.160  37.238  1.00  0.00    -0.267 OA
HETATM    5  N2  UNK     1      19.559  -4.712  35.587  1.00  0.00    -0.323 N 
HETATM    6  H7  UNK     1      19.252  -4.795  34.621  1.00  0.00     0.169 HD
BRANCH   5   7
HETATM    7  C2  UNK     1      19.688  -5.937  36.242  1.00  0.00     0.037 A 
HETATM    8  C3  UNK     1      20.797  -6.746  35.997  1.00  0.00     0.059 A 
HETATM    9  C1  UNK     1      20.911  -7.961  36.655  1.00  0.00     0.046 A 
HETATM   10  C4  UNK     1      19.943  -8.387  37.551  1.00  0.00     0.030 A 
HETATM   11  C8  UNK     1      18.833  -7.578  37.795  1.00  0.00     0.004 A 
HETATM   12  C7  UNK     1      18.705  -6.354  37.141  1.00  0.00     0.029 A 
BRANCH   9  13
HETATM   13  N1  UNK     1      22.061  -8.798  36.403  1.00  0.00    -0.281 N 
HETATM   14  C6  UNK     1      23.170  -8.728  37.386  1.00  0.00     0.169 C 
BRANCH  13  15
HETATM   15  S1  UNK     1      21.776 -10.290  35.597  1.00  0.00     0.228 S 
HETATM   16  C9  UNK     1      23.319 -11.137  35.865  1.00  0.00     0.186 C 
HETATM   17  O1  UNK     1      21.673 -10.043  34.171  1.00  0.00    -0.206 OA
HETATM   18  O2  UNK     1      20.743 -11.044  36.283  1.00  0.00    -0.206 OA
ENDBRANCH  13  15
ENDBRANCH   9  13
ENDBRANCH   5   7
ENDBRANCH   1   3
BRANCH   1  19
HETATM   19  C11 UNK     1      18.741  -1.134  35.436  1.00  0.00    -0.021 A 
HETATM   20  C14 UNK     1      19.378   0.034  35.815  1.00  0.00     0.012 A 
HETATM   21  C18 UNK     1      18.611   1.153  36.138  1.00  0.00     0.001 A 
HETATM   22  C23 UNK     1      17.219   1.086  36.076  1.00  0.00     0.000 A 
HETATM   23  C19 UNK     1      16.594  -0.100  35.691  1.00  0.00     0.001 A 
HETATM   24  C15 UNK     1      17.362  -1.220  35.368  1.00  0.00     0.012 A 
ENDBRANCH   1  19
BRANCH   2  25
HETATM   25  C13 UNK     1      19.963  -1.596  32.723  1.00  0.00    -0.035 A 
HETATM   26  C16 UNK     1      18.955  -0.644  32.722  1.00  0.00     0.014 A 
HETATM   27  C20 UNK     1      18.827   0.217  31.632  1.00  0.00     0.037 A 
HETATM   28  C22 UNK     1      19.709   0.115  30.555  1.00  0.00     0.068 A 
HETATM   29  C21 UNK     1      20.719  -0.847  30.570  1.00  0.00     0.037 A 
HETATM   30  C17 UNK     1      20.846  -1.708  31.660  1.00  0.00     0.014 A 
BRANCH  28  31
HETATM   31  O4  UNK     1      19.584   0.954  29.491  1.00  0.00    -0.356 OA
HETATM   32  C24 UNK     1      18.276   1.441  29.197  1.00  0.00     0.210 C 
ENDBRANCH  28  31
ENDBRANCH   2  25
TORSDOF 7
ENDMDL
MODEL 4
REMARK VINA RESULT:      -8.6      5.568      8.402
REMARK  7 active torsions:
REMARK  status: ('A' for Active; 'I' for Inactive)
REMARK    1  A    between atoms: N1_6  and  S1_1 
REMARK    2  A    between atoms: C22_29  and  O4_5 
REMARK    3  A    between atoms: C1_8  and  N1_6 
REMARK       I    between atoms: C10_17  and  N2_7 
REMARK    4  A    between atoms: C2_9  and  N2_7 
REMARK    5  A    between atoms: C10_17  and  C5_12 
REMARK    6  A    between atoms: C11_18  and  C5_12 
REMARK    7  A    between atoms: C12_19  and  C13_20 
ROOT
HETATM    1  C5  UNK     1      19.501  -2.187  35.164  1.00  0.00     0.043 C 
HETATM    2  C12 UNK     1      20.042  -2.461  33.959  1.00  0.00     0.029 C 
ENDROOT
BRANCH   1   3
HETATM    3  C10 UNK     1      19.699  -3.241  36.230  1.00  0.00     0.257 C 
HETATM    4  O3  UNK     1      20.070  -2.923  37.356  1.00  0.00    -0.267 OA
HETATM    5  N2  UNK     1      19.413  -4.544  35.794  1.00  0.00    -0.323 N 
HETATM    6  H7  UNK     1      19.108  -4.672  34.833  1.00  0.00     0.169 HD
BRANCH   5   7
HETATM    7  C2  UNK     1      19.493  -5.733  36.520  1.00  0.00     0.037 A 
HETATM    8  C3  UNK     1      20.738  -6.285  36.821  1.00  0.00     0.059 A 
HETATM    9  C1  UNK     1      20.802  -7.467  37.542  1.00  0.00     0.046 A 
HETATM   10  C4  UNK     1      19.650  -8.111  37.970  1.00  0.00     0.030 A 
HETATM   11  C8  UNK     1      18.406  -7.560  37.667  1.00  0.00     0.004 A 
HETATM   12  C7  UNK     1      18.326  -6.371  36.943  1.00  0.00     0.029 A 
BRANCH   9  13
HETATM   13  N1  UNK     1      22.091  -8.038  37.856  1.00  0.00    -0.281 N 
HETATM   14  C6  UNK     1      22.774  -8.786  36.773  1.00  0.00     0.169 C 
BRANCH  13  15
HETATM   15  S1  UNK     1      23.055  -7.198  39.005  1.00  0.00     0.228 S 
HETATM   16  C9  UNK     1      24.606  -8.061  38.863  1.00  0.00     0.186 C 
HETATM   17  O1  UNK     1      22.544  -7.466  40.336  1.00  0.00    -0.206 OA
HETATM   18  O2  UNK     1      23.279  -5.831  38.572  1.00  0.00    -0.206 OA
ENDBRANCH  13  15
ENDBRANCH   9  13
ENDBRANCH   5   7
ENDBRANCH   1   3
BRANCH   1  19
HETATM   19  C11 UNK     1      18.732  -0.953  35.430  1.00  0.00    -0.021 A 
HETATM   20  C14 UNK     1      19.409   0.200  35.785  1.00  0.00     0.012 A 
HETATM   21  C18 UNK     1      18.684   1.365  36.036  1.00  0.00     0.001 A 
HETATM   22  C23 UNK     1      17.293   1.356  35.931  1.00  0.00     0.000 A 
HETATM   23  C19 UNK     1      16.628   0.184  35.573  1.00  0.00     0.001 A 
HETATM   24  C15 UNK     1      17.354  -0.981  35.320  1.00  0.00     0.012 A 
ENDBRANCH   1  19
BRANCH   2  25
HETATM   25  C13 UNK     1      19.947  -1.618  32.757  1.00  0.00    -0.035 A 
HETATM   26  C16 UNK     1      20.811  -1.845  31.697  1.00  0.00     0.014 A 
HETATM   27  C20 UNK     1      20.722  -1.047  30.557  1.00  0.00     0.037 A 
HETATM   28  C22 UNK     1      19.769  -0.030  30.490  1.00  0.00     0.068 A 
HETATM   29  C21 UNK     1      18.905   0.187  31.564  1.00  0.00     0.037 A 
HETATM   30  C17 UNK     1      18.994  -0.611  32.704  1.00  0.00     0.014 A 
BRANCH  28  31
HETATM   31  O4  UNK     1      19.681   0.749  29.378  1.00  0.00    -0.356 OA
HETATM   32  C24 UNK     1      18.406   1.318  29.082  1.00  0.00     0.210 C 
ENDBRANCH  28  31
ENDBRANCH   2  25
TORSDOF 7
ENDMDL
MODEL 5
REMARK VINA RESULT:      -8.3     11.626     15.655
REMARK  7 active torsions:
REMARK  status: ('A' for Active; 'I' for Inactive)
REMARK    1  A    between atoms: N1_6  and  S1_1 
REMARK    2  A    between atoms: C22_29  and  O4_5 
REMARK    3  A    between atoms: C1_8  and  N1_6 
REMARK       I    between atoms: C10_17  and  N2_7 
REMARK    4  A    between atoms: C2_9  and  N2_7 
REMARK    5  A    between atoms: C10_17  and  C5_12 
REMARK    6  A    between atoms: C11_18  and  C5_12 
REMARK    7  A    between atoms: C12_19  and  C13_20 
ROOT
HETATM    1  C5  UNK     1      27.320  -8.109  37.574  1.00  0.00     0.043 C 
HETATM    2  C12 UNK     1      28.032  -7.567  38.583  1.00  0.00     0.029 C 
ENDROOT
BRANCH   1   3
HETATM    3  C10 UNK     1      25.949  -8.630  37.943  1.00  0.00     0.257 C 
HETATM    4  O3  UNK     1      25.649  -8.809  39.120  1.00  0.00    -0.267 OA
HETATM    5  N2  UNK     1      25.116  -8.858  36.837  1.00  0.00    -0.323 N 
HETATM    6  H7  UNK     1      25.485  -8.663  35.910  1.00  0.00     0.169 HD
BRANCH   5   7
HETATM    7  C2  UNK     1      23.804  -9.333  36.828  1.00  0.00     0.037 A 
HETATM    8  C3  UNK     1      22.786  -8.584  37.419  1.00  0.00     0.059 A 
HETATM    9  C1  UNK     1      21.488  -9.069  37.403  1.00  0.00     0.046 A 
HETATM   10  C4  UNK     1      21.182 -10.285  36.810  1.00  0.00     0.030 A 
HETATM   11  C8  UNK     1      22.200 -11.034  36.220  1.00  0.00     0.004 A 
HETATM   12  C7  UNK     1      23.510 -10.558  36.229  1.00  0.00     0.029 A 
BRANCH   9  13
HETATM   13  N1  UNK     1      20.433  -8.293  38.014  1.00  0.00    -0.281 N 
HETATM   14  C6  UNK     1      20.530  -8.064  39.476  1.00  0.00     0.169 C 
BRANCH  13  15
HETATM   15  S1  UNK     1      19.697  -7.081  37.042  1.00  0.00     0.228 S 
HETATM   16  C9  UNK     1      20.569  -5.623  37.576  1.00  0.00     0.186 C 
HETATM   17  O1  UNK     1      18.315  -6.920  37.456  1.00  0.00    -0.206 OA
HETATM   18  O2  UNK     1      20.019  -7.291  35.643  1.00  0.00    -0.206 OA
ENDBRANCH  13  15
ENDBRANCH   9  13
ENDBRANCH   5   7
ENDBRANCH   1   3
BRANCH   1  19
HETATM   19  C11 UNK     1      27.847  -8.225  36.199  1.00  0.00    -0.021 A 
HETATM   20  C14 UNK     1      28.256  -9.463  35.735  1.00  0.00     0.012 A 
HETATM   21  C18 UNK     1      28.754  -9.573  34.437  1.00  0.00     0.001 A 
HETATM   22  C23 UNK     1      28.835  -8.442  33.624  1.00  0.00     0.000 A 
HETATM   23  C19 UNK     1      28.418  -7.203  34.108  1.00  0.00     0.001 A 
HETATM   24  C15 UNK     1      27.919  -7.093  35.407  1.00  0.00     0.012 A 
ENDBRANCH   1  19
BRANCH   2  25
HETATM   25  C13 UNK     1      29.401  -7.035  38.486  1.00  0.00    -0.035 A 
HETATM   26  C16 UNK     1      30.465  -7.916  38.357  1.00  0.00     0.014 A 
HETATM   27  C20 UNK     1      31.762  -7.413  38.265  1.00  0.00     0.037 A 
HETATM   28  C22 UNK     1      31.981  -6.036  38.303  1.00  0.00     0.068 A 
HETATM   29  C21 UNK     1      30.902  -5.161  38.433  1.00  0.00     0.037 A 
HETATM   30  C17 UNK     1      29.604  -5.664  38.525  1.00  0.00     0.014 A 
BRANCH  28  31
HETATM   31  O4  UNK     1      33.247  -5.544  38.214  1.00  0.00    -0.356 OA
HETATM   32  C24 UNK     1      34.215  -6.358  37.554  1.00  0.00     0.210 C 
ENDBRANCH  28  31
ENDBRANCH   2  25
TORSDOF 7
ENDMDL
MODEL 6
REMARK VINA RESULT:      -8.3     14.725     17.809
REMARK  7 active torsions:
REMARK  status: ('A' for Active; 'I' for Inactive)
REMARK    1  A    between atoms: N1_6  and  S1_1 
REMARK    2  A    between atoms: C22_29  and  O4_5 
REMARK    3  A    between atoms: C1_8  and  N1_6 
REMARK       I    between atoms: C10_17  and  N2_7 
REMARK    4  A    between atoms: C2_9  and  N2_7 
REMARK    5  A    between atoms: C10_17  and  C5_12 
REMARK    6  A    between atoms: C11_18  and  C5_12 
REMARK    7  A    between atoms: C12_19  and  C13_20 
ROOT
HETATM    1  C5  UNK     1      29.310  -7.359  36.030  1.00  0.00     0.043 C 
HETATM    2  C12 UNK     1      29.146  -8.673  36.290  1.00  0.00     0.029 C 
ENDROOT
BRANCH   1   3
HETATM    3  C10 UNK     1      29.313  -6.973  34.569  1.00  0.00     0.257 C 
HETATM    4  O3  UNK     1      30.038  -6.067  34.168  1.00  0.00    -0.267 OA
HETATM    5  N2  UNK     1      28.442  -7.740  33.781  1.00  0.00    -0.323 N 
HETATM    6  H7  UNK     1      27.897  -8.468  34.237  1.00  0.00     0.169 HD
BRANCH   5   7
HETATM    7  C2  UNK     1      28.206  -7.642  32.409  1.00  0.00     0.037 A 
HETATM    8  C3  UNK     1      28.837  -8.519  31.527  1.00  0.00     0.059 A 
HETATM    9  C1  UNK     1      28.594  -8.409  30.167  1.00  0.00     0.046 A 
HETATM   10  C4  UNK     1      27.734  -7.443  29.666  1.00  0.00     0.030 A 
HETATM   11  C8  UNK     1      27.105  -6.565  30.548  1.00  0.00     0.004 A 
HETATM   12  C7  UNK     1      27.340  -6.664  31.919  1.00  0.00     0.029 A 
BRANCH   9  13
HETATM   13  N1  UNK     1      29.246  -9.319  29.254  1.00  0.00    -0.281 N 
HETATM   14  C6  UNK     1      28.368 -10.129  28.374  1.00  0.00     0.169 C 
BRANCH  13  15
HETATM   15  S1  UNK     1      30.791  -8.854  28.663  1.00  0.00     0.228 S 
HETATM   16  C9  UNK     1      31.868  -9.567  29.889  1.00  0.00     0.186 C 
HETATM   17  O1  UNK     1      30.924  -7.413  28.774  1.00  0.00    -0.206 OA
HETATM   18  O2  UNK     1      31.070  -9.516  27.402  1.00  0.00    -0.206 OA
ENDBRANCH  13  15
ENDBRANCH   9  13
ENDBRANCH   5   7
ENDBRANCH   1   3
BRANCH   1  19
HETATM   19  C11 UNK     1      29.511  -6.355  37.096  1.00  0.00    -0.021 A 
HETATM   20  C14 UNK     1      28.405  -5.798  37.713  1.00  0.00     0.012 A 
HETATM   21  C18 UNK     1      28.593  -4.850  38.718  1.00  0.00     0.001 A 
HETATM   22  C23 UNK     1      29.884  -4.474  39.090  1.00  0.00     0.000 A 
HETATM   23  C19 UNK     1      30.987  -5.047  38.456  1.00  0.00     0.001 A 
HETATM   24  C15 UNK     1      30.798  -5.996  37.451  1.00  0.00     0.012 A 
ENDBRANCH   1  19
BRANCH   2  25
HETATM   25  C13 UNK     1      29.153  -9.298  37.622  1.00  0.00    -0.035 A 
HETATM   26  C16 UNK     1      30.352  -9.745  38.157  1.00  0.00     0.014 A 
HETATM   27  C20 UNK     1      30.359 -10.337  39.420  1.00  0.00     0.037 A 
HETATM   28  C22 UNK     1      29.168 -10.476  40.133  1.00  0.00     0.068 A 
HETATM   29  C21 UNK     1      27.969 -10.022  39.582  1.00  0.00     0.037 A 
HETATM   30  C17 UNK     1      27.962  -9.429  38.320  1.00  0.00     0.014 A 
BRANCH  28  31
HETATM   31  O4  UNK     1      29.175 -11.055  41.364  1.00  0.00    -0.356 OA
HETATM   32  C24 UNK     1      30.312 -11.846  41.704  1.00  0.00     0.210 C 
ENDBRANCH  28  31
ENDBRANCH   2  25
TORSDOF 7
ENDMDL
MODEL 7
REMARK VINA RESULT:      -8.3      5.525     10.645
REMARK  7 active torsions:
REMARK  status: ('A' for Active; 'I' for Inactive)
REMARK    1  A    between atoms: N1_6  and  S1_1 
REMARK    2  A    between atoms: C22_29  and  O4_5 
REMARK    3  A    between atoms: C1_8  and  N1_6 
REMARK       I    between atoms: C10_17  and  N2_7 
REMARK    4  A    between atoms: C2_9  and  N2_7 
REMARK    5  A    between atoms: C10_17  and  C5_12 
REMARK    6  A    between atoms: C11_18  and  C5_12 
REMARK    7  A    between atoms: C12_19  and  C13_20 
ROOT
HETATM    1  C5  UNK     1      17.765   8.328  33.219  1.00  0.00     0.043 C 
HETATM    2  C12 UNK     1      18.813   7.549  32.880  1.00  0.00     0.029 C 
ENDROOT
BRANCH   1   3
HETATM    3  C10 UNK     1      18.110   9.658  33.850  1.00  0.00     0.257 C 
HETATM    4  O3  UNK     1      19.230   9.852  34.316  1.00  0.00    -0.267 OA
HETATM    5  N2  UNK     1      17.056  10.584  33.828  1.00  0.00    -0.323 N 
HETATM    6  H7  UNK     1      16.176  10.299  33.406  1.00  0.00     0.169 HD
BRANCH   5   7
HETATM    7  C2  UNK     1      17.042  11.888  34.324  1.00  0.00     0.037 A 
HETATM    8  C3  UNK     1      16.095  12.264  35.275  1.00  0.00     0.059 A 
HETATM    9  C1  UNK     1      16.093  13.564  35.757  1.00  0.00     0.046 A 
HETATM   10  C4  UNK     1      17.017  14.497  35.311  1.00  0.00     0.030 A 
HETATM   11  C8  UNK     1      17.964  14.121  34.359  1.00  0.00     0.004 A 
HETATM   12  C7  UNK     1      17.977  12.817  33.865  1.00  0.00     0.029 A 
BRANCH   9  13
HETATM   13  N1  UNK     1      15.113  13.953  36.745  1.00  0.00    -0.281 N 
HETATM   14  C6  UNK     1      13.718  13.506  36.516  1.00  0.00     0.169 C 
BRANCH  13  15
HETATM   15  S1  UNK     1      15.664  14.119  38.365  1.00  0.00     0.228 S 
HETATM   16  C9  UNK     1      14.233  13.586  39.280  1.00  0.00     0.186 C 
HETATM   17  O1  UNK     1      15.850  15.528  38.657  1.00  0.00    -0.206 OA
HETATM   18  O2  UNK     1      16.729  13.172  38.635  1.00  0.00    -0.206 OA
ENDBRANCH  13  15
ENDBRANCH   9  13
ENDBRANCH   5   7
ENDBRANCH   1   3
BRANCH   1  19
HETATM   19  C11 UNK     1      16.363   7.907  33.021  1.00  0.00    -0.021 A 
HETATM   20  C14 UNK     1      15.863   7.808  31.734  1.00  0.00     0.012 A 
HETATM   21  C18 UNK     1      14.540   7.411  31.547  1.00  0.00     0.001 A 
HETATM   22  C23 UNK     1      13.737   7.119  32.650  1.00  0.00     0.000 A 
HETATM   23  C19 UNK     1      14.258   7.224  33.939  1.00  0.00     0.001 A 
HETATM   24  C15 UNK     1      15.582   7.621  34.126  1.00  0.00     0.012 A 
ENDBRANCH   1  19
BRANCH   2  25
HETATM   25  C13 UNK     1      18.736   6.201  32.296  1.00  0.00    -0.035 A 
HETATM   26  C16 UNK     1      18.244   5.155  33.062  1.00  0.00     0.014 A 
HETATM   27  C20 UNK     1      18.169   3.877  32.509  1.00  0.00     0.037 A 
HETATM   28  C22 UNK     1      18.588   3.659  31.196  1.00  0.00     0.068 A 
HETATM   29  C21 UNK     1      19.081   4.721  30.437  1.00  0.00     0.037 A 
HETATM   30  C17 UNK     1      19.155   5.999  30.990  1.00  0.00     0.014 A 
BRANCH  28  31
HETATM   31  O4  UNK     1      18.517   2.413  30.656  1.00  0.00    -0.356 OA
HETATM   32  C24 UNK     1      18.162   2.321  29.278  1.00  0.00     0.210 C 
ENDBRANCH  28  31
ENDBRANCH   2  25
TORSDOF 7
ENDMDL
MODEL 8
REMARK VINA RESULT:      -8.2     13.170     16.771
REMARK  7 active torsions:
REMARK  status: ('A' for Active; 'I' for Inactive)
REMARK    1  A    between atoms: N1_6  and  S1_1 
REMARK    2  A    between atoms: C22_29  and  O4_5 
REMARK    3  A    between atoms: C1_8  and  N1_6 
REMARK       I    between atoms: C10_17  and  N2_7 
REMARK    4  A    between atoms: C2_9  and  N2_7 
REMARK    5  A    between atoms: C10_17  and  C5_12 
REMARK    6  A    between atoms: C11_18  and  C5_12 
REMARK    7  A    between atoms: C12_19  and  C13_20 
ROOT
HETATM    1  C5  UNK     1      28.670  -8.791  37.729  1.00  0.00     0.043 C 
HETATM    2  C12 UNK     1      29.764  -9.453  37.300  1.00  0.00     0.029 C 
ENDROOT
BRANCH   1   3
HETATM    3  C10 UNK     1      27.405  -9.611  37.838  1.00  0.00     0.257 C 
HETATM    4  O3  UNK     1      27.194 -10.299  38.833  1.00  0.00    -0.267 OA
HETATM    5  N2  UNK     1      26.554  -9.486  36.729  1.00  0.00    -0.323 N 
HETATM    6  H7  UNK     1      26.844  -8.877  35.968  1.00  0.00     0.169 HD
BRANCH   5   7
HETATM    7  C2  UNK     1      25.321 -10.102  36.513  1.00  0.00     0.037 A 
HETATM    8  C3  UNK     1      24.140  -9.429  36.822  1.00  0.00     0.059 A 
HETATM    9  C1  UNK     1      22.922 -10.054  36.603  1.00  0.00     0.046 A 
HETATM   10  C4  UNK     1      22.857 -11.337  36.081  1.00  0.00     0.030 A 
HETATM   11  C8  UNK     1      24.039 -12.011  35.773  1.00  0.00     0.004 A 
HETATM   12  C7  UNK     1      25.271 -11.394  35.988  1.00  0.00     0.029 A 
BRANCH   9  13
HETATM   13  N1  UNK     1      21.699  -9.356  36.921  1.00  0.00    -0.281 N 
HETATM   14  C6  UNK     1      21.404  -9.143  38.359  1.00  0.00     0.169 C 
BRANCH  13  15
HETATM   15  S1  UNK     1      21.158  -8.178  35.792  1.00  0.00     0.228 S 
HETATM   16  C9  UNK     1      19.399  -8.208  36.065  1.00  0.00     0.186 C 
HETATM   17  O1  UNK     1      21.384  -8.676  34.448  1.00  0.00    -0.206 OA
HETATM   18  O2  UNK     1      21.634  -6.860  36.170  1.00  0.00    -0.206 OA
ENDBRANCH  13  15
ENDBRANCH   9  13
ENDBRANCH   5   7
ENDBRANCH   1   3
BRANCH   1  19
HETATM   19  C11 UNK     1      28.685  -7.347  38.045  1.00  0.00    -0.021 A 
HETATM   20  C14 UNK     1      29.108  -6.451  37.080  1.00  0.00     0.012 A 
HETATM   21  C18 UNK     1      29.123  -5.088  37.377  1.00  0.00     0.001 A 
HETATM   22  C23 UNK     1      28.715  -4.644  38.636  1.00  0.00     0.000 A 
HETATM   23  C19 UNK     1      28.293  -5.563  39.596  1.00  0.00     0.001 A 
HETATM   24  C15 UNK     1      28.277  -6.926  39.298  1.00  0.00     0.012 A 
ENDBRANCH   1  19
BRANCH   2  25
HETATM   25  C13 UNK     1      31.094  -8.867  37.071  1.00  0.00    -0.035 A 
HETATM   26  C16 UNK     1      31.829  -8.404  38.152  1.00  0.00     0.014 A 
HETATM   27  C20 UNK     1      33.090  -7.850  37.936  1.00  0.00     0.037 A 
HETATM   28  C22 UNK     1      33.603  -7.764  36.642  1.00  0.00     0.068 A 
HETATM   29  C21 UNK     1      32.853  -8.235  35.563  1.00  0.00     0.037 A 
HETATM   30  C17 UNK     1      31.592  -8.789  35.779  1.00  0.00     0.014 A 
BRANCH  28  31
HETATM   31  O4  UNK     1      34.833  -7.223  36.430  1.00  0.00    -0.356 OA
HETATM   32  C24 UNK     1      34.922  -5.799  36.415  1.00  0.00     0.210 C 
ENDBRANCH  28  31
ENDBRANCH   2  25
TORSDOF 7
ENDMDL
MODEL 9
REMARK VINA RESULT:      -8.2     11.409     14.787
REMARK  7 active torsions:
REMARK  status: ('A' for Active; 'I' for Inactive)
REMARK    1  A    between atoms: N1_6  and  S1_1 
REMARK    2  A    between atoms: C22_29  and  O4_5 
REMARK    3  A    between atoms: C1_8  and  N1_6 
REMARK       I    between atoms: C10_17  and  N2_7 
REMARK    4  A    between atoms: C2_9  and  N2_7 
REMARK    5  A    between atoms: C10_17  and  C5_12 
REMARK    6  A    between atoms: C11_18  and  C5_12 
REMARK    7  A    between atoms: C12_19  and  C13_20 
ROOT
HETATM    1  C5  UNK     1      22.662  -7.809  37.892  1.00  0.00     0.043 C 
HETATM    2  C12 UNK     1      21.869  -6.738  38.100  1.00  0.00     0.029 C 
ENDROOT
BRANCH   1   3
HETATM    3  C10 UNK     1      24.073  -7.697  38.425  1.00  0.00     0.257 C 
HETATM    4  O3  UNK     1      24.425  -6.696  39.043  1.00  0.00    -0.267 OA
HETATM    5  N2  UNK     1      24.872  -8.816  38.146  1.00  0.00    -0.323 N 
HETATM    6  H7  UNK     1      24.456  -9.585  37.627  1.00  0.00     0.169 HD
BRANCH   5   7
HETATM    7  C2  UNK     1      26.207  -9.030  38.492  1.00  0.00     0.037 A 
HETATM    8  C3  UNK     1      27.225  -8.435  37.747  1.00  0.00     0.059 A 
HETATM    9  C1  UNK     1      28.547  -8.658  38.103  1.00  0.00     0.046 A 
HETATM   10  C4  UNK     1      28.875  -9.462  39.184  1.00  0.00     0.030 A 
HETATM   11  C8  UNK     1      27.856 -10.057  39.928  1.00  0.00     0.004 A 
HETATM   12  C7  UNK     1      26.522  -9.842  39.582  1.00  0.00     0.029 A 
BRANCH   9  13
HETATM   13  N1  UNK     1      29.602  -8.041  37.333  1.00  0.00    -0.281 N 
HETATM   14  C6  UNK     1      29.672  -8.388  35.893  1.00  0.00     0.169 C 
BRANCH  13  15
HETATM   15  S1  UNK     1      30.105  -6.471  37.822  1.00  0.00     0.228 S 
HETATM   16  C9  UNK     1      31.803  -6.768  38.270  1.00  0.00     0.186 C 
HETATM   17  O1  UNK     1      29.405  -6.111  39.042  1.00  0.00    -0.206 OA
HETATM   18  O2  UNK     1      30.107  -5.566  36.688  1.00  0.00    -0.206 OA
ENDBRANCH  13  15
ENDBRANCH   9  13
ENDBRANCH   5   7
ENDBRANCH   1   3
BRANCH   1  19
HETATM   19  C11 UNK     1      22.205  -9.009  37.162  1.00  0.00    -0.021 A 
HETATM   20  C14 UNK     1      21.427  -9.944  37.821  1.00  0.00     0.012 A 
HETATM   21  C18 UNK     1      20.995 -11.077  37.133  1.00  0.00     0.001 A 
HETATM   22  C23 UNK     1      21.349 -11.258  35.795  1.00  0.00     0.000 A 
HETATM   23  C19 UNK     1      22.135 -10.305  35.148  1.00  0.00     0.001 A 
HETATM   24  C15 UNK     1      22.566  -9.171  35.836  1.00  0.00     0.012 A 
ENDBRANCH   1  19
BRANCH   2  25
HETATM   25  C13 UNK     1      20.479  -6.589  37.640  1.00  0.00    -0.035 A 
HETATM   26  C16 UNK     1      20.204  -5.753  36.568  1.00  0.00     0.014 A 
HETATM   27  C20 UNK     1      18.887  -5.612  36.131  1.00  0.00     0.037 A 
HETATM   28  C22 UNK     1      17.861  -6.307  36.771  1.00  0.00     0.068 A 
HETATM   29  C21 UNK     1      18.152  -7.145  37.848  1.00  0.00     0.037 A 
HETATM   30  C17 UNK     1      19.470  -7.286  38.285  1.00  0.00     0.014 A 
BRANCH  28  31
HETATM   31  O4  UNK     1      16.576  -6.169  36.346  1.00  0.00    -0.356 OA
HETATM   32  C24 UNK     1      16.141  -7.036  35.300  1.00  0.00     0.210 C 
ENDBRANCH  28  31
ENDBRANCH   2  25
TORSDOF 7
ENDMDL
MODEL 10
REMARK VINA RESULT:      -8.1     24.143     26.708
REMARK  7 active torsions:
REMARK  status: ('A' for Active; 'I' for Inactive)
REMARK    1  A    between atoms: N1_6  and  S1_1 
REMARK    2  A    between atoms: C22_29  and  O4_5 
REMARK    3  A    between atoms: C1_8  and  N1_6 
REMARK       I    between atoms: C10_17  and  N2_7 
REMARK    4  A    between atoms: C2_9  and  N2_7 
REMARK    5  A    between atoms: C10_17  and  C5_12 
REMARK    6  A    between atoms: C11_18  and  C5_12 
REMARK    7  A    between atoms: C12_19  and  C13_20 
ROOT
HETATM    1  C5  UNK     1      13.982   9.592   9.791  1.00  0.00     0.043 C 
HETATM    2  C12 UNK     1      15.040   9.465   8.963  1.00  0.00     0.029 C 
ENDROOT
BRANCH   1   3
HETATM    3  C10 UNK     1      12.915   8.529   9.663  1.00  0.00     0.257 C 
HETATM    4  O3  UNK     1      12.711   7.741  10.582  1.00  0.00    -0.267 OA
HETATM    5  N2  UNK     1      12.227   8.564   8.441  1.00  0.00    -0.323 N 
HETATM    6  H7  UNK     1      12.490   9.274   7.762  1.00  0.00     0.169 HD
BRANCH   5   7
HETATM    7  C2  UNK     1      11.195   7.730   8.007  1.00  0.00     0.037 A 
HETATM    8  C3  UNK     1      10.136   7.427   8.862  1.00  0.00     0.059 A 
HETATM    9  C1  UNK     1       9.119   6.598   8.418  1.00  0.00     0.046 A 
HETATM   10  C4  UNK     1       9.134   6.064   7.138  1.00  0.00     0.030 A 
HETATM   11  C8  UNK     1      10.194   6.367   6.283  1.00  0.00     0.004 A 
HETATM   12  C7  UNK     1      11.224   7.200   6.717  1.00  0.00     0.029 A 
BRANCH   9  13
HETATM   13  N1  UNK     1       8.021   6.285   9.303  1.00  0.00    -0.281 N 
HETATM   14  C6  UNK     1       6.893   7.248   9.339  1.00  0.00     0.169 C 
BRANCH  13  15
HETATM   15  S1  UNK     1       7.683   4.620   9.564  1.00  0.00     0.228 S 
HETATM   16  C9  UNK     1       6.611   4.696  10.984  1.00  0.00     0.186 C 
HETATM   17  O1  UNK     1       8.899   3.953   9.991  1.00  0.00    -0.206 OA
HETATM   18  O2  UNK     1       6.905   4.083   8.463  1.00  0.00    -0.206 OA
ENDBRANCH  13  15
ENDBRANCH   9  13
ENDBRANCH   5   7
ENDBRANCH   1   3
BRANCH   1  19
HETATM   19  C11 UNK     1      13.847  10.713  10.743  1.00  0.00    -0.021 A 
HETATM   20  C14 UNK     1      14.282  10.548  12.046  1.00  0.00     0.012 A 
HETATM   21  C18 UNK     1      14.154  11.606  12.946  1.00  0.00     0.001 A 
HETATM   22  C23 UNK     1      13.591  12.813  12.527  1.00  0.00     0.000 A 
HETATM   23  C19 UNK     1      13.157  12.960  11.210  1.00  0.00     0.001 A 
HETATM   24  C15 UNK     1      13.287  11.902  10.310  1.00  0.00     0.012 A 
ENDBRANCH   1  19
BRANCH   2  25
HETATM   25  C13 UNK     1      16.179  10.391   8.866  1.00  0.00    -0.035 A 
HETATM   26  C16 UNK     1      16.154  11.403   7.918  1.00  0.00     0.014 A 
HETATM   27  C20 UNK     1      17.233  12.282   7.826  1.00  0.00     0.037 A 
HETATM   28  C22 UNK     1      18.324  12.139   8.683  1.00  0.00     0.068 A 
HETATM   29  C21 UNK     1      18.336  11.117   9.633  1.00  0.00     0.037 A 
HETATM   30  C17 UNK     1      17.257  10.238   9.725  1.00  0.00     0.014 A 
BRANCH  28  31
HETATM   31  O4  UNK     1      19.377  12.996   8.594  1.00  0.00    -0.356 OA
HETATM   32  C24 UNK     1      20.640  12.524   9.061  1.00  0.00     0.210 C 
ENDBRANCH  28  31
ENDBRANCH   2  25
TORSDOF 7
ENDMDL
