MODEL 1
REMARK VINA RESULT:      -9.1      0.000      0.000
REMARK  5 active torsions:
REMARK  status: ('A' for Active; 'I' for Inactive)
REMARK    1  A    between atoms: C5_11  and  O2_2 
REMARK    2  A    between atoms: C6_12  and  O2_2 
REMARK    3  A    between atoms: C13_19  and  O5_5 
REMARK    4  A    between atoms: C14_20  and  O5_5 
REMARK    5  A    between atoms: C2_8  and  C5_11 
ROOT
HETATM    1  O4  UNK     1      10.160   4.386   9.961  1.00  0.00    -0.319 OA
HETATM    2  O6  UNK     1       7.702   6.723   7.687  1.00  0.00    -0.284 OA
HETATM    3  C6  UNK     1      12.678   6.028   7.899  1.00  0.00     0.082 A 
HETATM    4  C7  UNK     1       9.907   6.037   8.193  1.00  0.00     0.051 A 
HETATM    5  C8  UNK     1      10.693   5.213   9.003  1.00  0.00     0.092 A 
HETATM    6  C9  UNK     1      12.080   5.208   8.857  1.00  0.00     0.075 A 
HETATM    7  C10 UNK     1      11.893   6.851   7.090  1.00  0.00     0.038 A 
HETATM    8  C11 UNK     1      10.505   6.859   7.234  1.00  0.00     0.021 A 
HETATM    9  C12 UNK     1       8.443   6.025   8.366  1.00  0.00     0.220 A 
HETATM   10  C13 UNK     1       7.921   5.116   9.411  1.00  0.00     0.149 A 
HETATM   11  C17 UNK     1       8.794   4.384  10.110  1.00  0.00     0.184 A 
ENDROOT
BRANCH  10  12
HETATM   12  O5  UNK     1       6.567   5.046   9.634  1.00  0.00    -0.305 OA
BRANCH  12  13
HETATM   13  C14 UNK     1       6.153   5.001  10.936  1.00  0.00     0.077 A 
HETATM   14  C18 UNK     1       6.191   6.156  11.713  1.00  0.00     0.044 A 
HETATM   15  C16 UNK     1       5.769   6.111  13.042  1.00  0.00    -0.059 A 
HETATM   16  C20 UNK     1       5.311   4.912  13.588  1.00  0.00     0.013 A 
HETATM   17  C22 UNK     1       5.809   7.345  13.879  1.00  0.00     0.048 C 
HETATM   18  C15 UNK     1       5.274   3.759  12.805  1.00  0.00    -0.059 A 
HETATM   19  C19 UNK     1       5.696   3.803  11.476  1.00  0.00     0.044 A 
HETATM   20  C21 UNK     1       4.784   2.477  13.390  1.00  0.00     0.048 C 
ENDBRANCH  12  13
ENDBRANCH  10  12
BRANCH   3  21
HETATM   21  O2  UNK     1      14.033   6.025   7.754  1.00  0.00    -0.277 OA
BRANCH  21  22
HETATM   22  C5  UNK     1      14.739   5.961   8.966  1.00  0.00     0.293 C 
HETATM   23  O3  UNK     1      15.502   5.064   9.303  1.00  0.00    -0.262 OA
BRANCH  22  24
HETATM   24  C2  UNK     1      14.424   7.159   9.807  1.00  0.00     0.221 C 
HETATM   25  C1  UNK     1      15.033   8.432   9.253  1.00  0.00     0.044 C 
HETATM   26  C3  UNK     1      16.370   8.487   9.953  1.00  0.00     0.029 C 
HETATM   27  C4  UNK     1      16.040   7.901  11.307  1.00  0.00     0.169 C 
HETATM   28  O1  UNK     1      15.017   6.921  11.087  1.00  0.00    -0.376 OA
ENDBRANCH  22  24
ENDBRANCH  21  22
ENDBRANCH   3  21
TORSDOF 5
ENDMDL
MODEL 2
REMARK VINA RESULT:      -9.1      0.061      1.619
REMARK  5 active torsions:
REMARK  status: ('A' for Active; 'I' for Inactive)
REMARK    1  A    between atoms: C5_11  and  O2_2 
REMARK    2  A    between atoms: C6_12  and  O2_2 
REMARK    3  A    between atoms: C13_19  and  O5_5 
REMARK    4  A    between atoms: C14_20  and  O5_5 
REMARK    5  A    between atoms: C2_8  and  C5_11 
ROOT
HETATM    1  O4  UNK     1      10.126   4.377   9.969  1.00  0.00    -0.319 OA
HETATM    2  O6  UNK     1       7.653   6.765   7.765  1.00  0.00    -0.284 OA
HETATM    3  C6  UNK     1      12.630   6.058   7.922  1.00  0.00     0.082 A 
HETATM    4  C7  UNK     1       9.862   6.065   8.238  1.00  0.00     0.051 A 
HETATM    5  C8  UNK     1      10.652   5.224   9.025  1.00  0.00     0.092 A 
HETATM    6  C9  UNK     1      12.039   5.220   8.867  1.00  0.00     0.075 A 
HETATM    7  C10 UNK     1      11.840   6.900   7.137  1.00  0.00     0.038 A 
HETATM    8  C11 UNK     1      10.452   6.906   7.292  1.00  0.00     0.021 A 
HETATM    9  C12 UNK     1       8.399   6.051   8.422  1.00  0.00     0.220 A 
HETATM   10  C13 UNK     1       7.884   5.122   9.452  1.00  0.00     0.149 A 
HETATM   11  C17 UNK     1       8.762   4.374  10.129  1.00  0.00     0.184 A 
ENDROOT
BRANCH  10  12
HETATM   12  O5  UNK     1       6.532   5.049   9.685  1.00  0.00    -0.305 OA
BRANCH  12  13
HETATM   13  C14 UNK     1       6.126   5.003  10.990  1.00  0.00     0.077 A 
HETATM   14  C18 UNK     1       5.652   3.808  11.524  1.00  0.00     0.044 A 
HETATM   15  C16 UNK     1       5.238   3.760  12.855  1.00  0.00    -0.059 A 
HETATM   16  C20 UNK     1       5.301   4.907  13.647  1.00  0.00     0.013 A 
HETATM   17  C22 UNK     1       4.727   2.483  13.432  1.00  0.00     0.048 C 
HETATM   18  C15 UNK     1       5.777   6.101  13.107  1.00  0.00    -0.059 A 
HETATM   19  C19 UNK     1       6.191   6.149  11.775  1.00  0.00     0.044 A 
HETATM   20  C21 UNK     1       5.843   7.327  13.953  1.00  0.00     0.048 C 
ENDBRANCH  12  13
ENDBRANCH  10  12
BRANCH   3  21
HETATM   21  O2  UNK     1      13.983   6.057   7.765  1.00  0.00    -0.277 OA
BRANCH  21  22
HETATM   22  C5  UNK     1      14.699   5.991   8.971  1.00  0.00     0.293 C 
HETATM   23  O3  UNK     1      15.458   5.090   9.304  1.00  0.00    -0.262 OA
BRANCH  22  24
HETATM   24  C2  UNK     1      14.400   7.193   9.812  1.00  0.00     0.221 C 
HETATM   25  C1  UNK     1      15.019   8.460   9.253  1.00  0.00     0.044 C 
HETATM   26  C3  UNK     1      16.360   8.503   9.946  1.00  0.00     0.029 C 
HETATM   27  C4  UNK     1      16.030   7.922  11.303  1.00  0.00     0.169 C 
HETATM   28  O1  UNK     1      14.997   6.952  11.089  1.00  0.00    -0.376 OA
ENDBRANCH  22  24
ENDBRANCH  21  22
ENDBRANCH   3  21
TORSDOF 5
ENDMDL
MODEL 3
REMARK VINA RESULT:      -9.0     22.128     24.403
REMARK  5 active torsions:
REMARK  status: ('A' for Active; 'I' for Inactive)
REMARK    1  A    between atoms: C5_11  and  O2_2 
REMARK    2  A    between atoms: C6_12  and  O2_2 
REMARK    3  A    between atoms: C13_19  and  O5_5 
REMARK    4  A    between atoms: C14_20  and  O5_5 
REMARK    5  A    between atoms: C2_8  and  C5_11 
ROOT
HETATM    1  O4  UNK     1      18.243   4.071  33.414  1.00  0.00    -0.319 OA
HETATM    2  O6  UNK     1      18.752   6.636  30.278  1.00  0.00    -0.284 OA
HETATM    3  C6  UNK     1      18.683   1.629  30.743  1.00  0.00     0.082 A 
HETATM    4  C7  UNK     1      18.632   4.400  31.036  1.00  0.00     0.051 A 
HETATM    5  C8  UNK     1      18.451   3.576  32.150  1.00  0.00     0.092 A 
HETATM    6  C9  UNK     1      18.476   2.189  32.004  1.00  0.00     0.075 A 
HETATM    7  C10 UNK     1      18.865   2.453  29.630  1.00  0.00     0.038 A 
HETATM    8  C11 UNK     1      18.839   3.841  29.773  1.00  0.00     0.021 A 
HETATM    9  C12 UNK     1      18.600   5.863  31.215  1.00  0.00     0.220 A 
HETATM   10  C13 UNK     1      18.373   6.342  32.596  1.00  0.00     0.149 A 
HETATM   11  C17 UNK     1      18.215   5.436  33.565  1.00  0.00     0.184 A 
ENDROOT
BRANCH  10  12
HETATM   12  O5  UNK     1      18.329   7.693  32.847  1.00  0.00    -0.305 OA
BRANCH  12  13
HETATM   13  C14 UNK     1      17.104   8.236  33.121  1.00  0.00     0.077 A 
HETATM   14  C18 UNK     1      15.951   7.598  32.674  1.00  0.00     0.044 A 
HETATM   15  C16 UNK     1      14.701   8.151  32.953  1.00  0.00    -0.059 A 
HETATM   16  C20 UNK     1      14.610   9.340  33.676  1.00  0.00     0.013 A 
HETATM   17  C22 UNK     1      13.462   7.471  32.476  1.00  0.00     0.048 C 
HETATM   18  C15 UNK     1      15.769   9.975  34.121  1.00  0.00    -0.059 A 
HETATM   19  C19 UNK     1      17.019   9.422  33.843  1.00  0.00     0.044 A 
HETATM   20  C21 UNK     1      15.671  11.247  34.894  1.00  0.00     0.048 C 
ENDBRANCH  12  13
ENDBRANCH  10  12
BRANCH   3  21
HETATM   21  O2  UNK     1      18.709   0.275  30.597  1.00  0.00    -0.277 OA
BRANCH  21  22
HETATM   22  C5  UNK     1      19.780  -0.352  31.255  1.00  0.00     0.293 C 
HETATM   23  O3  UNK     1      20.943   0.032  31.256  1.00  0.00    -0.262 OA
BRANCH  22  24
HETATM   24  C2  UNK     1      19.297  -1.578  31.965  1.00  0.00     0.221 C 
HETATM   25  C1  UNK     1      18.148  -1.285  32.910  1.00  0.00     0.044 C 
HETATM   26  C3  UNK     1      18.858  -1.001  34.212  1.00  0.00     0.029 C 
HETATM   27  C4  UNK     1      20.036  -1.947  34.141  1.00  0.00     0.169 C 
HETATM   28  O1  UNK     1      20.394  -2.045  32.756  1.00  0.00    -0.376 OA
ENDBRANCH  22  24
ENDBRANCH  21  22
ENDBRANCH   3  21
TORSDOF 5
ENDMDL
MODEL 4
REMARK VINA RESULT:      -9.0     22.088     24.331
REMARK  5 active torsions:
REMARK  status: ('A' for Active; 'I' for Inactive)
REMARK    1  A    between atoms: C5_11  and  O2_2 
REMARK    2  A    between atoms: C6_12  and  O2_2 
REMARK    3  A    between atoms: C13_19  and  O5_5 
REMARK    4  A    between atoms: C14_20  and  O5_5 
REMARK    5  A    between atoms: C2_8  and  C5_11 
ROOT
HETATM    1  O4  UNK     1      18.283   4.043  33.371  1.00  0.00    -0.319 OA
HETATM    2  O6  UNK     1      18.731   6.602  30.221  1.00  0.00    -0.284 OA
HETATM    3  C6  UNK     1      18.705   1.596  30.702  1.00  0.00     0.082 A 
HETATM    4  C7  UNK     1      18.637   4.367  30.987  1.00  0.00     0.051 A 
HETATM    5  C8  UNK     1      18.477   3.546  32.106  1.00  0.00     0.092 A 
HETATM    6  C9  UNK     1      18.511   2.159  31.964  1.00  0.00     0.075 A 
HETATM    7  C10 UNK     1      18.865   2.417  29.584  1.00  0.00     0.038 A 
HETATM    8  C11 UNK     1      18.832   3.806  29.723  1.00  0.00     0.021 A 
HETATM    9  C12 UNK     1      18.597   5.831  31.161  1.00  0.00     0.220 A 
HETATM   10  C13 UNK     1      18.385   6.313  32.545  1.00  0.00     0.149 A 
HETATM   11  C17 UNK     1      18.247   5.408  33.519  1.00  0.00     0.184 A 
ENDROOT
BRANCH  10  12
HETATM   12  O5  UNK     1      18.335   7.664  32.792  1.00  0.00    -0.305 OA
BRANCH  12  13
HETATM   13  C14 UNK     1      17.110   8.199  33.079  1.00  0.00     0.077 A 
HETATM   14  C18 UNK     1      17.027   9.385  33.803  1.00  0.00     0.044 A 
HETATM   15  C16 UNK     1      15.777   9.931  34.097  1.00  0.00    -0.059 A 
HETATM   16  C20 UNK     1      14.617   9.289  33.664  1.00  0.00     0.013 A 
HETATM   17  C22 UNK     1      15.683  11.201  34.873  1.00  0.00     0.048 C 
HETATM   18  C15 UNK     1      14.706   8.102  32.939  1.00  0.00    -0.059 A 
HETATM   19  C19 UNK     1      15.955   7.556  32.645  1.00  0.00     0.044 A 
HETATM   20  C21 UNK     1      13.464   7.416  32.478  1.00  0.00     0.048 C 
ENDBRANCH  12  13
ENDBRANCH  10  12
BRANCH   3  21
HETATM   21  O2  UNK     1      18.738   0.242  30.560  1.00  0.00    -0.277 OA
BRANCH  21  22
HETATM   22  C5  UNK     1      19.801  -0.379  31.236  1.00  0.00     0.293 C 
HETATM   23  O3  UNK     1      20.964   0.006  31.249  1.00  0.00    -0.262 OA
BRANCH  22  24
HETATM   24  C2  UNK     1      19.311  -1.600  31.949  1.00  0.00     0.221 C 
HETATM   25  C1  UNK     1      18.180  -1.294  32.912  1.00  0.00     0.044 C 
HETATM   26  C3  UNK     1      18.913  -1.025  34.204  1.00  0.00     0.029 C 
HETATM   27  C4  UNK     1      20.075  -1.988  34.112  1.00  0.00     0.169 C 
HETATM   28  O1  UNK     1      20.412  -2.086  32.722  1.00  0.00    -0.376 OA
ENDBRANCH  22  24
ENDBRANCH  21  22
ENDBRANCH   3  21
TORSDOF 5
ENDMDL
MODEL 5
REMARK VINA RESULT:      -8.8      1.786      2.326
REMARK  5 active torsions:
REMARK  status: ('A' for Active; 'I' for Inactive)
REMARK    1  A    between atoms: C5_11  and  O2_2 
REMARK    2  A    between atoms: C6_12  and  O2_2 
REMARK    3  A    between atoms: C13_19  and  O5_5 
REMARK    4  A    between atoms: C14_20  and  O5_5 
REMARK    5  A    between atoms: C2_8  and  C5_11 
ROOT
HETATM    1  O4  UNK     1      10.312   8.451   9.686  1.00  0.00    -0.319 OA
HETATM    2  O6  UNK     1       8.468   5.437   7.641  1.00  0.00    -0.284 OA
HETATM    3  C6  UNK     1      13.265   6.641   8.550  1.00  0.00     0.082 A 
HETATM    4  C7  UNK     1      10.494   6.430   8.347  1.00  0.00     0.051 A 
HETATM    5  C8  UNK     1      11.063   7.486   9.062  1.00  0.00     0.092 A 
HETATM    6  C9  UNK     1      12.451   7.592   9.164  1.00  0.00     0.075 A 
HETATM    7  C10 UNK     1      12.696   5.585   7.835  1.00  0.00     0.038 A 
HETATM    8  C11 UNK     1      11.308   5.476   7.731  1.00  0.00     0.021 A 
HETATM    9  C12 UNK     1       9.025   6.338   8.253  1.00  0.00     0.220 A 
HETATM   10  C13 UNK     1       8.264   7.403   8.943  1.00  0.00     0.149 A 
HETATM   11  C17 UNK     1       8.946   8.353   9.591  1.00  0.00     0.184 A 
ENDROOT
BRANCH  10  12
HETATM   12  O5  UNK     1       6.891   7.389   8.904  1.00  0.00    -0.305 OA
BRANCH  12  13
HETATM   13  C14 UNK     1       6.235   7.258  10.096  1.00  0.00     0.077 A 
HETATM   14  C18 UNK     1       5.408   8.283  10.546  1.00  0.00     0.044 A 
HETATM   15  C16 UNK     1       4.739   8.150  11.763  1.00  0.00    -0.059 A 
HETATM   16  C20 UNK     1       4.900   6.993  12.524  1.00  0.00     0.013 A 
HETATM   17  C22 UNK     1       3.853   9.246  12.250  1.00  0.00     0.048 C 
HETATM   18  C15 UNK     1       5.729   5.968  12.069  1.00  0.00    -0.059 A 
HETATM   19  C19 UNK     1       6.398   6.101  10.852  1.00  0.00     0.044 A 
HETATM   20  C21 UNK     1       5.901   4.731  12.884  1.00  0.00     0.048 C 
ENDBRANCH  12  13
ENDBRANCH  10  12
BRANCH   3  21
HETATM   21  O2  UNK     1      14.620   6.741   8.648  1.00  0.00    -0.277 OA
BRANCH  21  22
HETATM   22  C5  UNK     1      15.121   6.501   9.938  1.00  0.00     0.293 C 
HETATM   23  O3  UNK     1      14.832   5.548  10.652  1.00  0.00    -0.262 OA
BRANCH  22  24
HETATM   24  C2  UNK     1      16.071   7.589  10.330  1.00  0.00     0.221 C 
HETATM   25  C1  UNK     1      15.821   8.097  11.737  1.00  0.00     0.044 C 
HETATM   26  C3  UNK     1      14.856   9.236  11.508  1.00  0.00     0.029 C 
HETATM   27  C4  UNK     1      15.335   9.792  10.185  1.00  0.00     0.169 C 
HETATM   28  O1  UNK     1      15.832   8.677   9.432  1.00  0.00    -0.376 OA
ENDBRANCH  22  24
ENDBRANCH  21  22
ENDBRANCH   3  21
TORSDOF 5
ENDMDL
MODEL 6
REMARK VINA RESULT:      -8.8      1.784      2.728
REMARK  5 active torsions:
REMARK  status: ('A' for Active; 'I' for Inactive)
REMARK    1  A    between atoms: C5_11  and  O2_2 
REMARK    2  A    between atoms: C6_12  and  O2_2 
REMARK    3  A    between atoms: C13_19  and  O5_5 
REMARK    4  A    between atoms: C14_20  and  O5_5 
REMARK    5  A    between atoms: C2_8  and  C5_11 
ROOT
HETATM    1  O4  UNK     1      10.303   8.460   9.686  1.00  0.00    -0.319 OA
HETATM    2  O6  UNK     1       8.452   5.446   7.646  1.00  0.00    -0.284 OA
HETATM    3  C6  UNK     1      13.252   6.652   8.537  1.00  0.00     0.082 A 
HETATM    4  C7  UNK     1      10.480   6.440   8.344  1.00  0.00     0.051 A 
HETATM    5  C8  UNK     1      11.052   7.497   9.057  1.00  0.00     0.092 A 
HETATM    6  C9  UNK     1      12.440   7.603   9.154  1.00  0.00     0.075 A 
HETATM    7  C10 UNK     1      12.681   5.597   7.823  1.00  0.00     0.038 A 
HETATM    8  C11 UNK     1      11.292   5.487   7.724  1.00  0.00     0.021 A 
HETATM    9  C12 UNK     1       9.011   6.347   8.256  1.00  0.00     0.220 A 
HETATM   10  C13 UNK     1       8.252   7.411   8.950  1.00  0.00     0.149 A 
HETATM   11  C17 UNK     1       8.936   8.361   9.596  1.00  0.00     0.184 A 
ENDROOT
BRANCH  10  12
HETATM   12  O5  UNK     1       6.878   7.397   8.916  1.00  0.00    -0.305 OA
BRANCH  12  13
HETATM   13  C14 UNK     1       6.228   7.261  10.111  1.00  0.00     0.077 A 
HETATM   14  C18 UNK     1       6.401   6.103  10.864  1.00  0.00     0.044 A 
HETATM   15  C16 UNK     1       5.737   5.964  12.083  1.00  0.00    -0.059 A 
HETATM   16  C20 UNK     1       4.903   6.982  12.543  1.00  0.00     0.013 A 
HETATM   17  C22 UNK     1       5.919   4.725  12.893  1.00  0.00     0.048 C 
HETATM   18  C15 UNK     1       4.733   8.140  11.784  1.00  0.00    -0.059 A 
HETATM   19  C19 UNK     1       5.397   8.280  10.565  1.00  0.00     0.044 A 
HETATM   20  C21 UNK     1       3.840   9.228  12.277  1.00  0.00     0.048 C 
ENDBRANCH  12  13
ENDBRANCH  10  12
BRANCH   3  21
HETATM   21  O2  UNK     1      14.607   6.754   8.629  1.00  0.00    -0.277 OA
BRANCH  21  22
HETATM   22  C5  UNK     1      15.113   6.516   9.918  1.00  0.00     0.293 C 
HETATM   23  O3  UNK     1      14.831   5.563  10.633  1.00  0.00    -0.262 OA
BRANCH  22  24
HETATM   24  C2  UNK     1      16.059   7.609  10.306  1.00  0.00     0.221 C 
HETATM   25  C1  UNK     1      15.821   8.107  11.719  1.00  0.00     0.044 C 
HETATM   26  C3  UNK     1      14.846   9.240  11.507  1.00  0.00     0.029 C 
HETATM   27  C4  UNK     1      15.306   9.808  10.183  1.00  0.00     0.169 C 
HETATM   28  O1  UNK     1      15.803   8.701   9.418  1.00  0.00    -0.376 OA
ENDBRANCH  22  24
ENDBRANCH  21  22
ENDBRANCH   3  21
TORSDOF 5
ENDMDL
MODEL 7
REMARK VINA RESULT:      -8.7     25.667     27.866
REMARK  5 active torsions:
REMARK  status: ('A' for Active; 'I' for Inactive)
REMARK    1  A    between atoms: C5_11  and  O2_2 
REMARK    2  A    between atoms: C6_12  and  O2_2 
REMARK    3  A    between atoms: C13_19  and  O5_5 
REMARK    4  A    between atoms: C14_20  and  O5_5 
REMARK    5  A    between atoms: C2_8  and  C5_11 
ROOT
HETATM    1  O4  UNK     1      18.930  -1.118  36.495  1.00  0.00    -0.319 OA
HETATM    2  O6  UNK     1      20.795  -3.372  33.647  1.00  0.00    -0.284 OA
HETATM    3  C6  UNK     1      18.118   0.884  33.560  1.00  0.00     0.082 A 
HETATM    4  C7  UNK     1      19.505  -1.457  34.157  1.00  0.00     0.051 A 
HETATM    5  C8  UNK     1      18.888  -0.732  35.179  1.00  0.00     0.092 A 
HETATM    6  C9  UNK     1      18.193   0.441  34.880  1.00  0.00     0.075 A 
HETATM    7  C10 UNK     1      18.734   0.158  32.539  1.00  0.00     0.038 A 
HETATM    8  C11 UNK     1      19.430  -1.016  32.834  1.00  0.00     0.021 A 
HETATM    9  C12 UNK     1      20.235  -2.693  34.497  1.00  0.00     0.220 A 
HETATM   10  C13 UNK     1      20.249  -3.065  35.929  1.00  0.00     0.149 A 
HETATM   11  C17 UNK     1      19.614  -2.271  36.797  1.00  0.00     0.184 A 
ENDROOT
BRANCH  10  12
HETATM   12  O5  UNK     1      20.907  -4.203  36.328  1.00  0.00    -0.305 OA
BRANCH  12  13
HETATM   13  C14 UNK     1      20.137  -5.260  36.726  1.00  0.00     0.077 A 
HETATM   14  C18 UNK     1      19.158  -5.761  35.873  1.00  0.00     0.044 A 
HETATM   15  C16 UNK     1      18.371  -6.839  36.279  1.00  0.00    -0.059 A 
HETATM   16  C20 UNK     1      18.567  -7.412  37.535  1.00  0.00     0.013 A 
HETATM   17  C22 UNK     1      17.320  -7.379  35.368  1.00  0.00     0.048 C 
HETATM   18  C15 UNK     1      19.550  -6.906  38.386  1.00  0.00    -0.059 A 
HETATM   19  C19 UNK     1      20.337  -5.828  37.980  1.00  0.00     0.044 A 
HETATM   20  C21 UNK     1      19.758  -7.519  39.730  1.00  0.00     0.048 C 
ENDBRANCH  12  13
ENDBRANCH  10  12
BRANCH   3  21
HETATM   21  O2  UNK     1      17.440   2.028  33.265  1.00  0.00    -0.277 OA
BRANCH  21  22
HETATM   22  C5  UNK     1      17.893   2.680  32.107  1.00  0.00     0.293 C 
HETATM   23  O3  UNK     1      17.628   2.360  30.955  1.00  0.00    -0.262 OA
BRANCH  22  24
HETATM   24  C2  UNK     1      18.763   3.840  32.479  1.00  0.00     0.221 C 
HETATM   25  C1  UNK     1      18.145   4.704  33.562  1.00  0.00     0.044 C 
HETATM   26  C3  UNK     1      17.382   5.734  32.763  1.00  0.00     0.029 C 
HETATM   27  C4  UNK     1      18.274   5.919  31.556  1.00  0.00     0.169 C 
HETATM   28  O1  UNK     1      18.886   4.647  31.304  1.00  0.00    -0.376 OA
ENDBRANCH  22  24
ENDBRANCH  21  22
ENDBRANCH   3  21
TORSDOF 5
ENDMDL
MODEL 8
REMARK VINA RESULT:      -8.6      1.370      1.642
REMARK  5 active torsions:
REMARK  status: ('A' for Active; 'I' for Inactive)
REMARK    1  A    between atoms: C5_11  and  O2_2 
REMARK    2  A    between atoms: C6_12  and  O2_2 
REMARK    3  A    between atoms: C13_19  and  O5_5 
REMARK    4  A    between atoms: C14_20  and  O5_5 
REMARK    5  A    between atoms: C2_8  and  C5_11 
ROOT
HETATM    1  O4  UNK     1       9.513   8.321   9.849  1.00  0.00    -0.319 OA
HETATM    2  O6  UNK     1       7.729   5.323   7.726  1.00  0.00    -0.284 OA
HETATM    3  C6  UNK     1      12.418   7.120   8.002  1.00  0.00     0.082 A 
HETATM    4  C7  UNK     1       9.706   6.520   8.225  1.00  0.00     0.051 A 
HETATM    5  C8  UNK     1      10.256   7.560   8.980  1.00  0.00     0.092 A 
HETATM    6  C9  UNK     1      11.614   7.860   8.869  1.00  0.00     0.075 A 
HETATM    7  C10 UNK     1      11.868   6.082   7.248  1.00  0.00     0.038 A 
HETATM    8  C11 UNK     1      10.510   5.778   7.357  1.00  0.00     0.021 A 
HETATM    9  C12 UNK     1       8.269   6.220   8.360  1.00  0.00     0.220 A 
HETATM   10  C13 UNK     1       7.516   7.070   9.309  1.00  0.00     0.149 A 
HETATM   11  C17 UNK     1       8.176   8.029   9.964  1.00  0.00     0.184 A 
ENDROOT
BRANCH  10  12
HETATM   12  O5  UNK     1       6.171   6.854   9.492  1.00  0.00    -0.305 OA
BRANCH  12  13
HETATM   13  C14 UNK     1       5.799   6.154  10.605  1.00  0.00     0.077 A 
HETATM   14  C18 UNK     1       5.375   6.837  11.742  1.00  0.00     0.044 A 
HETATM   15  C16 UNK     1       4.996   6.123  12.878  1.00  0.00    -0.059 A 
HETATM   16  C20 UNK     1       5.043   4.729  12.874  1.00  0.00     0.013 A 
HETATM   17  C22 UNK     1       4.542   6.850  14.099  1.00  0.00     0.048 C 
HETATM   18  C15 UNK     1       5.468   4.049  11.733  1.00  0.00    -0.059 A 
HETATM   19  C19 UNK     1       5.847   4.763  10.596  1.00  0.00     0.044 A 
HETATM   20  C21 UNK     1       5.518   2.559  11.729  1.00  0.00     0.048 C 
ENDBRANCH  12  13
ENDBRANCH  10  12
BRANCH   3  21
HETATM   21  O2  UNK     1      13.744   7.411   7.891  1.00  0.00    -0.277 OA
BRANCH  21  22
HETATM   22  C5  UNK     1      14.579   6.586   8.662  1.00  0.00     0.293 C 
HETATM   23  O3  UNK     1      15.015   5.493   8.323  1.00  0.00    -0.262 OA
BRANCH  22  24
HETATM   24  C2  UNK     1      14.864   7.234   9.981  1.00  0.00     0.221 C 
HETATM   25  C1  UNK     1      15.250   8.694   9.837  1.00  0.00     0.044 C 
HETATM   26  C3  UNK     1      16.754   8.625   9.722  1.00  0.00     0.029 C 
HETATM   27  C4  UNK     1      17.086   7.464  10.632  1.00  0.00     0.169 C 
HETATM   28  O1  UNK     1      15.989   6.546  10.535  1.00  0.00    -0.376 OA
ENDBRANCH  22  24
ENDBRANCH  21  22
ENDBRANCH   3  21
TORSDOF 5
ENDMDL
MODEL 9
REMARK VINA RESULT:      -8.6     25.471     27.940
REMARK  5 active torsions:
REMARK  status: ('A' for Active; 'I' for Inactive)
REMARK    1  A    between atoms: C5_11  and  O2_2 
REMARK    2  A    between atoms: C6_12  and  O2_2 
REMARK    3  A    between atoms: C13_19  and  O5_5 
REMARK    4  A    between atoms: C14_20  and  O5_5 
REMARK    5  A    between atoms: C2_8  and  C5_11 
ROOT
HETATM    1  O4  UNK     1      19.535  -0.948  33.354  1.00  0.00    -0.319 OA
HETATM    2  O6  UNK     1      17.101   0.858  36.091  1.00  0.00    -0.284 OA
HETATM    3  C6  UNK     1      20.248  -3.063  36.236  1.00  0.00     0.082 A 
HETATM    4  C7  UNK     1      18.663  -0.855  35.622  1.00  0.00     0.051 A 
HETATM    5  C8  UNK     1      19.474  -1.427  34.639  1.00  0.00     0.092 A 
HETATM    6  C9  UNK     1      20.268  -2.533  34.946  1.00  0.00     0.075 A 
HETATM    7  C10 UNK     1      19.437  -2.492  37.218  1.00  0.00     0.038 A 
HETATM    8  C11 UNK     1      18.641  -1.385  36.914  1.00  0.00     0.021 A 
HETATM    9  C12 UNK     1      17.832   0.313  35.275  1.00  0.00     0.220 A 
HETATM   10  C13 UNK     1      17.936   0.789  33.877  1.00  0.00     0.149 A 
HETATM   11  C17 UNK     1      18.757   0.141  33.045  1.00  0.00     0.184 A 
ENDROOT
BRANCH  10  12
HETATM   12  O5  UNK     1      17.194   1.873  33.474  1.00  0.00    -0.305 OA
BRANCH  12  13
HETATM   13  C14 UNK     1      17.876   2.927  32.933  1.00  0.00     0.077 A 
HETATM   14  C18 UNK     1      18.080   2.985  31.558  1.00  0.00     0.044 A 
HETATM   15  C16 UNK     1      18.777   4.060  31.005  1.00  0.00    -0.059 A 
HETATM   16  C20 UNK     1      19.267   5.072  31.831  1.00  0.00     0.013 A 
HETATM   17  C22 UNK     1      18.999   4.127  29.531  1.00  0.00     0.048 C 
HETATM   18  C15 UNK     1      19.059   5.009  33.208  1.00  0.00    -0.059 A 
HETATM   19  C19 UNK     1      18.363   3.934  33.761  1.00  0.00     0.044 A 
HETATM   20  C21 UNK     1      19.584   6.091  34.091  1.00  0.00     0.048 C 
ENDBRANCH  12  13
ENDBRANCH  10  12
BRANCH   3  21
HETATM   21  O2  UNK     1      21.022  -4.142  36.538  1.00  0.00    -0.277 OA
BRANCH  21  22
HETATM   22  C5  UNK     1      20.309  -5.225  37.078  1.00  0.00     0.293 C 
HETATM   23  O3  UNK     1      20.318  -5.574  38.251  1.00  0.00    -0.262 OA
BRANCH  22  24
HETATM   24  C2  UNK     1      19.525  -5.910  36.002  1.00  0.00     0.221 C 
HETATM   25  C1  UNK     1      18.937  -7.229  36.463  1.00  0.00     0.044 C 
HETATM   26  C3  UNK     1      20.015  -8.218  36.090  1.00  0.00     0.029 C 
HETATM   27  C4  UNK     1      20.559  -7.621  34.811  1.00  0.00     0.169 C 
HETATM   28  O1  UNK     1      20.450  -6.198  34.949  1.00  0.00    -0.376 OA
ENDBRANCH  22  24
ENDBRANCH  21  22
ENDBRANCH   3  21
TORSDOF 5
ENDMDL
MODEL 10
REMARK VINA RESULT:      -8.5     25.952     28.145
REMARK  5 active torsions:
REMARK  status: ('A' for Active; 'I' for Inactive)
REMARK    1  A    between atoms: C5_11  and  O2_2 
REMARK    2  A    between atoms: C6_12  and  O2_2 
REMARK    3  A    between atoms: C13_19  and  O5_5 
REMARK    4  A    between atoms: C14_20  and  O5_5 
REMARK    5  A    between atoms: C2_8  and  C5_11 
ROOT
HETATM    1  O4  UNK     1      19.850  -1.855  34.347  1.00  0.00    -0.319 OA
HETATM    2  O6  UNK     1      18.314  -1.694  38.127  1.00  0.00    -0.284 OA
HETATM    3  C6  UNK     1      17.806   1.144  34.006  1.00  0.00     0.082 A 
HETATM    4  C7  UNK     1      18.428  -0.733  35.970  1.00  0.00     0.051 A 
HETATM    5  C8  UNK     1      18.988  -0.844  34.695  1.00  0.00     0.092 A 
HETATM    6  C9  UNK     1      18.677   0.095  33.711  1.00  0.00     0.075 A 
HETATM    7  C10 UNK     1      17.247   1.255  35.281  1.00  0.00     0.038 A 
HETATM    8  C11 UNK     1      17.556   0.317  36.268  1.00  0.00     0.021 A 
HETATM    9  C12 UNK     1      18.771  -1.738  36.993  1.00  0.00     0.220 A 
HETATM   10  C13 UNK     1      19.704  -2.805  36.566  1.00  0.00     0.149 A 
HETATM   11  C17 UNK     1      20.160  -2.784  35.310  1.00  0.00     0.184 A 
ENDROOT
BRANCH  10  12
HETATM   12  O5  UNK     1      20.073  -3.780  37.461  1.00  0.00    -0.305 OA
BRANCH  12  13
HETATM   13  C14 UNK     1      19.965  -5.078  37.046  1.00  0.00     0.077 A 
HETATM   14  C18 UNK     1      21.044  -5.944  37.196  1.00  0.00     0.044 A 
HETATM   15  C16 UNK     1      20.934  -7.269  36.772  1.00  0.00    -0.059 A 
HETATM   16  C20 UNK     1      19.745  -7.721  36.201  1.00  0.00     0.013 A 
HETATM   17  C22 UNK     1      22.089  -8.200  36.930  1.00  0.00     0.048 C 
HETATM   18  C15 UNK     1      18.667  -6.850  36.054  1.00  0.00    -0.059 A 
HETATM   19  C19 UNK     1      18.776  -5.526  36.477  1.00  0.00     0.044 A 
HETATM   20  C21 UNK     1      17.396  -7.335  35.442  1.00  0.00     0.048 C 
ENDBRANCH  12  13
ENDBRANCH  10  12
BRANCH   3  21
HETATM   21  O2  UNK     1      17.500   2.063  33.049  1.00  0.00    -0.277 OA
BRANCH  21  22
HETATM   22  C5  UNK     1      18.128   3.306  33.226  1.00  0.00     0.293 C 
HETATM   23  O3  UNK     1      18.728   3.668  34.230  1.00  0.00    -0.262 OA
BRANCH  22  24
HETATM   24  C2  UNK     1      17.957   4.146  31.999  1.00  0.00     0.221 C 
HETATM   25  C1  UNK     1      19.265   4.748  31.522  1.00  0.00     0.044 C 
HETATM   26  C3  UNK     1      19.295   6.077  32.238  1.00  0.00     0.029 C 
HETATM   27  C4  UNK     1      17.830   6.455  32.259  1.00  0.00     0.169 C 
HETATM   28  O1  UNK     1      17.096   5.228  32.366  1.00  0.00    -0.376 OA
ENDBRANCH  22  24
ENDBRANCH  21  22
ENDBRANCH   3  21
TORSDOF 5
ENDMDL
