MODEL 1
REMARK VINA RESULT:      -7.0      0.000      0.000
REMARK  4 active torsions:
REMARK  status: ('A' for Active; 'I' for Inactive)
REMARK    1  A    between atoms: C13_16  and  O2_2 
REMARK    2  A    between atoms: C5_8  and  O2_2 
REMARK    3  A    between atoms: C1_4  and  C6_9 
REMARK    4  A    between atoms: C13_16  and  C14_17 
ROOT
HETATM    1  O1  UNK     1      18.617   0.115  34.529  1.00  0.00    -0.275 OA
HETATM    2  O3  UNK     1      19.046  -1.758  35.769  1.00  0.00    -0.260 OA
HETATM    3  C1  UNK     1      18.601   2.117  30.868  1.00  0.00    -0.024 A 
HETATM    4  C2  UNK     1      19.083   0.091  32.131  1.00  0.00     0.005 A 
HETATM    5  C3  UNK     1      19.062   0.796  30.920  1.00  0.00     0.024 A 
HETATM    6  C4  UNK     1      18.629   0.753  33.272  1.00  0.00     0.092 A 
HETATM    7  C5  UNK     1      18.155   2.753  32.025  1.00  0.00     0.078 A 
HETATM    8  C7  UNK     1      19.551  -1.294  32.261  1.00  0.00    -0.043 A 
HETATM    9  C8  UNK     1      18.167   2.070  33.238  1.00  0.00     0.075 A 
HETATM   10  C9  UNK     1      19.529  -1.877  33.468  1.00  0.00     0.090 A 
HETATM   11  C11 UNK     1      20.043  -2.035  31.051  1.00  0.00     0.049 C 
HETATM   12  C12 UNK     1      19.054  -1.192  34.681  1.00  0.00     0.288 A 
ENDROOT
BRANCH   7  13
HETATM   13  O2  UNK     1      17.704   4.037  31.987  1.00  0.00    -0.347 OA
BRANCH  13  14
HETATM   14  C13 UNK     1      18.486   5.021  32.663  1.00  0.00     0.202 C 
BRANCH  14  15
HETATM   15  C14 UNK     1      18.995   6.001  31.660  1.00  0.00    -0.011 C 
HETATM   16  C15 UNK     1      20.096   5.814  30.922  1.00  0.00     0.009 C 
ENDBRANCH  14  15
ENDBRANCH  13  14
ENDBRANCH   7  13
BRANCH   3  17
HETATM   17  C6  UNK     1      18.597   2.834  29.558  1.00  0.00     0.037 C 
HETATM   18  C10 UNK     1      17.886   2.041  28.466  1.00  0.00     0.010 C 
ENDBRANCH   3  17
TORSDOF 4
ENDMDL
MODEL 2
REMARK VINA RESULT:      -6.9      1.456      2.185
REMARK  4 active torsions:
REMARK  status: ('A' for Active; 'I' for Inactive)
REMARK    1  A    between atoms: C13_16  and  O2_2 
REMARK    2  A    between atoms: C5_8  and  O2_2 
REMARK    3  A    between atoms: C1_4  and  C6_9 
REMARK    4  A    between atoms: C13_16  and  C14_17 
ROOT
HETATM    1  O1  UNK     1      18.556   0.524  33.109  1.00  0.00    -0.275 OA
HETATM    2  O3  UNK     1      18.970  -1.703  33.427  1.00  0.00    -0.260 OA
HETATM    3  C1  UNK     1      18.647   3.921  30.688  1.00  0.00    -0.024 A 
HETATM    4  C2  UNK     1      19.117   1.547  30.963  1.00  0.00     0.005 A 
HETATM    5  C3  UNK     1      19.131   2.710  30.180  1.00  0.00     0.024 A 
HETATM    6  C4  UNK     1      18.606   1.646  32.257  1.00  0.00     0.092 A 
HETATM    7  C5  UNK     1      18.143   3.989  31.985  1.00  0.00     0.078 A 
HETATM    8  C7  UNK     1      19.607   0.243  30.497  1.00  0.00    -0.043 A 
HETATM    9  C8  UNK     1      18.120   2.847  32.779  1.00  0.00     0.075 A 
HETATM   10  C9  UNK     1      19.548  -0.806  31.328  1.00  0.00     0.090 A 
HETATM   11  C11 UNK     1      20.161   0.104  29.109  1.00  0.00     0.049 C 
HETATM   12  C12 UNK     1      19.011  -0.719  32.696  1.00  0.00     0.288 A 
ENDROOT
BRANCH   7  13
HETATM   13  O2  UNK     1      17.669   5.162  32.490  1.00  0.00    -0.347 OA
BRANCH  13  14
HETATM   14  C13 UNK     1      18.263   5.637  33.697  1.00  0.00     0.202 C 
BRANCH  14  15
HETATM   15  C14 UNK     1      19.168   6.778  33.370  1.00  0.00    -0.011 C 
HETATM   16  C15 UNK     1      20.495   6.666  33.240  1.00  0.00     0.009 C 
ENDBRANCH  14  15
ENDBRANCH  13  14
ENDBRANCH   7  13
BRANCH   3  17
HETATM   17  C6  UNK     1      18.682   5.137  29.821  1.00  0.00     0.037 C 
HETATM   18  C10 UNK     1      20.022   5.861  29.892  1.00  0.00     0.010 C 
ENDBRANCH   3  17
TORSDOF 4
ENDMDL
MODEL 3
REMARK VINA RESULT:      -6.7      1.871      5.675
REMARK  4 active torsions:
REMARK  status: ('A' for Active; 'I' for Inactive)
REMARK    1  A    between atoms: C13_16  and  O2_2 
REMARK    2  A    between atoms: C5_8  and  O2_2 
REMARK    3  A    between atoms: C1_4  and  C6_9 
REMARK    4  A    between atoms: C13_16  and  C14_17 
ROOT
HETATM    1  O1  UNK     1      17.946   5.018  33.967  1.00  0.00    -0.275 OA
HETATM    2  O3  UNK     1      17.755   7.231  34.512  1.00  0.00    -0.260 OA
HETATM    3  C1  UNK     1      18.703   2.026  31.160  1.00  0.00    -0.024 A 
HETATM    4  C2  UNK     1      18.511   4.399  31.672  1.00  0.00     0.005 A 
HETATM    5  C3  UNK     1      18.759   3.365  30.758  1.00  0.00     0.024 A 
HETATM    6  C4  UNK     1      18.208   4.040  32.986  1.00  0.00     0.092 A 
HETATM    7  C5  UNK     1      18.396   1.698  32.479  1.00  0.00     0.078 A 
HETATM    8  C7  UNK     1      18.553   5.824  31.324  1.00  0.00    -0.043 A 
HETATM    9  C8  UNK     1      18.147   2.708  33.402  1.00  0.00     0.075 A 
HETATM   10  C9  UNK     1      18.300   6.733  32.276  1.00  0.00     0.090 A 
HETATM   11  C11 UNK     1      18.879   6.242  29.920  1.00  0.00     0.049 C 
HETATM   12  C12 UNK     1      17.979   6.371  33.667  1.00  0.00     0.288 A 
ENDROOT
BRANCH   7  13
HETATM   13  O2  UNK     1      18.338   0.398  32.880  1.00  0.00    -0.347 OA
BRANCH  13  14
HETATM   14  C13 UNK     1      18.253   0.154  34.283  1.00  0.00     0.202 C 
BRANCH  14  15
HETATM   15  C14 UNK     1      16.992  -0.591  34.565  1.00  0.00    -0.011 C 
HETATM   16  C15 UNK     1      15.944  -0.070  35.215  1.00  0.00     0.009 C 
ENDBRANCH  14  15
ENDBRANCH  13  14
ENDBRANCH   7  13
BRANCH   3  17
HETATM   17  C6  UNK     1      18.972   0.955  30.154  1.00  0.00     0.037 C 
HETATM   18  C10 UNK     1      18.357   1.269  28.794  1.00  0.00     0.010 C 
ENDBRANCH   3  17
TORSDOF 4
ENDMDL
MODEL 4
REMARK VINA RESULT:      -6.7      2.261      3.717
REMARK  4 active torsions:
REMARK  status: ('A' for Active; 'I' for Inactive)
REMARK    1  A    between atoms: C13_16  and  O2_2 
REMARK    2  A    between atoms: C5_8  and  O2_2 
REMARK    3  A    between atoms: C1_4  and  C6_9 
REMARK    4  A    between atoms: C13_16  and  C14_17 
ROOT
HETATM    1  O1  UNK     1      19.452   0.843  29.434  1.00  0.00    -0.275 OA
HETATM    2  O3  UNK     1      20.308  -0.719  27.999  1.00  0.00    -0.260 OA
HETATM    3  C1  UNK     1      18.296   1.994  33.274  1.00  0.00    -0.024 A 
HETATM    4  C2  UNK     1      19.211   0.285  31.800  1.00  0.00     0.005 A 
HETATM    5  C3  UNK     1      18.811   0.708  33.075  1.00  0.00     0.024 A 
HETATM    6  C4  UNK     1      19.074   1.190  30.746  1.00  0.00     0.092 A 
HETATM    7  C5  UNK     1      18.170   2.876  32.202  1.00  0.00     0.078 A 
HETATM    8  C7  UNK     1      19.760  -1.047  31.516  1.00  0.00    -0.043 A 
HETATM    9  C8  UNK     1      18.561   2.476  30.928  1.00  0.00     0.075 A 
HETATM   10  C9  UNK     1      20.111  -1.350  30.259  1.00  0.00     0.090 A 
HETATM   11  C11 UNK     1      19.921  -2.042  32.628  1.00  0.00     0.049 C 
HETATM   12  C12 UNK     1      19.973  -0.407  29.137  1.00  0.00     0.288 A 
ENDROOT
BRANCH   7  13
HETATM   13  O2  UNK     1      17.670   4.129  32.384  1.00  0.00    -0.347 OA
BRANCH  13  14
HETATM   14  C13 UNK     1      18.497   5.223  31.990  1.00  0.00     0.202 C 
BRANCH  14  15
HETATM   15  C14 UNK     1      19.211   5.742  33.194  1.00  0.00    -0.011 C 
HETATM   16  C15 UNK     1      20.219   6.620  33.145  1.00  0.00     0.009 C 
ENDBRANCH  14  15
ENDBRANCH  13  14
ENDBRANCH   7  13
BRANCH   3  17
HETATM   17  C6  UNK     1      17.881   2.405  34.648  1.00  0.00     0.037 C 
HETATM   18  C10 UNK     1      18.840   1.897  35.719  1.00  0.00     0.010 C 
ENDBRANCH   3  17
TORSDOF 4
ENDMDL
MODEL 5
REMARK VINA RESULT:      -6.6      3.925      6.628
REMARK  4 active torsions:
REMARK  status: ('A' for Active; 'I' for Inactive)
REMARK    1  A    between atoms: C13_16  and  O2_2 
REMARK    2  A    between atoms: C5_8  and  O2_2 
REMARK    3  A    between atoms: C1_4  and  C6_9 
REMARK    4  A    between atoms: C13_16  and  C14_17 
ROOT
HETATM    1  O1  UNK     1      17.179   4.489  32.188  1.00  0.00    -0.275 OA
HETATM    2  O3  UNK     1      17.446   2.652  30.851  1.00  0.00    -0.260 OA
HETATM    3  C1  UNK     1      18.584   8.122  33.682  1.00  0.00    -0.024 A 
HETATM    4  C2  UNK     1      18.932   6.191  32.241  1.00  0.00     0.005 A 
HETATM    5  C3  UNK     1      19.369   7.414  32.766  1.00  0.00     0.024 A 
HETATM    6  C4  UNK     1      17.692   5.712  32.667  1.00  0.00     0.092 A 
HETATM    7  C5  UNK     1      17.351   7.618  34.090  1.00  0.00     0.078 A 
HETATM    8  C7  UNK     1      19.700   5.394  31.277  1.00  0.00    -0.043 A 
HETATM    9  C8  UNK     1      16.897   6.405  33.582  1.00  0.00     0.075 A 
HETATM   10  C9  UNK     1      19.189   4.235  30.838  1.00  0.00     0.090 A 
HETATM   11  C11 UNK     1      21.036   5.883  30.797  1.00  0.00     0.049 C 
HETATM   12  C12 UNK     1      17.883   3.716  31.277  1.00  0.00     0.288 A 
ENDROOT
BRANCH   7  13
HETATM   13  O2  UNK     1      16.578   8.299  34.982  1.00  0.00    -0.347 OA
BRANCH  13  14
HETATM   14  C13 UNK     1      15.354   8.847  34.495  1.00  0.00     0.202 C 
BRANCH  14  15
HETATM   15  C14 UNK     1      15.206  10.234  35.024  1.00  0.00    -0.011 C 
HETATM   16  C15 UNK     1      15.962  11.268  34.634  1.00  0.00     0.009 C 
ENDBRANCH  14  15
ENDBRANCH  13  14
ENDBRANCH   7  13
BRANCH   3  17
HETATM   17  C6  UNK     1      19.088   9.422  34.219  1.00  0.00     0.037 C 
HETATM   18  C10 UNK     1      20.588   9.393  34.492  1.00  0.00     0.010 C 
ENDBRANCH   3  17
TORSDOF 4
ENDMDL
MODEL 6
REMARK VINA RESULT:      -6.5      3.567      7.188
REMARK  4 active torsions:
REMARK  status: ('A' for Active; 'I' for Inactive)
REMARK    1  A    between atoms: C13_16  and  O2_2 
REMARK    2  A    between atoms: C5_8  and  O2_2 
REMARK    3  A    between atoms: C1_4  and  C6_9 
REMARK    4  A    between atoms: C13_16  and  C14_17 
ROOT
HETATM    1  O1  UNK     1      15.912   6.773  33.044  1.00  0.00    -0.275 OA
HETATM    2  O3  UNK     1      14.431   8.041  34.241  1.00  0.00    -0.260 OA
HETATM    3  C1  UNK     1      19.804   5.976  31.771  1.00  0.00    -0.024 A 
HETATM    4  C2  UNK     1      18.281   7.369  33.063  1.00  0.00     0.005 A 
HETATM    5  C3  UNK     1      19.574   7.069  32.614  1.00  0.00     0.024 A 
HETATM    6  C4  UNK     1      17.241   6.540  32.638  1.00  0.00     0.092 A 
HETATM    7  C5  UNK     1      18.745   5.167  31.362  1.00  0.00     0.078 A 
HETATM    8  C7  UNK     1      17.964   8.497  33.947  1.00  0.00    -0.043 A 
HETATM    9  C8  UNK     1      17.454   5.447  31.797  1.00  0.00     0.075 A 
HETATM   10  C9  UNK     1      16.692   8.695  34.317  1.00  0.00     0.090 A 
HETATM   11  C11 UNK     1      19.061   9.406  34.423  1.00  0.00     0.049 C 
HETATM   12  C12 UNK     1      15.584   7.830  33.878  1.00  0.00     0.288 A 
ENDROOT
BRANCH   7  13
HETATM   13  O2  UNK     1      18.957   4.100  30.542  1.00  0.00    -0.347 OA
BRANCH  13  14
HETATM   14  C13 UNK     1      18.244   2.901  30.838  1.00  0.00     0.202 C 
BRANCH  14  15
HETATM   15  C14 UNK     1      18.577   1.877  29.805  1.00  0.00    -0.011 C 
HETATM   16  C15 UNK     1      17.892   1.713  28.667  1.00  0.00     0.009 C 
ENDBRANCH  14  15
ENDBRANCH  13  14
ENDBRANCH   7  13
BRANCH   3  17
HETATM   17  C6  UNK     1      21.197   5.692  31.314  1.00  0.00     0.037 C 
HETATM   18  C10 UNK     1      22.234   6.006  32.386  1.00  0.00     0.010 C 
ENDBRANCH   3  17
TORSDOF 4
ENDMDL
MODEL 7
REMARK VINA RESULT:      -6.5     12.753     15.249
REMARK  4 active torsions:
REMARK  status: ('A' for Active; 'I' for Inactive)
REMARK    1  A    between atoms: C13_16  and  O2_2 
REMARK    2  A    between atoms: C5_8  and  O2_2 
REMARK    3  A    between atoms: C1_4  and  C6_9 
REMARK    4  A    between atoms: C13_16  and  C14_17 
ROOT
HETATM    1  O1  UNK     1      27.928  -4.871  38.411  1.00  0.00    -0.275 OA
HETATM    2  O3  UNK     1      25.699  -5.108  38.869  1.00  0.00    -0.260 OA
HETATM    3  C1  UNK     1      31.734  -6.519  37.957  1.00  0.00    -0.024 A 
HETATM    4  C2  UNK     1      29.372  -6.840  38.458  1.00  0.00     0.005 A 
HETATM    5  C3  UNK     1      30.665  -7.357  38.297  1.00  0.00     0.024 A 
HETATM    6  C4  UNK     1      29.196  -5.469  38.268  1.00  0.00     0.092 A 
HETATM    7  C5  UNK     1      31.527  -5.153  37.775  1.00  0.00     0.078 A 
HETATM    8  C7  UNK     1      28.205  -7.657  38.812  1.00  0.00    -0.043 A 
HETATM    9  C8  UNK     1      30.251  -4.620  37.930  1.00  0.00     0.075 A 
HETATM   10  C9  UNK     1      27.011  -7.062  38.942  1.00  0.00     0.090 A 
HETATM   11  C11 UNK     1      28.362  -9.136  39.021  1.00  0.00     0.049 C 
HETATM   12  C12 UNK     1      26.809  -5.617  38.744  1.00  0.00     0.288 A 
ENDROOT
BRANCH   7  13
HETATM   13  O2  UNK     1      32.559  -4.328  37.444  1.00  0.00    -0.347 OA
BRANCH  13  14
HETATM   14  C13 UNK     1      32.439  -3.593  36.228  1.00  0.00     0.202 C 
BRANCH  14  15
HETATM   15  C14 UNK     1      33.144  -4.339  35.144  1.00  0.00    -0.011 C 
HETATM   16  C15 UNK     1      34.445  -4.647  35.173  1.00  0.00     0.009 C 
ENDBRANCH  14  15
ENDBRANCH  13  14
ENDBRANCH   7  13
BRANCH   3  17
HETATM   17  C6  UNK     1      33.096  -7.109  37.796  1.00  0.00     0.037 C 
HETATM   18  C10 UNK     1      33.173  -8.077  36.621  1.00  0.00     0.010 C 
ENDBRANCH   3  17
TORSDOF 4
ENDMDL
MODEL 8
REMARK VINA RESULT:      -6.4      2.299      6.366
REMARK  4 active torsions:
REMARK  status: ('A' for Active; 'I' for Inactive)
REMARK    1  A    between atoms: C13_16  and  O2_2 
REMARK    2  A    between atoms: C5_8  and  O2_2 
REMARK    3  A    between atoms: C1_4  and  C6_9 
REMARK    4  A    between atoms: C13_16  and  C14_17 
ROOT
HETATM    1  O1  UNK     1      18.814   0.448  31.137  1.00  0.00    -0.275 OA
HETATM    2  O3  UNK     1      18.983   1.320  29.029  1.00  0.00    -0.260 OA
HETATM    3  C1  UNK     1      18.187   0.953  35.231  1.00  0.00    -0.024 A 
HETATM    4  C2  UNK     1      18.358   1.945  33.013  1.00  0.00     0.005 A 
HETATM    5  C3  UNK     1      18.152   2.074  34.394  1.00  0.00     0.024 A 
HETATM    6  C4  UNK     1      18.597   0.664  32.513  1.00  0.00     0.092 A 
HETATM    7  C5  UNK     1      18.429  -0.314  34.702  1.00  0.00     0.078 A 
HETATM    8  C7  UNK     1      18.336   3.074  32.075  1.00  0.00    -0.043 A 
HETATM    9  C8  UNK     1      18.636  -0.464  33.334  1.00  0.00     0.075 A 
HETATM   10  C9  UNK     1      18.545   2.840  30.773  1.00  0.00     0.090 A 
HETATM   11  C11 UNK     1      18.078   4.463  32.583  1.00  0.00     0.049 C 
HETATM   12  C12 UNK     1      18.798   1.496  30.229  1.00  0.00     0.288 A 
ENDROOT
BRANCH   7  13
HETATM   13  O2  UNK     1      18.465  -1.412  35.507  1.00  0.00    -0.347 OA
BRANCH  13  14
HETATM   14  C13 UNK     1      19.731  -2.045  35.686  1.00  0.00     0.202 C 
BRANCH  14  15
HETATM   15  C14 UNK     1      19.765  -2.676  37.038  1.00  0.00    -0.011 C 
HETATM   16  C15 UNK     1      20.441  -3.795  37.324  1.00  0.00     0.009 C 
ENDBRANCH  14  15
ENDBRANCH  13  14
ENDBRANCH   7  13
BRANCH   3  17
HETATM   17  C6  UNK     1      17.964   1.133  36.696  1.00  0.00     0.037 C 
HETATM   18  C10 UNK     1      16.484   1.126  37.062  1.00  0.00     0.010 C 
ENDBRANCH   3  17
TORSDOF 4
ENDMDL
MODEL 9
REMARK VINA RESULT:      -6.3     22.830     24.780
REMARK  4 active torsions:
REMARK  status: ('A' for Active; 'I' for Inactive)
REMARK    1  A    between atoms: C13_16  and  O2_2 
REMARK    2  A    between atoms: C5_8  and  O2_2 
REMARK    3  A    between atoms: C1_4  and  C6_9 
REMARK    4  A    between atoms: C13_16  and  C14_17 
ROOT
HETATM    1  O1  UNK     1      13.930   5.024   9.376  1.00  0.00    -0.275 OA
HETATM    2  O3  UNK     1      15.927   3.960   9.714  1.00  0.00    -0.260 OA
HETATM    3  C1  UNK     1      11.586   8.473   9.527  1.00  0.00    -0.024 A 
HETATM    4  C2  UNK     1      13.738   7.400   9.914  1.00  0.00     0.005 A 
HETATM    5  C3  UNK     1      12.919   8.537   9.949  1.00  0.00     0.024 A 
HETATM    6  C4  UNK     1      13.175   6.212   9.444  1.00  0.00     0.092 A 
HETATM    7  C5  UNK     1      11.051   7.272   9.064  1.00  0.00     0.078 A 
HETATM    8  C7  UNK     1      15.143   7.391  10.339  1.00  0.00    -0.043 A 
HETATM    9  C8  UNK     1      11.847   6.132   9.021  1.00  0.00     0.075 A 
HETATM   10  C9  UNK     1      15.838   6.248  10.264  1.00  0.00     0.090 A 
HETATM   11  C11 UNK     1      15.779   8.653  10.846  1.00  0.00     0.049 C 
HETATM   12  C12 UNK     1      15.258   4.987   9.771  1.00  0.00     0.288 A 
ENDROOT
BRANCH   7  13
HETATM   13  O2  UNK     1       9.756   7.198   8.651  1.00  0.00    -0.347 OA
BRANCH  13  14
HETATM   14  C13 UNK     1       9.346   5.992   8.009  1.00  0.00     0.202 C 
BRANCH  14  15
HETATM   15  C14 UNK     1       9.110   6.274   6.563  1.00  0.00    -0.011 C 
HETATM   16  C15 UNK     1      10.048   6.161   5.615  1.00  0.00     0.009 C 
ENDBRANCH  14  15
ENDBRANCH  13  14
ENDBRANCH   7  13
BRANCH   3  17
HETATM   17  C6  UNK     1      10.747   9.707   9.583  1.00  0.00     0.037 C 
HETATM   18  C10 UNK     1      11.104  10.597  10.768  1.00  0.00     0.010 C 
ENDBRANCH   3  17
TORSDOF 4
ENDMDL
MODEL 10
REMARK VINA RESULT:      -6.3      1.849      6.194
REMARK  4 active torsions:
REMARK  status: ('A' for Active; 'I' for Inactive)
REMARK    1  A    between atoms: C13_16  and  O2_2 
REMARK    2  A    between atoms: C5_8  and  O2_2 
REMARK    3  A    between atoms: C1_4  and  C6_9 
REMARK    4  A    between atoms: C13_16  and  C14_17 
ROOT
HETATM    1  O1  UNK     1      19.075   4.170  30.111  1.00  0.00    -0.275 OA
HETATM    2  O3  UNK     1      19.204   6.322  29.346  1.00  0.00    -0.260 OA
HETATM    3  C1  UNK     1      18.277   1.451  33.173  1.00  0.00    -0.024 A 
HETATM    4  C2  UNK     1      18.397   3.765  32.423  1.00  0.00     0.005 A 
HETATM    5  C3  UNK     1      18.138   2.820  33.425  1.00  0.00     0.024 A 
HETATM    6  C4  UNK     1      18.796   3.287  31.173  1.00  0.00     0.092 A 
HETATM    7  C5  UNK     1      18.678   1.004  31.915  1.00  0.00     0.078 A 
HETATM    8  C7  UNK     1      18.272   5.215  32.614  1.00  0.00    -0.043 A 
HETATM    9  C8  UNK     1      18.940   1.925  30.906  1.00  0.00     0.075 A 
HETATM   10  C9  UNK     1      18.544   6.031  31.587  1.00  0.00     0.090 A 
HETATM   11  C11 UNK     1      17.843   5.759  33.946  1.00  0.00     0.049 C 
HETATM   12  C12 UNK     1      18.966   5.544  30.264  1.00  0.00     0.288 A 
ENDROOT
BRANCH   7  13
HETATM   13  O2  UNK     1      18.816  -0.326  31.658  1.00  0.00    -0.347 OA
BRANCH  13  14
HETATM   14  C13 UNK     1      20.142  -0.816  31.465  1.00  0.00     0.202 C 
BRANCH  14  15
HETATM   15  C14 UNK     1      20.231  -1.439  30.112  1.00  0.00    -0.011 C 
HETATM   16  C15 UNK     1      20.651  -0.794  29.017  1.00  0.00     0.009 C 
ENDBRANCH  14  15
ENDBRANCH  13  14
ENDBRANCH   7  13
BRANCH   3  17
HETATM   17  C6  UNK     1      17.992   0.478  34.269  1.00  0.00     0.037 C 
HETATM   18  C10 UNK     1      18.602   0.909  35.599  1.00  0.00     0.010 C 
ENDBRANCH   3  17
TORSDOF 4
ENDMDL
