MODEL 1
REMARK VINA RESULT:      -9.4      0.000      0.000
REMARK  6 active torsions:
REMARK  status: ('A' for Active; 'I' for Inactive)
REMARK    1  A    between atoms: C21_29  and  O1_2 
REMARK    2  A    between atoms: C9_17  and  O1_2 
REMARK    3  A    between atoms: C15_23  and  O3_4 
REMARK       I    between atoms: C11_19  and  N1_8 
REMARK    4  A    between atoms: C4_12  and  N1_8 
REMARK    5  A    between atoms: C2_10  and  C9_17 
REMARK    6  A    between atoms: C10_18  and  C11_19 
ROOT
HETATM    1  S1  UNK     1      19.589   8.310  34.116  1.00  0.00    -0.075 SA
HETATM    2  C1  UNK     1      18.670   6.680  32.357  1.00  0.00     0.006 A 
HETATM    3  C2  UNK     1      17.648   7.649  32.570  1.00  0.00     0.085 A 
HETATM    4  C3  UNK     1      19.781   6.920  33.135  1.00  0.00    -0.007 A 
HETATM    5  C4  UNK     1      18.030   8.570  33.491  1.00  0.00     0.094 A 
HETATM    6  C5  UNK     1      18.627   5.554  31.457  1.00  0.00    -0.024 A 
HETATM    7  C6  UNK     1      21.053   6.164  33.220  1.00  0.00     0.057 C 
HETATM    8  C7  UNK     1      18.140   4.330  31.904  1.00  0.00     0.015 A 
HETATM    9  C8  UNK     1      19.072   5.699  30.146  1.00  0.00     0.015 A 
HETATM   10  C12 UNK     1      18.098   3.241  31.033  1.00  0.00     0.037 A 
HETATM   11  C13 UNK     1      19.029   4.611  29.275  1.00  0.00     0.037 A 
HETATM   12  C15 UNK     1      18.542   3.381  29.718  1.00  0.00     0.068 A 
ENDROOT
BRANCH   5  13
HETATM   13  N1  UNK     1      17.352   9.683  33.998  1.00  0.00    -0.316 N 
HETATM   14  C11 UNK     1      17.782  11.000  33.940  1.00  0.00     0.262 C 
HETATM   15  O5  UNK     1      18.817  11.448  33.448  1.00  0.00    -0.267 OA
HETATM   16  H1  UNK     1      16.455   9.467  34.424  1.00  0.00     0.169 HD
BRANCH  14  17
HETATM   17  C10 UNK     1      16.826  11.917  34.571  1.00  0.00     0.108 A 
HETATM   18  C16 UNK     1      15.569  11.472  34.686  1.00  0.00     0.037 A 
HETATM   19  C14 UNK     1      14.548  12.309  35.299  1.00  0.00    -0.001 A 
HETATM   20  C17 UNK     1      14.902  13.573  35.758  1.00  0.00     0.089 A 
HETATM   21  C19 UNK     1      13.224  11.885  35.440  1.00  0.00     0.014 A 
HETATM   22  O2  UNK     1      16.226  14.037  35.634  1.00  0.00    -0.274 OA
HETATM   23  C20 UNK     1      13.971  14.424  36.353  1.00  0.00     0.038 A 
HETATM   24  C18 UNK     1      17.224  13.259  35.053  1.00  0.00     0.304 A 
HETATM   25  O6  UNK     1      18.375  13.670  34.948  1.00  0.00    -0.259 OA
HETATM   26  C23 UNK     1      12.654  13.994  36.490  1.00  0.00     0.003 A 
HETATM   27  C22 UNK     1      12.280  12.728  36.035  1.00  0.00     0.001 A 
ENDBRANCH  14  17
ENDBRANCH   5  13
BRANCH   3  28
HETATM   28  C9  UNK     1      16.365   7.676  31.910  1.00  0.00     0.297 C 
HETATM   29  O4  UNK     1      16.095   8.419  30.955  1.00  0.00    -0.259 OA
BRANCH  28  30
HETATM   30  O1  UNK     1      15.448   6.793  32.436  1.00  0.00    -0.318 OA
BRANCH  30  31
HETATM   31  C21 UNK     1      14.125   7.294  32.662  1.00  0.00     0.174 C 
HETATM   32  C24 UNK     1      14.154   8.252  33.834  1.00  0.00     0.034 C 
ENDBRANCH  30  31
ENDBRANCH  28  30
ENDBRANCH   3  28
BRANCH  12  33
HETATM   33  O3  UNK     1      18.503   2.318  28.869  1.00  0.00    -0.356 OA
HETATM   34  C25 UNK     1      19.050   1.089  29.343  1.00  0.00     0.210 C 
ENDBRANCH  12  33
TORSDOF 6
ENDMDL
MODEL 2
REMARK VINA RESULT:      -9.3      1.206      1.744
REMARK  6 active torsions:
REMARK  status: ('A' for Active; 'I' for Inactive)
REMARK    1  A    between atoms: C21_29  and  O1_2 
REMARK    2  A    between atoms: C9_17  and  O1_2 
REMARK    3  A    between atoms: C15_23  and  O3_4 
REMARK       I    between atoms: C11_19  and  N1_8 
REMARK    4  A    between atoms: C4_12  and  N1_8 
REMARK    5  A    between atoms: C2_10  and  C9_17 
REMARK    6  A    between atoms: C10_18  and  C11_19 
ROOT
HETATM    1  S1  UNK     1      19.379   8.397  34.183  1.00  0.00    -0.075 SA
HETATM    2  C1  UNK     1      18.580   6.714  32.415  1.00  0.00     0.006 A 
HETATM    3  C2  UNK     1      17.557   7.701  32.512  1.00  0.00     0.085 A 
HETATM    4  C3  UNK     1      19.629   6.970  33.270  1.00  0.00    -0.007 A 
HETATM    5  C4  UNK     1      17.878   8.651  33.427  1.00  0.00     0.094 A 
HETATM    6  C5  UNK     1      18.592   5.555  31.556  1.00  0.00    -0.024 A 
HETATM    7  C6  UNK     1      20.880   6.204  33.483  1.00  0.00     0.057 C 
HETATM    8  C7  UNK     1      18.055   4.354  32.006  1.00  0.00     0.015 A 
HETATM    9  C8  UNK     1      19.141   5.648  30.280  1.00  0.00     0.015 A 
HETATM   10  C12 UNK     1      18.067   3.234  31.175  1.00  0.00     0.037 A 
HETATM   11  C13 UNK     1      19.152   4.529  29.448  1.00  0.00     0.037 A 
HETATM   12  C15 UNK     1      18.616   3.321  29.895  1.00  0.00     0.068 A 
ENDROOT
BRANCH   5  13
HETATM   13  N1  UNK     1      17.177   9.789  33.839  1.00  0.00    -0.316 N 
HETATM   14  C11 UNK     1      17.671  11.084  33.878  1.00  0.00     0.262 C 
HETATM   15  O5  UNK     1      18.791  11.488  33.570  1.00  0.00    -0.267 OA
HETATM   16  H1  UNK     1      16.213   9.611  34.108  1.00  0.00     0.169 HD
BRANCH  14  17
HETATM   17  C10 UNK     1      16.667  12.038  34.362  1.00  0.00     0.108 A 
HETATM   18  C16 UNK     1      16.788  13.298  33.927  1.00  0.00     0.037 A 
HETATM   19  C14 UNK     1      15.840  14.316  34.351  1.00  0.00    -0.001 A 
HETATM   20  C17 UNK     1      14.810  13.957  35.215  1.00  0.00     0.089 A 
HETATM   21  C19 UNK     1      15.929  15.642  33.921  1.00  0.00     0.014 A 
HETATM   22  O2  UNK     1      14.687  12.630  35.671  1.00  0.00    -0.274 OA
HETATM   23  C20 UNK     1      13.869  14.885  35.660  1.00  0.00     0.038 A 
HETATM   24  C18 UNK     1      15.578  11.635  35.281  1.00  0.00     0.304 A 
HETATM   25  O6  UNK     1      15.464  10.482  35.683  1.00  0.00    -0.259 OA
HETATM   26  C23 UNK     1      13.965  16.205  35.227  1.00  0.00     0.003 A 
HETATM   27  C22 UNK     1      14.992  16.584  34.359  1.00  0.00     0.001 A 
ENDBRANCH  14  17
ENDBRANCH   5  13
BRANCH   3  28
HETATM   28  C9  UNK     1      16.331   7.717  31.752  1.00  0.00     0.297 C 
HETATM   29  O4  UNK     1      16.081   8.543  30.862  1.00  0.00    -0.259 OA
BRANCH  28  30
HETATM   30  O1  UNK     1      15.444   6.723  32.102  1.00  0.00    -0.318 OA
BRANCH  30  31
HETATM   31  C21 UNK     1      14.118   7.135  32.455  1.00  0.00     0.174 C 
HETATM   32  C24 UNK     1      14.148   7.769  33.829  1.00  0.00     0.034 C 
ENDBRANCH  30  31
ENDBRANCH  28  30
ENDBRANCH   3  28
BRANCH  12  33
HETATM   33  O3  UNK     1      18.629   2.229  29.083  1.00  0.00    -0.356 OA
HETATM   34  C25 UNK     1      19.318   1.075  29.561  1.00  0.00     0.210 C 
ENDBRANCH  12  33
TORSDOF 6
ENDMDL
MODEL 3
REMARK VINA RESULT:      -9.1     16.317     22.155
REMARK  6 active torsions:
REMARK  status: ('A' for Active; 'I' for Inactive)
REMARK    1  A    between atoms: C21_29  and  O1_2 
REMARK    2  A    between atoms: C9_17  and  O1_2 
REMARK    3  A    between atoms: C15_23  and  O3_4 
REMARK       I    between atoms: C11_19  and  N1_8 
REMARK    4  A    between atoms: C4_12  and  N1_8 
REMARK    5  A    between atoms: C2_10  and  C9_17 
REMARK    6  A    between atoms: C10_18  and  C11_19 
ROOT
HETATM    1  S1  UNK     1      19.080  -2.221  12.302  1.00  0.00    -0.075 SA
HETATM    2  C1  UNK     1      19.843  -4.660  12.558  1.00  0.00     0.006 A 
HETATM    3  C2  UNK     1      20.005  -4.059  13.839  1.00  0.00     0.085 A 
HETATM    4  C3  UNK     1      19.348  -3.772  11.628  1.00  0.00    -0.007 A 
HETATM    5  C4  UNK     1      19.627  -2.755  13.820  1.00  0.00     0.094 A 
HETATM    6  C5  UNK     1      20.139  -6.024  12.194  1.00  0.00    -0.024 A 
HETATM    7  C6  UNK     1      19.037  -3.985  10.195  1.00  0.00     0.057 C 
HETATM    8  C7  UNK     1      21.407  -6.356  11.727  1.00  0.00     0.015 A 
HETATM    9  C8  UNK     1      19.154  -7.001  12.313  1.00  0.00     0.015 A 
HETATM   10  C12 UNK     1      21.692  -7.675  11.374  1.00  0.00     0.037 A 
HETATM   11  C13 UNK     1      19.440  -8.319  11.962  1.00  0.00     0.037 A 
HETATM   12  C15 UNK     1      20.709  -8.657  11.492  1.00  0.00     0.068 A 
ENDROOT
BRANCH   5  13
HETATM   13  N1  UNK     1      19.618  -1.797  14.839  1.00  0.00    -0.316 N 
HETATM   14  C11 UNK     1      18.636  -1.641  15.807  1.00  0.00     0.262 C 
HETATM   15  O5  UNK     1      17.604  -2.291  15.964  1.00  0.00    -0.267 OA
HETATM   16  H1  UNK     1      20.433  -1.190  14.848  1.00  0.00     0.169 HD
BRANCH  14  17
HETATM   17  C10 UNK     1      18.942  -0.536  16.722  1.00  0.00     0.108 A 
HETATM   18  C16 UNK     1      18.925  -0.828  18.028  1.00  0.00     0.037 A 
HETATM   19  C14 UNK     1      19.215   0.201  19.014  1.00  0.00    -0.001 A 
HETATM   20  C17 UNK     1      19.508   1.489  18.575  1.00  0.00     0.089 A 
HETATM   21  C19 UNK     1      19.208  -0.059  20.386  1.00  0.00     0.014 A 
HETATM   22  O2  UNK     1      19.524   1.791  17.200  1.00  0.00    -0.274 OA
HETATM   23  C20 UNK     1      19.794   2.520  19.468  1.00  0.00     0.038 A 
HETATM   24  C18 UNK     1      19.251   0.826  16.233  1.00  0.00     0.304 A 
HETATM   25  O6  UNK     1      19.266   1.098  15.038  1.00  0.00    -0.259 OA
HETATM   26  C23 UNK     1      19.786   2.253  20.835  1.00  0.00     0.003 A 
HETATM   27  C22 UNK     1      19.494   0.966  21.294  1.00  0.00     0.001 A 
ENDBRANCH  14  17
ENDBRANCH   5  13
BRANCH   3  28
HETATM   28  C9  UNK     1      20.501  -4.721  15.021  1.00  0.00     0.297 C 
HETATM   29  O4  UNK     1      21.689  -5.033  15.191  1.00  0.00    -0.259 OA
BRANCH  28  30
HETATM   30  O1  UNK     1      19.531  -4.983  15.963  1.00  0.00    -0.318 OA
BRANCH  30  31
HETATM   31  C21 UNK     1      18.730  -6.152  15.757  1.00  0.00     0.174 C 
HETATM   32  C24 UNK     1      17.268  -5.769  15.838  1.00  0.00     0.034 C 
ENDBRANCH  30  31
ENDBRANCH  28  30
ENDBRANCH   3  28
BRANCH  12  33
HETATM   33  O3  UNK     1      20.987  -9.944  11.147  1.00  0.00    -0.356 OA
HETATM   34  C25 UNK     1      22.315 -10.407  11.386  1.00  0.00     0.210 C 
ENDBRANCH  12  33
TORSDOF 6
ENDMDL
MODEL 4
REMARK VINA RESULT:      -9.1     17.625     20.477
REMARK  6 active torsions:
REMARK  status: ('A' for Active; 'I' for Inactive)
REMARK    1  A    between atoms: C21_29  and  O1_2 
REMARK    2  A    between atoms: C9_17  and  O1_2 
REMARK    3  A    between atoms: C15_23  and  O3_4 
REMARK       I    between atoms: C11_19  and  N1_8 
REMARK    4  A    between atoms: C4_12  and  N1_8 
REMARK    5  A    between atoms: C2_10  and  C9_17 
REMARK    6  A    between atoms: C10_18  and  C11_19 
ROOT
HETATM    1  S1  UNK     1      27.740  -9.339  36.195  1.00  0.00    -0.075 SA
HETATM    2  C1  UNK     1      29.795  -7.921  36.798  1.00  0.00     0.006 A 
HETATM    3  C2  UNK     1      28.682  -7.289  37.422  1.00  0.00     0.085 A 
HETATM    4  C3  UNK     1      29.425  -9.048  36.097  1.00  0.00    -0.007 A 
HETATM    5  C4  UNK     1      27.530  -7.962  37.168  1.00  0.00     0.094 A 
HETATM    6  C5  UNK     1      31.173  -7.497  36.841  1.00  0.00    -0.024 A 
HETATM    7  C6  UNK     1      30.261  -9.986  35.312  1.00  0.00     0.057 C 
HETATM    8  C7  UNK     1      31.659  -6.623  35.874  1.00  0.00     0.015 A 
HETATM    9  C8  UNK     1      32.008  -7.965  37.852  1.00  0.00     0.015 A 
HETATM   10  C12 UNK     1      32.991  -6.213  35.917  1.00  0.00     0.037 A 
HETATM   11  C13 UNK     1      33.340  -7.555  37.896  1.00  0.00     0.037 A 
HETATM   12  C15 UNK     1      33.833  -6.679  36.928  1.00  0.00     0.068 A 
ENDROOT
BRANCH   5  13
HETATM   13  N1  UNK     1      26.218  -7.702  37.576  1.00  0.00    -0.316 N 
HETATM   14  C11 UNK     1      25.616  -8.161  38.739  1.00  0.00     0.262 C 
HETATM   15  O5  UNK     1      26.096  -8.870  39.622  1.00  0.00    -0.267 OA
HETATM   16  H1  UNK     1      25.696  -7.102  36.944  1.00  0.00     0.169 HD
BRANCH  14  17
HETATM   17  C10 UNK     1      24.228  -7.701  38.855  1.00  0.00     0.108 A 
HETATM   18  C16 UNK     1      23.287  -8.652  38.850  1.00  0.00     0.037 A 
HETATM   19  C14 UNK     1      21.881  -8.294  38.961  1.00  0.00    -0.001 A 
HETATM   20  C17 UNK     1      21.536  -6.951  39.070  1.00  0.00     0.089 A 
HETATM   21  C19 UNK     1      20.866  -9.254  38.960  1.00  0.00     0.014 A 
HETATM   22  O2  UNK     1      22.531  -5.954  39.074  1.00  0.00    -0.274 OA
HETATM   23  C20 UNK     1      20.208  -6.542  39.179  1.00  0.00     0.038 A 
HETATM   24  C18 UNK     1      23.883  -6.266  38.970  1.00  0.00     0.304 A 
HETATM   25  O6  UNK     1      24.743  -5.391  38.974  1.00  0.00    -0.259 OA
HETATM   26  C23 UNK     1      19.202  -7.504  39.177  1.00  0.00     0.003 A 
HETATM   27  C22 UNK     1      19.529  -8.858  39.069  1.00  0.00     0.001 A 
ENDBRANCH  14  17
ENDBRANCH   5  13
BRANCH   3  28
HETATM   28  C9  UNK     1      28.737  -6.091  38.226  1.00  0.00     0.297 C 
HETATM   29  O4  UNK     1      28.432  -6.051  39.426  1.00  0.00    -0.259 OA
BRANCH  28  30
HETATM   30  O1  UNK     1      29.165  -4.977  37.538  1.00  0.00    -0.318 OA
BRANCH  30  31
HETATM   31  C21 UNK     1      30.006  -4.062  38.249  1.00  0.00     0.174 C 
HETATM   32  C24 UNK     1      30.951  -3.399  37.271  1.00  0.00     0.034 C 
ENDBRANCH  30  31
ENDBRANCH  28  30
ENDBRANCH   3  28
BRANCH  12  33
HETATM   33  O3  UNK     1      35.134  -6.281  36.970  1.00  0.00    -0.356 OA
HETATM   34  C25 UNK     1      35.731  -5.888  35.735  1.00  0.00     0.210 C 
ENDBRANCH  12  33
TORSDOF 6
ENDMDL
MODEL 5
REMARK VINA RESULT:      -8.9      6.961     11.030
REMARK  6 active torsions:
REMARK  status: ('A' for Active; 'I' for Inactive)
REMARK    1  A    between atoms: C21_29  and  O1_2 
REMARK    2  A    between atoms: C9_17  and  O1_2 
REMARK    3  A    between atoms: C15_23  and  O3_4 
REMARK       I    between atoms: C11_19  and  N1_8 
REMARK    4  A    between atoms: C4_12  and  N1_8 
REMARK    5  A    between atoms: C2_10  and  C9_17 
REMARK    6  A    between atoms: C10_18  and  C11_19 
ROOT
HETATM    1  S1  UNK     1      18.281  -0.036  36.621  1.00  0.00    -0.075 SA
HETATM    2  C1  UNK     1      19.248  -2.398  36.339  1.00  0.00     0.006 A 
HETATM    3  C2  UNK     1      19.443  -1.740  35.091  1.00  0.00     0.085 A 
HETATM    4  C3  UNK     1      18.626  -1.586  37.261  1.00  0.00    -0.007 A 
HETATM    5  C4  UNK     1      18.964  -0.470  35.127  1.00  0.00     0.094 A 
HETATM    6  C5  UNK     1      19.625  -3.749  36.677  1.00  0.00    -0.024 A 
HETATM    7  C6  UNK     1      18.241  -1.875  38.663  1.00  0.00     0.057 C 
HETATM    8  C7  UNK     1      18.729  -4.791  36.462  1.00  0.00     0.015 A 
HETATM    9  C8  UNK     1      20.883  -4.001  37.217  1.00  0.00     0.015 A 
HETATM   10  C12 UNK     1      19.093  -6.097  36.790  1.00  0.00     0.037 A 
HETATM   11  C13 UNK     1      21.248  -5.307  37.543  1.00  0.00     0.037 A 
HETATM   12  C15 UNK     1      20.353  -6.355  37.330  1.00  0.00     0.068 A 
ENDROOT
BRANCH   5  13
HETATM   13  N1  UNK     1      18.946   0.522  34.142  1.00  0.00    -0.316 N 
HETATM   14  C11 UNK     1      17.820   1.171  33.654  1.00  0.00     0.262 C 
HETATM   15  O5  UNK     1      16.644   1.012  33.976  1.00  0.00    -0.267 OA
HETATM   16  H1  UNK     1      19.864   0.777  33.789  1.00  0.00     0.169 HD
BRANCH  14  17
HETATM   17  C10 UNK     1      18.161   2.157  32.622  1.00  0.00     0.108 A 
HETATM   18  C16 UNK     1      18.099   3.442  32.989  1.00  0.00     0.037 A 
HETATM   19  C14 UNK     1      18.419   4.494  32.036  1.00  0.00    -0.001 A 
HETATM   20  C17 UNK     1      18.788   4.139  30.743  1.00  0.00     0.089 A 
HETATM   21  C19 UNK     1      18.367   5.848  32.376  1.00  0.00     0.014 A 
HETATM   22  O2  UNK     1      18.852   2.785  30.361  1.00  0.00    -0.274 OA
HETATM   23  C20 UNK     1      19.106   5.098  29.782  1.00  0.00     0.038 A 
HETATM   24  C18 UNK     1      18.552   1.757  31.251  1.00  0.00     0.304 A 
HETATM   25  O6  UNK     1      18.609   0.580  30.911  1.00  0.00    -0.259 OA
HETATM   26  C23 UNK     1      19.053   6.445  30.129  1.00  0.00     0.003 A 
HETATM   27  C22 UNK     1      18.684   6.821  31.423  1.00  0.00     0.001 A 
ENDBRANCH  14  17
ENDBRANCH   5  13
BRANCH   3  28
HETATM   28  C9  UNK     1      20.064  -2.317  33.924  1.00  0.00     0.297 C 
HETATM   29  O4  UNK     1      20.792  -3.320  33.954  1.00  0.00    -0.259 OA
BRANCH  28  30
HETATM   30  O1  UNK     1      19.779  -1.651  32.752  1.00  0.00    -0.318 OA
BRANCH  30  31
HETATM   31  C21 UNK     1      20.813  -1.614  31.762  1.00  0.00     0.174 C 
HETATM   32  C24 UNK     1      20.333  -2.337  30.521  1.00  0.00     0.034 C 
ENDBRANCH  30  31
ENDBRANCH  28  30
ENDBRANCH   3  28
BRANCH  12  33
HETATM   33  O3  UNK     1      20.709  -7.629  37.651  1.00  0.00    -0.356 OA
HETATM   34  C25 UNK     1      21.963  -8.096  37.155  1.00  0.00     0.210 C 
ENDBRANCH  12  33
TORSDOF 6
ENDMDL
MODEL 6
REMARK VINA RESULT:      -8.9     17.253     20.451
REMARK  6 active torsions:
REMARK  status: ('A' for Active; 'I' for Inactive)
REMARK    1  A    between atoms: C21_29  and  O1_2 
REMARK    2  A    between atoms: C9_17  and  O1_2 
REMARK    3  A    between atoms: C15_23  and  O3_4 
REMARK       I    between atoms: C11_19  and  N1_8 
REMARK    4  A    between atoms: C4_12  and  N1_8 
REMARK    5  A    between atoms: C2_10  and  C9_17 
REMARK    6  A    between atoms: C10_18  and  C11_19 
ROOT
HETATM    1  S1  UNK     1      26.775 -10.038  39.666  1.00  0.00    -0.075 SA
HETATM    2  C1  UNK     1      28.692  -8.863  38.424  1.00  0.00     0.006 A 
HETATM    3  C2  UNK     1      27.491  -8.245  37.972  1.00  0.00     0.085 A 
HETATM    4  C3  UNK     1      28.448  -9.855  39.348  1.00  0.00    -0.007 A 
HETATM    5  C4  UNK     1      26.403  -8.794  38.570  1.00  0.00     0.094 A 
HETATM    6  C5  UNK     1      30.039  -8.549  38.015  1.00  0.00    -0.024 A 
HETATM    7  C6  UNK     1      29.404 -10.735  40.061  1.00  0.00     0.057 C 
HETATM    8  C7  UNK     1      30.603  -9.209  36.927  1.00  0.00     0.015 A 
HETATM    9  C8  UNK     1      30.766  -7.587  38.710  1.00  0.00     0.015 A 
HETATM   10  C12 UNK     1      31.905  -8.906  36.532  1.00  0.00     0.037 A 
HETATM   11  C13 UNK     1      32.068  -7.283  38.314  1.00  0.00     0.037 A 
HETATM   12  C15 UNK     1      32.638  -7.942  37.225  1.00  0.00     0.068 A 
ENDROOT
BRANCH   5  13
HETATM   13  N1  UNK     1      25.043  -8.500  38.427  1.00  0.00    -0.316 N 
HETATM   14  C11 UNK     1      24.183  -9.042  37.483  1.00  0.00     0.262 C 
HETATM   15  O5  UNK     1      24.430  -9.867  36.605  1.00  0.00    -0.267 OA
HETATM   16  H1  UNK     1      24.685  -7.837  39.109  1.00  0.00     0.169 HD
BRANCH  14  17
HETATM   17  C10 UNK     1      22.822  -8.512  37.615  1.00  0.00     0.108 A 
HETATM   18  C16 UNK     1      22.143  -8.333  36.475  1.00  0.00     0.037 A 
HETATM   19  C14 UNK     1      20.785  -7.812  36.502  1.00  0.00    -0.001 A 
HETATM   20  C17 UNK     1      20.209  -7.503  37.730  1.00  0.00     0.089 A 
HETATM   21  C19 UNK     1      20.041  -7.611  35.338  1.00  0.00     0.014 A 
HETATM   22  O2  UNK     1      20.928  -7.692  38.927  1.00  0.00    -0.274 OA
HETATM   23  C20 UNK     1      18.913  -6.999  37.826  1.00  0.00     0.038 A 
HETATM   24  C18 UNK     1      22.227  -8.189  38.932  1.00  0.00     0.304 A 
HETATM   25  O6  UNK     1      22.846  -8.350  39.978  1.00  0.00    -0.259 OA
HETATM   26  C23 UNK     1      18.177  -6.801  36.660  1.00  0.00     0.003 A 
HETATM   27  C22 UNK     1      18.739  -7.107  35.418  1.00  0.00     0.001 A 
ENDBRANCH  14  17
ENDBRANCH   5  13
BRANCH   3  28
HETATM   28  C9  UNK     1      27.408  -7.176  37.007  1.00  0.00     0.297 C 
HETATM   29  O4  UNK     1      27.690  -7.305  35.807  1.00  0.00    -0.259 OA
BRANCH  28  30
HETATM   30  O1  UNK     1      26.982  -5.978  37.537  1.00  0.00    -0.318 OA
BRANCH  30  31
HETATM   31  C21 UNK     1      27.626  -5.538  38.737  1.00  0.00     0.174 C 
HETATM   32  C24 UNK     1      28.793  -4.645  38.373  1.00  0.00     0.034 C 
ENDBRANCH  30  31
ENDBRANCH  28  30
ENDBRANCH   3  28
BRANCH  12  33
HETATM   33  O3  UNK     1      33.910  -7.646  36.840  1.00  0.00    -0.356 OA
HETATM   34  C25 UNK     1      34.406  -6.352  37.180  1.00  0.00     0.210 C 
ENDBRANCH  12  33
TORSDOF 6
ENDMDL
MODEL 7
REMARK VINA RESULT:      -8.9      9.062     14.840
REMARK  6 active torsions:
REMARK  status: ('A' for Active; 'I' for Inactive)
REMARK    1  A    between atoms: C21_29  and  O1_2 
REMARK    2  A    between atoms: C9_17  and  O1_2 
REMARK    3  A    between atoms: C15_23  and  O3_4 
REMARK       I    between atoms: C11_19  and  N1_8 
REMARK    4  A    between atoms: C4_12  and  N1_8 
REMARK    5  A    between atoms: C2_10  and  C9_17 
REMARK    6  A    between atoms: C10_18  and  C11_19 
ROOT
HETATM    1  S1  UNK     1      17.188  -1.854  37.554  1.00  0.00    -0.075 SA
HETATM    2  C1  UNK     1      18.204  -0.099  35.978  1.00  0.00     0.006 A 
HETATM    3  C2  UNK     1      18.874  -1.323  35.690  1.00  0.00     0.085 A 
HETATM    4  C3  UNK     1      17.262  -0.246  36.972  1.00  0.00    -0.007 A 
HETATM    5  C4  UNK     1      18.411  -2.331  36.474  1.00  0.00     0.094 A 
HETATM    6  C5  UNK     1      18.426   1.182  35.352  1.00  0.00    -0.024 A 
HETATM    7  C6  UNK     1      16.355   0.765  37.566  1.00  0.00     0.057 C 
HETATM    8  C7  UNK     1      19.368   2.057  35.883  1.00  0.00     0.015 A 
HETATM    9  C8  UNK     1      17.696   1.533  34.219  1.00  0.00     0.015 A 
HETATM   10  C12 UNK     1      19.582   3.295  35.278  1.00  0.00     0.037 A 
HETATM   11  C13 UNK     1      17.912   2.770  33.614  1.00  0.00     0.037 A 
HETATM   12  C15 UNK     1      18.854   3.652  34.142  1.00  0.00     0.068 A 
ENDROOT
BRANCH   5  13
HETATM   13  N1  UNK     1      18.777  -3.679  36.530  1.00  0.00    -0.316 N 
HETATM   14  C11 UNK     1      19.916  -4.193  37.132  1.00  0.00     0.262 C 
HETATM   15  O5  UNK     1      20.811  -3.589  37.722  1.00  0.00    -0.267 OA
HETATM   16  H1  UNK     1      18.112  -4.311  36.094  1.00  0.00     0.169 HD
BRANCH  14  17
HETATM   17  C10 UNK     1      19.991  -5.653  37.005  1.00  0.00     0.108 A 
HETATM   18  C16 UNK     1      19.862  -6.353  38.138  1.00  0.00     0.037 A 
HETATM   19  C14 UNK     1      19.922  -7.806  38.114  1.00  0.00    -0.001 A 
HETATM   20  C17 UNK     1      20.116  -8.451  36.896  1.00  0.00     0.089 A 
HETATM   21  C19 UNK     1      19.792  -8.577  39.272  1.00  0.00     0.014 A 
HETATM   22  O2  UNK     1      20.252  -7.709  35.706  1.00  0.00    -0.274 OA
HETATM   23  C20 UNK     1      20.184  -9.840  36.804  1.00  0.00     0.038 A 
HETATM   24  C18 UNK     1      20.198  -6.318  35.699  1.00  0.00     0.304 A 
HETATM   25  O6  UNK     1      20.318  -5.680  34.659  1.00  0.00    -0.259 OA
HETATM   26  C23 UNK     1      20.053 -10.601  37.963  1.00  0.00     0.003 A 
HETATM   27  C22 UNK     1      19.857  -9.972  39.195  1.00  0.00     0.001 A 
ENDBRANCH  14  17
ENDBRANCH   5  13
BRANCH   3  28
HETATM   28  C9  UNK     1      19.911  -1.502  34.704  1.00  0.00     0.297 C 
HETATM   29  O4  UNK     1      21.088  -1.775  34.981  1.00  0.00    -0.259 OA
BRANCH  28  30
HETATM   30  O1  UNK     1      19.481  -1.340  33.405  1.00  0.00    -0.318 OA
BRANCH  30  31
HETATM   31  C21 UNK     1      20.196  -2.057  32.393  1.00  0.00     0.174 C 
HETATM   32  C24 UNK     1      20.361  -1.167  31.181  1.00  0.00     0.034 C 
ENDBRANCH  30  31
ENDBRANCH  28  30
ENDBRANCH   3  28
BRANCH  12  33
HETATM   33  O3  UNK     1      19.062   4.861  33.552  1.00  0.00    -0.356 OA
HETATM   34  C25 UNK     1      17.989   5.399  32.781  1.00  0.00     0.210 C 
ENDBRANCH  12  33
TORSDOF 6
ENDMDL
MODEL 8
REMARK VINA RESULT:      -8.5     19.076     21.112
REMARK  6 active torsions:
REMARK  status: ('A' for Active; 'I' for Inactive)
REMARK    1  A    between atoms: C21_29  and  O1_2 
REMARK    2  A    between atoms: C9_17  and  O1_2 
REMARK    3  A    between atoms: C15_23  and  O3_4 
REMARK       I    between atoms: C11_19  and  N1_8 
REMARK    4  A    between atoms: C4_12  and  N1_8 
REMARK    5  A    between atoms: C2_10  and  C9_17 
REMARK    6  A    between atoms: C10_18  and  C11_19 
ROOT
HETATM    1  S1  UNK     1      27.581  -5.307  38.669  1.00  0.00    -0.075 SA
HETATM    2  C1  UNK     1      29.857  -5.981  37.689  1.00  0.00     0.006 A 
HETATM    3  C2  UNK     1      28.921  -6.941  37.210  1.00  0.00     0.085 A 
HETATM    4  C3  UNK     1      29.262  -5.035  38.495  1.00  0.00    -0.007 A 
HETATM    5  C4  UNK     1      27.671  -6.679  37.671  1.00  0.00     0.094 A 
HETATM    6  C5  UNK     1      31.272  -5.933  37.414  1.00  0.00    -0.024 A 
HETATM    7  C6  UNK     1      29.867  -3.874  39.190  1.00  0.00     0.057 C 
HETATM    8  C7  UNK     1      32.162  -6.601  38.250  1.00  0.00     0.015 A 
HETATM    9  C8  UNK     1      31.739  -5.220  36.313  1.00  0.00     0.015 A 
HETATM   10  C12 UNK     1      33.530  -6.555  37.984  1.00  0.00     0.037 A 
HETATM   11  C13 UNK     1      33.107  -5.175  36.046  1.00  0.00     0.037 A 
HETATM   12  C15 UNK     1      34.003  -5.842  36.881  1.00  0.00     0.068 A 
ENDROOT
BRANCH   5  13
HETATM   13  N1  UNK     1      26.464  -7.352  37.455  1.00  0.00    -0.316 N 
HETATM   14  C11 UNK     1      25.871  -8.265  38.314  1.00  0.00     0.262 C 
HETATM   15  O5  UNK     1      26.271  -8.660  39.408  1.00  0.00    -0.267 OA
HETATM   16  H1  UNK     1      25.999  -7.107  36.585  1.00  0.00     0.169 HD
BRANCH  14  17
HETATM   17  C10 UNK     1      24.608  -8.782  37.776  1.00  0.00     0.108 A 
HETATM   18  C16 UNK     1      23.488  -8.232  38.262  1.00  0.00     0.037 A 
HETATM   19  C14 UNK     1      22.187  -8.678  37.790  1.00  0.00    -0.001 A 
HETATM   20  C17 UNK     1      22.128  -9.682  36.830  1.00  0.00     0.089 A 
HETATM   21  C19 UNK     1      20.994  -8.132  38.270  1.00  0.00     0.014 A 
HETATM   22  O2  UNK     1      23.309 -10.259  36.322  1.00  0.00    -0.274 OA
HETATM   23  C20 UNK     1      20.913 -10.155  36.336  1.00  0.00     0.038 A 
HETATM   24  C18 UNK     1      24.568  -9.852  36.754  1.00  0.00     0.304 A 
HETATM   25  O6  UNK     1      25.591 -10.359  36.307  1.00  0.00    -0.259 OA
HETATM   26  C23 UNK     1      19.728  -9.606  36.819  1.00  0.00     0.003 A 
HETATM   27  C22 UNK     1      19.767  -8.596  37.784  1.00  0.00     0.001 A 
ENDBRANCH  14  17
ENDBRANCH   5  13
BRANCH   3  28
HETATM   28  C9  UNK     1      29.228  -8.056  36.347  1.00  0.00     0.297 C 
HETATM   29  O4  UNK     1      29.615  -7.937  35.176  1.00  0.00    -0.259 OA
BRANCH  28  30
HETATM   30  O1  UNK     1      29.052  -9.286  36.942  1.00  0.00    -0.318 OA
BRANCH  30  31
HETATM   31  C21 UNK     1      29.772  -9.525  38.156  1.00  0.00     0.174 C 
HETATM   32  C24 UNK     1      31.164 -10.012  37.817  1.00  0.00     0.034 C 
ENDBRANCH  30  31
ENDBRANCH  28  30
ENDBRANCH   3  28
BRANCH  12  33
HETATM   33  O3  UNK     1      35.338  -5.796  36.622  1.00  0.00    -0.356 OA
HETATM   34  C25 UNK     1      35.773  -6.318  35.367  1.00  0.00     0.210 C 
ENDBRANCH  12  33
TORSDOF 6
ENDMDL
MODEL 9
REMARK VINA RESULT:      -8.5     17.593     23.243
REMARK  6 active torsions:
REMARK  status: ('A' for Active; 'I' for Inactive)
REMARK    1  A    between atoms: C21_29  and  O1_2 
REMARK    2  A    between atoms: C9_17  and  O1_2 
REMARK    3  A    between atoms: C15_23  and  O3_4 
REMARK       I    between atoms: C11_19  and  N1_8 
REMARK    4  A    between atoms: C4_12  and  N1_8 
REMARK    5  A    between atoms: C2_10  and  C9_17 
REMARK    6  A    between atoms: C10_18  and  C11_19 
ROOT
HETATM    1  S1  UNK     1      20.553  -5.145  14.809  1.00  0.00    -0.075 SA
HETATM    2  C1  UNK     1      20.199  -5.289  12.269  1.00  0.00     0.006 A 
HETATM    3  C2  UNK     1      19.903  -3.944  12.634  1.00  0.00     0.085 A 
HETATM    4  C3  UNK     1      20.566  -6.051  13.357  1.00  0.00    -0.007 A 
HETATM    5  C4  UNK     1      20.059  -3.753  13.969  1.00  0.00     0.094 A 
HETATM    6  C5  UNK     1      20.145  -5.864  10.948  1.00  0.00    -0.024 A 
HETATM    7  C6  UNK     1      20.950  -7.481  13.418  1.00  0.00     0.057 C 
HETATM    8  C7  UNK     1      18.964  -6.442  10.493  1.00  0.00     0.015 A 
HETATM    9  C8  UNK     1      21.275  -5.836  10.135  1.00  0.00     0.015 A 
HETATM   10  C12 UNK     1      18.911  -6.997   9.215  1.00  0.00     0.037 A 
HETATM   11  C13 UNK     1      21.222  -6.391   8.857  1.00  0.00     0.037 A 
HETATM   12  C15 UNK     1      20.041  -6.972   8.396  1.00  0.00     0.068 A 
ENDROOT
BRANCH   5  13
HETATM   13  N1  UNK     1      19.880  -2.606  14.748  1.00  0.00    -0.316 N 
HETATM   14  C11 UNK     1      18.787  -2.328  15.557  1.00  0.00     0.262 C 
HETATM   15  O5  UNK     1      17.782  -3.011  15.749  1.00  0.00    -0.267 OA
HETATM   16  H1  UNK     1      20.653  -1.947  14.706  1.00  0.00     0.169 HD
BRANCH  14  17
HETATM   17  C10 UNK     1      18.923  -1.035  16.236  1.00  0.00     0.108 A 
HETATM   18  C16 UNK     1      18.707  -1.034  17.557  1.00  0.00     0.037 A 
HETATM   19  C14 UNK     1      18.819   0.201  18.318  1.00  0.00    -0.001 A 
HETATM   20  C17 UNK     1      19.151   1.375  17.649  1.00  0.00     0.089 A 
HETATM   21  C19 UNK     1      18.602   0.248  19.697  1.00  0.00     0.014 A 
HETATM   22  O2  UNK     1      19.377   1.369  16.259  1.00  0.00    -0.274 OA
HETATM   23  C20 UNK     1      19.273   2.591  18.320  1.00  0.00     0.038 A 
HETATM   24  C18 UNK     1      19.278   0.203  15.505  1.00  0.00     0.304 A 
HETATM   25  O6  UNK     1      19.475   0.206  14.294  1.00  0.00    -0.259 OA
HETATM   26  C23 UNK     1      19.056   2.629  19.695  1.00  0.00     0.003 A 
HETATM   27  C22 UNK     1      18.722   1.461  20.383  1.00  0.00     0.001 A 
ENDBRANCH  14  17
ENDBRANCH   5  13
BRANCH   3  28
HETATM   28  C9  UNK     1      19.490  -2.900  11.728  1.00  0.00     0.297 C 
HETATM   29  O4  UNK     1      18.627  -2.052  11.999  1.00  0.00    -0.259 OA
BRANCH  28  30
HETATM   30  O1  UNK     1      20.144  -2.921  10.516  1.00  0.00    -0.318 OA
BRANCH  30  31
HETATM   31  C21 UNK     1      21.261  -2.038  10.369  1.00  0.00     0.174 C 
HETATM   32  C24 UNK     1      21.999  -2.384   9.093  1.00  0.00     0.034 C 
ENDBRANCH  30  31
ENDBRANCH  28  30
ENDBRANCH   3  28
BRANCH  12  33
HETATM   33  O3  UNK     1      19.991  -7.516   7.149  1.00  0.00    -0.356 OA
HETATM   34  C25 UNK     1      18.715  -7.955   6.684  1.00  0.00     0.210 C 
ENDBRANCH  12  33
TORSDOF 6
ENDMDL
MODEL 10
REMARK VINA RESULT:      -8.5     18.993     21.343
REMARK  6 active torsions:
REMARK  status: ('A' for Active; 'I' for Inactive)
REMARK    1  A    between atoms: C21_29  and  O1_2 
REMARK    2  A    between atoms: C9_17  and  O1_2 
REMARK    3  A    between atoms: C15_23  and  O3_4 
REMARK       I    between atoms: C11_19  and  N1_8 
REMARK    4  A    between atoms: C4_12  and  N1_8 
REMARK    5  A    between atoms: C2_10  and  C9_17 
REMARK    6  A    between atoms: C10_18  and  C11_19 
ROOT
HETATM    1  S1  UNK     1      29.333  -5.981  38.482  1.00  0.00    -0.075 SA
HETATM    2  C1  UNK     1      31.101  -6.522  36.700  1.00  0.00     0.006 A 
HETATM    3  C2  UNK     1      29.911  -7.189  36.291  1.00  0.00     0.085 A 
HETATM    4  C3  UNK     1      30.927  -5.827  37.877  1.00  0.00    -0.007 A 
HETATM    5  C4  UNK     1      28.900  -6.969  37.169  1.00  0.00     0.094 A 
HETATM    6  C5  UNK     1      32.376  -6.524  36.024  1.00  0.00    -0.024 A 
HETATM    7  C6  UNK     1      31.898  -5.008  38.639  1.00  0.00     0.057 C 
HETATM    8  C7  UNK     1      33.318  -7.501  36.327  1.00  0.00     0.015 A 
HETATM    9  C8  UNK     1      32.654  -5.547  35.072  1.00  0.00     0.015 A 
HETATM   10  C12 UNK     1      34.550  -7.503  35.673  1.00  0.00     0.037 A 
HETATM   11  C13 UNK     1      33.885  -5.549  34.417  1.00  0.00     0.037 A 
HETATM   12  C15 UNK     1      34.834  -6.526  34.718  1.00  0.00     0.068 A 
ENDROOT
BRANCH   5  13
HETATM   13  N1  UNK     1      27.577  -7.423  37.163  1.00  0.00    -0.316 N 
HETATM   14  C11 UNK     1      27.127  -8.642  37.648  1.00  0.00     0.262 C 
HETATM   15  O5  UNK     1      27.778  -9.548  38.166  1.00  0.00    -0.267 OA
HETATM   16  H1  UNK     1      26.910  -6.760  36.776  1.00  0.00     0.169 HD
BRANCH  14  17
HETATM   17  C10 UNK     1      25.678  -8.796  37.482  1.00  0.00     0.108 A 
HETATM   18  C16 UNK     1      25.274  -9.817  36.717  1.00  0.00     0.037 A 
HETATM   19  C14 UNK     1      23.856 -10.051  36.494  1.00  0.00    -0.001 A 
HETATM   20  C17 UNK     1      22.932  -9.197  37.088  1.00  0.00     0.089 A 
HETATM   21  C19 UNK     1      23.390 -11.104  35.703  1.00  0.00     0.014 A 
HETATM   22  O2  UNK     1      23.362  -8.124  37.892  1.00  0.00    -0.274 OA
HETATM   23  C20 UNK     1      21.559  -9.366  36.913  1.00  0.00     0.038 A 
HETATM   24  C18 UNK     1      24.712  -7.875  38.124  1.00  0.00     0.304 A 
HETATM   25  O6  UNK     1      25.078  -6.938  38.825  1.00  0.00    -0.259 OA
HETATM   26  C23 UNK     1      21.103 -10.419  36.123  1.00  0.00     0.003 A 
HETATM   27  C22 UNK     1      22.016 -11.287  35.519  1.00  0.00     0.001 A 
ENDBRANCH  14  17
ENDBRANCH   5  13
BRANCH   3  28
HETATM   28  C9  UNK     1      29.767  -7.999  35.105  1.00  0.00     0.297 C 
HETATM   29  O4  UNK     1      30.427  -9.025  34.885  1.00  0.00    -0.259 OA
BRANCH  28  30
HETATM   30  O1  UNK     1      28.820  -7.531  34.222  1.00  0.00    -0.318 OA
BRANCH  30  31
HETATM   31  C21 UNK     1      29.145  -6.338  33.499  1.00  0.00     0.174 C 
HETATM   32  C24 UNK     1      27.937  -5.903  32.697  1.00  0.00     0.034 C 
ENDBRANCH  30  31
ENDBRANCH  28  30
ENDBRANCH   3  28
BRANCH  12  33
HETATM   33  O3  UNK     1      36.037  -6.526  34.080  1.00  0.00    -0.356 OA
HETATM   34  C25 UNK     1      36.882  -7.656  34.292  1.00  0.00     0.210 C 
ENDBRANCH  12  33
TORSDOF 6
ENDMDL
