MODEL 1
REMARK VINA RESULT:      -8.6      0.000      0.000
REMARK  3 active torsions:
REMARK  status: ('A' for Active; 'I' for Inactive)
REMARK    1  A    between atoms: C7_11  and  O2_2 
REMARK    2  A    between atoms: C11_15  and  O4_4 
REMARK    3  A    between atoms: C1_5  and  C2_6 
ROOT
HETATM    1  O1  UNK     1      13.325   7.465   8.632  1.00  0.00    -0.309 OA
HETATM    2  O3  UNK     1      15.472   4.182   9.731  1.00  0.00    -0.287 OA
HETATM    3  C1  UNK     1      12.814   6.183   8.497  1.00  0.00     0.093 A 
HETATM    4  C3  UNK     1      15.379   6.535   9.535  1.00  0.00     0.048 A 
HETATM    5  C4  UNK     1      14.590   7.615   9.141  1.00  0.00     0.090 A 
HETATM    6  C5  UNK     1      13.473   5.067   8.846  1.00  0.00     0.094 A 
HETATM    7  C6  UNK     1      14.837   5.173   9.403  1.00  0.00     0.187 A 
HETATM    8  C9  UNK     1      16.661   6.746  10.048  1.00  0.00     0.018 A 
HETATM    9  C10 UNK     1      15.080   8.916   9.258  1.00  0.00     0.038 A 
HETATM   10  C12 UNK     1      17.148   8.049  10.164  1.00  0.00     0.001 A 
HETATM   11  C13 UNK     1      16.360   9.131   9.770  1.00  0.00     0.003 A 
ENDROOT
BRANCH   3  12
HETATM   12  C2  UNK     1      11.446   6.138   7.944  1.00  0.00     0.034 A 
HETATM   13  C7  UNK     1      11.216   6.202   6.566  1.00  0.00     0.111 A 
HETATM   14  C11 UNK     1       9.914   6.157   6.068  1.00  0.00     0.099 A 
HETATM   15  C15 UNK     1       8.835   6.047   6.946  1.00  0.00     0.039 A 
HETATM   16  C14 UNK     1       9.059   5.983   8.321  1.00  0.00     0.004 A 
HETATM   17  C8  UNK     1      10.362   6.028   8.819  1.00  0.00     0.017 A 
BRANCH  13  18
HETATM   18  O2  UNK     1      12.262   6.310   5.695  1.00  0.00    -0.357 OA
HETATM   19  H9  UNK     1      13.098   6.189   6.174  1.00  0.00     0.217 HD
ENDBRANCH  13  18
BRANCH  14  20
HETATM   20  O4  UNK     1       9.680   6.218   4.728  1.00  0.00    -0.358 OA
HETATM   21  H10 UNK     1       8.953   6.836   4.552  1.00  0.00     0.217 HD
ENDBRANCH  14  20
ENDBRANCH   3  12
TORSDOF 3
ENDMDL
MODEL 2
REMARK VINA RESULT:      -8.6     24.686     27.006
REMARK  3 active torsions:
REMARK  status: ('A' for Active; 'I' for Inactive)
REMARK    1  A    between atoms: C7_11  and  O2_2 
REMARK    2  A    between atoms: C11_15  and  O4_4 
REMARK    3  A    between atoms: C1_5  and  C2_6 
ROOT
HETATM    1  O1  UNK     1      18.562   0.275  32.493  1.00  0.00    -0.309 OA
HETATM    2  O3  UNK     1      20.870  -3.078  32.672  1.00  0.00    -0.287 OA
HETATM    3  C1  UNK     1      18.641  -0.494  33.645  1.00  0.00     0.093 A 
HETATM    4  C3  UNK     1      20.085  -1.259  31.385  1.00  0.00     0.048 A 
HETATM    5  C4  UNK     1      19.277  -0.123  31.392  1.00  0.00     0.090 A 
HETATM    6  C5  UNK     1      19.387  -1.604  33.763  1.00  0.00     0.094 A 
HETATM    7  C6  UNK     1      20.179  -2.072  32.607  1.00  0.00     0.187 A 
HETATM    8  C9  UNK     1      20.791  -1.616  30.233  1.00  0.00     0.018 A 
HETATM    9  C10 UNK     1      19.171   0.666  30.246  1.00  0.00     0.038 A 
HETATM   10  C12 UNK     1      20.683  -0.825  29.088  1.00  0.00     0.001 A 
HETATM   11  C13 UNK     1      19.875   0.313  29.094  1.00  0.00     0.003 A 
ENDROOT
BRANCH   3  12
HETATM   12  C2  UNK     1      17.838   0.026  34.769  1.00  0.00     0.034 A 
HETATM   13  C7  UNK     1      18.417   0.799  35.781  1.00  0.00     0.111 A 
HETATM   14  C11 UNK     1      17.636   1.278  36.833  1.00  0.00     0.099 A 
HETATM   15  C15 UNK     1      16.272   0.986  36.878  1.00  0.00     0.039 A 
HETATM   16  C14 UNK     1      15.690   0.217  35.872  1.00  0.00     0.004 A 
HETATM   17  C8  UNK     1      16.471  -0.263  34.819  1.00  0.00     0.017 A 
BRANCH  13  18
HETATM   18  O2  UNK     1      19.750   1.091  35.750  1.00  0.00    -0.357 OA
HETATM   19  H9  UNK     1      19.968   1.692  36.480  1.00  0.00     0.217 HD
ENDBRANCH  13  18
BRANCH  14  20
HETATM   20  O4  UNK     1      18.191   2.032  37.822  1.00  0.00    -0.358 OA
HETATM   21  H10 UNK     1      18.694   2.763  37.431  1.00  0.00     0.217 HD
ENDBRANCH  14  20
ENDBRANCH   3  12
TORSDOF 3
ENDMDL
MODEL 3
REMARK VINA RESULT:      -8.5     24.461     26.934
REMARK  3 active torsions:
REMARK  status: ('A' for Active; 'I' for Inactive)
REMARK    1  A    between atoms: C7_11  and  O2_2 
REMARK    2  A    between atoms: C11_15  and  O4_4 
REMARK    3  A    between atoms: C1_5  and  C2_6 
ROOT
HETATM    1  O1  UNK     1      19.151  -0.445  32.966  1.00  0.00    -0.309 OA
HETATM    2  O3  UNK     1      18.433   2.848  30.677  1.00  0.00    -0.287 OA
HETATM    3  C1  UNK     1      18.589   0.704  33.501  1.00  0.00     0.093 A 
HETATM    4  C3  UNK     1      19.259   0.637  30.794  1.00  0.00     0.048 A 
HETATM    5  C4  UNK     1      19.477  -0.454  31.634  1.00  0.00     0.090 A 
HETATM    6  C5  UNK     1      18.326   1.816  32.795  1.00  0.00     0.094 A 
HETATM    7  C6  UNK     1      18.654   1.855  31.355  1.00  0.00     0.187 A 
HETATM    8  C9  UNK     1      19.610   0.571  29.443  1.00  0.00     0.018 A 
HETATM    9  C10 UNK     1      20.048  -1.622  31.126  1.00  0.00     0.038 A 
HETATM   10  C12 UNK     1      20.181  -0.598  28.939  1.00  0.00     0.001 A 
HETATM   11  C13 UNK     1      20.400  -1.692  29.777  1.00  0.00     0.003 A 
ENDROOT
BRANCH   3  12
HETATM   12  C2  UNK     1      18.275   0.605  34.939  1.00  0.00     0.034 A 
HETATM   13  C7  UNK     1      18.136  -0.637  35.570  1.00  0.00     0.111 A 
HETATM   14  C11 UNK     1      17.839  -0.704  36.931  1.00  0.00     0.099 A 
HETATM   15  C15 UNK     1      17.677   0.469  37.669  1.00  0.00     0.039 A 
HETATM   16  C14 UNK     1      17.814   1.709  37.046  1.00  0.00     0.004 A 
HETATM   17  C8  UNK     1      18.112   1.777  35.684  1.00  0.00     0.017 A 
BRANCH  13  18
HETATM   18  O2  UNK     1      18.291  -1.792  34.860  1.00  0.00    -0.357 OA
HETATM   19  H9  UNK     1      19.166  -1.802  34.440  1.00  0.00     0.217 HD
ENDBRANCH  13  18
BRANCH  14  20
HETATM   20  O4  UNK     1      17.703  -1.908  37.553  1.00  0.00    -0.358 OA
HETATM   21  H10 UNK     1      16.781  -2.205  37.489  1.00  0.00     0.217 HD
ENDBRANCH  14  20
ENDBRANCH   3  12
TORSDOF 3
ENDMDL
MODEL 4
REMARK VINA RESULT:      -8.5     24.826     27.111
REMARK  3 active torsions:
REMARK  status: ('A' for Active; 'I' for Inactive)
REMARK    1  A    between atoms: C7_11  and  O2_2 
REMARK    2  A    between atoms: C11_15  and  O4_4 
REMARK    3  A    between atoms: C1_5  and  C2_6 
ROOT
HETATM    1  O1  UNK     1      18.718  -0.609  33.715  1.00  0.00    -0.309 OA
HETATM    2  O3  UNK     1      20.622  -3.617  35.697  1.00  0.00    -0.287 OA
HETATM    3  C1  UNK     1      19.625  -1.441  33.077  1.00  0.00     0.093 A 
HETATM    4  C3  UNK     1      19.091  -1.820  35.788  1.00  0.00     0.048 A 
HETATM    5  C4  UNK     1      18.474  -0.811  35.050  1.00  0.00     0.090 A 
HETATM    6  C5  UNK     1      20.278  -2.449  33.677  1.00  0.00     0.094 A 
HETATM    7  C6  UNK     1      20.047  -2.711  35.112  1.00  0.00     0.187 A 
HETATM    8  C9  UNK     1      18.803  -1.979  37.146  1.00  0.00     0.018 A 
HETATM    9  C10 UNK     1      17.562   0.046  35.667  1.00  0.00     0.038 A 
HETATM   10  C12 UNK     1      17.891  -1.120  37.760  1.00  0.00     0.001 A 
HETATM   11  C13 UNK     1      17.272  -0.110  37.023  1.00  0.00     0.003 A 
ENDROOT
BRANCH   3  12
HETATM   12  C2  UNK     1      19.810  -1.139  31.644  1.00  0.00     0.034 A 
HETATM   13  C7  UNK     1      19.455   0.104  31.110  1.00  0.00     0.111 A 
HETATM   14  C11 UNK     1      19.640   0.365  29.753  1.00  0.00     0.099 A 
HETATM   15  C15 UNK     1      20.180  -0.617  28.921  1.00  0.00     0.039 A 
HETATM   16  C14 UNK     1      20.535  -1.858  29.447  1.00  0.00     0.004 A 
HETATM   17  C8  UNK     1      20.351  -2.119  30.806  1.00  0.00     0.017 A 
BRANCH  13  18
HETATM   18  O2  UNK     1      18.925   1.074  31.912  1.00  0.00    -0.357 OA
HETATM   19  H9  UNK     1      18.445   1.719  31.368  1.00  0.00     0.217 HD
ENDBRANCH  13  18
BRANCH  14  20
HETATM   20  O4  UNK     1      19.297   1.573  29.225  1.00  0.00    -0.358 OA
HETATM   21  H10 UNK     1      18.332   1.673  29.240  1.00  0.00     0.217 HD
ENDBRANCH  14  20
ENDBRANCH   3  12
TORSDOF 3
ENDMDL
MODEL 5
REMARK VINA RESULT:      -8.2      1.285      1.812
REMARK  3 active torsions:
REMARK  status: ('A' for Active; 'I' for Inactive)
REMARK    1  A    between atoms: C7_11  and  O2_2 
REMARK    2  A    between atoms: C11_15  and  O4_4 
REMARK    3  A    between atoms: C1_5  and  C2_6 
ROOT
HETATM    1  O1  UNK     1      13.175   7.685   8.511  1.00  0.00    -0.309 OA
HETATM    2  O3  UNK     1      15.268   4.345   9.541  1.00  0.00    -0.287 OA
HETATM    3  C1  UNK     1      12.707   6.414   8.217  1.00  0.00     0.093 A 
HETATM    4  C3  UNK     1      15.147   6.705   9.536  1.00  0.00     0.048 A 
HETATM    5  C4  UNK     1      14.380   7.805   9.156  1.00  0.00     0.090 A 
HETATM    6  C5  UNK     1      13.350   5.279   8.536  1.00  0.00     0.094 A 
HETATM    7  C6  UNK     1      14.649   5.354   9.235  1.00  0.00     0.187 A 
HETATM    8  C9  UNK     1      16.367   6.886  10.192  1.00  0.00     0.018 A 
HETATM    9  C10 UNK     1      14.829   9.097   9.431  1.00  0.00     0.038 A 
HETATM   10  C12 UNK     1      16.814   8.180  10.465  1.00  0.00     0.001 A 
HETATM   11  C13 UNK     1      16.047   9.283  10.086  1.00  0.00     0.003 A 
ENDROOT
BRANCH   3  12
HETATM   12  C2  UNK     1      11.402   6.400   7.527  1.00  0.00     0.034 A 
HETATM   13  C7  UNK     1      10.210   6.639   8.220  1.00  0.00     0.111 A 
HETATM   14  C11 UNK     1       8.990   6.620   7.545  1.00  0.00     0.099 A 
HETATM   15  C15 UNK     1       8.954   6.362   6.174  1.00  0.00     0.039 A 
HETATM   16  C14 UNK     1      10.139   6.124   5.479  1.00  0.00     0.004 A 
HETATM   17  C8  UNK     1      11.361   6.142   6.154  1.00  0.00     0.017 A 
BRANCH  13  18
HETATM   18  O2  UNK     1      10.230   6.892   9.561  1.00  0.00    -0.357 OA
HETATM   19  H9  UNK     1       9.862   7.774   9.731  1.00  0.00     0.217 HD
ENDBRANCH  13  18
BRANCH  14  20
HETATM   20  O4  UNK     1       7.824   6.852   8.211  1.00  0.00    -0.358 OA
HETATM   21  H10 UNK     1       7.100   6.955   7.574  1.00  0.00     0.217 HD
ENDBRANCH  14  20
ENDBRANCH   3  12
TORSDOF 3
ENDMDL
MODEL 6
REMARK VINA RESULT:      -8.1     24.050     26.355
REMARK  3 active torsions:
REMARK  status: ('A' for Active; 'I' for Inactive)
REMARK    1  A    between atoms: C7_11  and  O2_2 
REMARK    2  A    between atoms: C11_15  and  O4_4 
REMARK    3  A    between atoms: C1_5  and  C2_6 
ROOT
HETATM    1  O1  UNK     1      17.941   3.560  33.400  1.00  0.00    -0.309 OA
HETATM    2  O3  UNK     1      19.167   1.649  30.017  1.00  0.00    -0.287 OA
HETATM    3  C1  UNK     1      18.017   2.177  33.332  1.00  0.00     0.093 A 
HETATM    4  C3  UNK     1      18.708   3.699  31.099  1.00  0.00     0.048 A 
HETATM    5  C4  UNK     1      18.281   4.288  32.289  1.00  0.00     0.090 A 
HETATM    6  C5  UNK     1      18.418   1.494  32.248  1.00  0.00     0.094 A 
HETATM    7  C6  UNK     1      18.799   2.233  31.026  1.00  0.00     0.187 A 
HETATM    8  C9  UNK     1      19.042   4.491  29.998  1.00  0.00     0.018 A 
HETATM    9  C10 UNK     1      18.188   5.677  32.385  1.00  0.00     0.038 A 
HETATM   10  C12 UNK     1      18.947   5.880  30.098  1.00  0.00     0.001 A 
HETATM   11  C13 UNK     1      18.521   6.472  31.287  1.00  0.00     0.003 A 
ENDROOT
BRANCH   3  12
HETATM   12  C2  UNK     1      17.634   1.493  34.583  1.00  0.00     0.034 A 
HETATM   13  C7  UNK     1      18.160   1.886  35.818  1.00  0.00     0.111 A 
HETATM   14  C11 UNK     1      17.782   1.224  36.986  1.00  0.00     0.099 A 
HETATM   15  C15 UNK     1      16.875   0.165  36.925  1.00  0.00     0.039 A 
HETATM   16  C14 UNK     1      16.347  -0.231  35.696  1.00  0.00     0.004 A 
HETATM   17  C8  UNK     1      16.726   0.432  34.528  1.00  0.00     0.017 A 
BRANCH  13  18
HETATM   18  O2  UNK     1      19.049   2.920  35.893  1.00  0.00    -0.357 OA
HETATM   19  H9  UNK     1      18.568   3.753  36.028  1.00  0.00     0.217 HD
ENDBRANCH  13  18
BRANCH  14  20
HETATM   20  O4  UNK     1      18.289   1.600  38.193  1.00  0.00    -0.358 OA
HETATM   21  H10 UNK     1      18.788   2.426  38.093  1.00  0.00     0.217 HD
ENDBRANCH  14  20
ENDBRANCH   3  12
TORSDOF 3
ENDMDL
MODEL 7
REMARK VINA RESULT:      -8.0     11.974     14.111
REMARK  3 active torsions:
REMARK  status: ('A' for Active; 'I' for Inactive)
REMARK    1  A    between atoms: C7_11  and  O2_2 
REMARK    2  A    between atoms: C11_15  and  O4_4 
REMARK    3  A    between atoms: C1_5  and  C2_6 
ROOT
HETATM    1  O1  UNK     1      20.434  -1.966  17.150  1.00  0.00    -0.309 OA
HETATM    2  O3  UNK     1      17.571  -3.673  14.807  1.00  0.00    -0.287 OA
HETATM    3  C1  UNK     1      19.216  -1.344  16.920  1.00  0.00     0.093 A 
HETATM    4  C3  UNK     1      19.735  -3.820  15.745  1.00  0.00     0.048 A 
HETATM    5  C4  UNK     1      20.670  -3.181  16.559  1.00  0.00     0.090 A 
HETATM    6  C5  UNK     1      18.236  -1.861  16.163  1.00  0.00     0.094 A 
HETATM    7  C6  UNK     1      18.438  -3.169  15.507  1.00  0.00     0.187 A 
HETATM    8  C9  UNK     1      20.029  -5.058  15.169  1.00  0.00     0.018 A 
HETATM    9  C10 UNK     1      21.907  -3.778  16.802  1.00  0.00     0.038 A 
HETATM   10  C12 UNK     1      21.268  -5.653  15.414  1.00  0.00     0.001 A 
HETATM   11  C13 UNK     1      22.205  -5.015  16.228  1.00  0.00     0.003 A 
ENDROOT
BRANCH   3  12
HETATM   12  C2  UNK     1      19.066  -0.046  17.607  1.00  0.00     0.034 A 
HETATM   13  C7  UNK     1      19.132   1.161  16.903  1.00  0.00     0.111 A 
HETATM   14  C11 UNK     1      18.987   2.375  17.574  1.00  0.00     0.099 A 
HETATM   15  C15 UNK     1      18.776   2.388  18.954  1.00  0.00     0.039 A 
HETATM   16  C14 UNK     1      18.709   1.188  19.660  1.00  0.00     0.004 A 
HETATM   17  C8  UNK     1      18.854  -0.027  18.989  1.00  0.00     0.017 A 
BRANCH  13  18
HETATM   18  O2  UNK     1      19.339   1.163  15.553  1.00  0.00    -0.357 OA
HETATM   19  H9  UNK     1      20.292   1.148  15.370  1.00  0.00     0.217 HD
ENDBRANCH  13  18
BRANCH  14  20
HETATM   20  O4  UNK     1      19.050   3.555  16.897  1.00  0.00    -0.358 OA
HETATM   21  H10 UNK     1      18.437   3.531  16.145  1.00  0.00     0.217 HD
ENDBRANCH  14  20
ENDBRANCH   3  12
TORSDOF 3
ENDMDL
MODEL 8
REMARK VINA RESULT:      -7.9     12.367     14.637
REMARK  3 active torsions:
REMARK  status: ('A' for Active; 'I' for Inactive)
REMARK    1  A    between atoms: C7_11  and  O2_2 
REMARK    2  A    between atoms: C11_15  and  O4_4 
REMARK    3  A    between atoms: C1_5  and  C2_6 
ROOT
HETATM    1  O1  UNK     1      20.459  -1.763  17.422  1.00  0.00    -0.309 OA
HETATM    2  O3  UNK     1      17.693  -3.299  14.853  1.00  0.00    -0.287 OA
HETATM    3  C1  UNK     1      19.270  -1.102  17.152  1.00  0.00     0.093 A 
HETATM    4  C3  UNK     1      19.797  -3.539  15.902  1.00  0.00     0.048 A 
HETATM    5  C4  UNK     1      20.699  -2.958  16.792  1.00  0.00     0.090 A 
HETATM    6  C5  UNK     1      18.322  -1.562  16.320  1.00  0.00     0.094 A 
HETATM    7  C6  UNK     1      18.531  -2.846  15.621  1.00  0.00     0.187 A 
HETATM    8  C9  UNK     1      20.095  -4.760  15.290  1.00  0.00     0.018 A 
HETATM    9  C10 UNK     1      21.907  -3.596  17.078  1.00  0.00     0.038 A 
HETATM   10  C12 UNK     1      21.304  -5.395  15.577  1.00  0.00     0.001 A 
HETATM   11  C13 UNK     1      22.208  -4.815  16.469  1.00  0.00     0.003 A 
ENDROOT
BRANCH   3  12
HETATM   12  C2  UNK     1      19.111   0.169  17.885  1.00  0.00     0.034 A 
HETATM   13  C7  UNK     1      18.938   0.193  19.273  1.00  0.00     0.111 A 
HETATM   14  C11 UNK     1      18.790   1.408  19.941  1.00  0.00     0.099 A 
HETATM   15  C15 UNK     1      18.815   2.606  19.226  1.00  0.00     0.039 A 
HETATM   16  C14 UNK     1      18.988   2.588  17.843  1.00  0.00     0.004 A 
HETATM   17  C8  UNK     1      19.135   1.372  17.173  1.00  0.00     0.017 A 
BRANCH  13  18
HETATM   18  O2  UNK     1      18.911  -0.971  19.985  1.00  0.00    -0.357 OA
HETATM   19  H9  UNK     1      19.678  -1.006  20.580  1.00  0.00     0.217 HD
ENDBRANCH  13  18
BRANCH  14  20
HETATM   20  O4  UNK     1      18.621   1.440  21.293  1.00  0.00    -0.358 OA
HETATM   21  H10 UNK     1      17.840   0.919  21.536  1.00  0.00     0.217 HD
ENDBRANCH  14  20
ENDBRANCH   3  12
TORSDOF 3
ENDMDL
MODEL 9
REMARK VINA RESULT:      -7.8     11.475     13.674
REMARK  3 active torsions:
REMARK  status: ('A' for Active; 'I' for Inactive)
REMARK    1  A    between atoms: C7_11  and  O2_2 
REMARK    2  A    between atoms: C11_15  and  O4_4 
REMARK    3  A    between atoms: C1_5  and  C2_6 
ROOT
HETATM    1  O1  UNK     1      19.024  -0.989  17.650  1.00  0.00    -0.309 OA
HETATM    2  O3  UNK     1      19.313   2.399  15.405  1.00  0.00    -0.287 OA
HETATM    3  C1  UNK     1      19.157  -1.039  16.271  1.00  0.00     0.093 A 
HETATM    4  C3  UNK     1      19.074   1.437  17.551  1.00  0.00     0.048 A 
HETATM    5  C4  UNK     1      18.981   0.240  18.258  1.00  0.00     0.090 A 
HETATM    6  C5  UNK     1      19.260   0.042  15.482  1.00  0.00     0.094 A 
HETATM    7  C6  UNK     1      19.224   1.389  16.088  1.00  0.00     0.187 A 
HETATM    8  C9  UNK     1      19.025   2.661  18.223  1.00  0.00     0.018 A 
HETATM    9  C10 UNK     1      18.840   0.259  19.646  1.00  0.00     0.038 A 
HETATM   10  C12 UNK     1      18.883   2.676  19.611  1.00  0.00     0.001 A 
HETATM   11  C13 UNK     1      18.791   1.479  20.321  1.00  0.00     0.003 A 
ENDROOT
BRANCH   3  12
HETATM   12  C2  UNK     1      19.196  -2.409  15.721  1.00  0.00     0.034 A 
HETATM   13  C7  UNK     1      20.205  -3.309  16.083  1.00  0.00     0.111 A 
HETATM   14  C11 UNK     1      20.220  -4.597  15.550  1.00  0.00     0.099 A 
HETATM   15  C15 UNK     1      19.227  -4.993  14.652  1.00  0.00     0.039 A 
HETATM   16  C14 UNK     1      18.220  -4.101  14.289  1.00  0.00     0.004 A 
HETATM   17  C8  UNK     1      18.204  -2.811  14.822  1.00  0.00     0.017 A 
BRANCH  13  18
HETATM   18  O2  UNK     1      21.183  -2.935  16.959  1.00  0.00    -0.357 OA
HETATM   19  H9  UNK     1      21.197  -1.967  17.037  1.00  0.00     0.217 HD
ENDBRANCH  13  18
BRANCH  14  20
HETATM   20  O4  UNK     1      21.198  -5.480  15.896  1.00  0.00    -0.358 OA
HETATM   21  H10 UNK     1      21.995  -5.305  15.371  1.00  0.00     0.217 HD
ENDBRANCH  14  20
ENDBRANCH   3  12
TORSDOF 3
ENDMDL
MODEL 10
REMARK VINA RESULT:      -7.8     24.681     27.105
REMARK  3 active torsions:
REMARK  status: ('A' for Active; 'I' for Inactive)
REMARK    1  A    between atoms: C7_11  and  O2_2 
REMARK    2  A    between atoms: C11_15  and  O4_4 
REMARK    3  A    between atoms: C1_5  and  C2_6 
ROOT
HETATM    1  O1  UNK     1      18.677   0.343  33.053  1.00  0.00    -0.309 OA
HETATM    2  O3  UNK     1      17.772   4.300  32.704  1.00  0.00    -0.287 OA
HETATM    3  C1  UNK     1      18.262   1.093  34.143  1.00  0.00     0.093 A 
HETATM    4  C3  UNK     1      18.497   2.316  31.646  1.00  0.00     0.048 A 
HETATM    5  C4  UNK     1      18.790   0.966  31.835  1.00  0.00     0.090 A 
HETATM    6  C5  UNK     1      17.947   2.397  34.086  1.00  0.00     0.094 A 
HETATM    7  C6  UNK     1      18.048   3.113  32.798  1.00  0.00     0.187 A 
HETATM    8  C9  UNK     1      18.629   2.897  30.383  1.00  0.00     0.018 A 
HETATM    9  C10 UNK     1      19.216   0.187  30.759  1.00  0.00     0.038 A 
HETATM   10  C12 UNK     1      19.057   2.115  29.309  1.00  0.00     0.001 A 
HETATM   11  C13 UNK     1      19.350   0.764  29.496  1.00  0.00     0.003 A 
ENDROOT
BRANCH   3  12
HETATM   12  C2  UNK     1      18.171   0.325  35.400  1.00  0.00     0.034 A 
HETATM   13  C7  UNK     1      18.341  -1.063  35.418  1.00  0.00     0.111 A 
HETATM   14  C11 UNK     1      18.250  -1.766  36.619  1.00  0.00     0.099 A 
HETATM   15  C15 UNK     1      17.989  -1.084  37.809  1.00  0.00     0.039 A 
HETATM   16  C14 UNK     1      17.820   0.299  37.796  1.00  0.00     0.004 A 
HETATM   17  C8  UNK     1      17.910   1.003  36.594  1.00  0.00     0.017 A 
BRANCH  13  18
HETATM   18  O2  UNK     1      18.596  -1.743  34.262  1.00  0.00    -0.357 OA
HETATM   19  H9  UNK     1      19.393  -1.382  33.841  1.00  0.00     0.217 HD
ENDBRANCH  13  18
BRANCH  14  20
HETATM   20  O4  UNK     1      18.414  -3.118  36.646  1.00  0.00    -0.358 OA
HETATM   21  H10 UNK     1      17.559  -3.553  36.501  1.00  0.00     0.217 HD
ENDBRANCH  14  20
ENDBRANCH   3  12
TORSDOF 3
ENDMDL
