MODEL 1
REMARK VINA RESULT:      -9.1      0.000      0.000
REMARK  5 active torsions:
REMARK  status: ('A' for Active; 'I' for Inactive)
REMARK    1  A    between atoms: C10_15  and  O3_3 
REMARK    2  A    between atoms: C14_19  and  O4_4 
REMARK    3  A    between atoms: C3_8  and  C9_14 
REMARK    4  A    between atoms: C11_16  and  C7_12 
REMARK    5  A    between atoms: C12_17  and  C9_14 
ROOT
HETATM    1  C11 UNK     1      19.003   4.232  30.532  1.00  0.00     0.018 C 
HETATM    2  C12 UNK     1      18.178   3.179  30.423  1.00  0.00     0.056 C 
ENDROOT
BRANCH   2   3
HETATM    3  C9  UNK     1      18.379   2.158  29.340  1.00  0.00     0.182 C 
HETATM    4  O5  UNK     1      18.013   2.391  28.178  1.00  0.00    -0.288 OA
BRANCH   3   5
HETATM    5  C3  UNK     1      19.038   0.905  29.677  1.00  0.00     0.017 A 
HETATM    6  C4  UNK     1      19.197   0.545  31.017  1.00  0.00     0.055 A 
HETATM    7  C1  UNK     1      19.829  -0.652  31.287  1.00  0.00     0.105 A 
HETATM    8  O1  UNK     1      20.073  -1.165  32.524  1.00  0.00    -0.323 OA
HETATM    9  C2  UNK     1      20.290  -1.470  30.282  1.00  0.00     0.105 A 
HETATM   10  C8  UNK     1      20.740  -2.397  32.184  1.00  0.00     0.352 A 
HETATM   11  O2  UNK     1      20.882  -2.597  30.764  1.00  0.00    -0.323 OA
HETATM   12  C5  UNK     1      20.147  -1.138  28.951  1.00  0.00     0.040 A 
HETATM   13  C6  UNK     1      19.511   0.069  28.649  1.00  0.00     0.018 A 
ENDBRANCH   3   5
ENDBRANCH   2   3
BRANCH   1  14
HETATM   14  C7  UNK     1      18.895   5.275  31.566  1.00  0.00    -0.000 A 
HETATM   15  C10 UNK     1      20.007   6.023  31.953  1.00  0.00     0.078 A 
HETATM   16  C15 UNK     1      19.880   7.005  32.935  1.00  0.00     0.040 A 
HETATM   17  C16 UNK     1      18.641   7.240  33.531  1.00  0.00     0.039 A 
HETATM   18  C14 UNK     1      17.529   6.492  33.144  1.00  0.00     0.069 A 
HETATM   19  C13 UNK     1      17.656   5.509  32.162  1.00  0.00     0.051 A 
BRANCH  15  20
HETATM   20  O3  UNK     1      21.230   5.814  31.387  1.00  0.00    -0.355 OA
HETATM   21  C17 UNK     1      22.358   5.822  32.260  1.00  0.00     0.210 C 
ENDBRANCH  15  20
BRANCH  18  22
HETATM   22  O4  UNK     1      16.320   6.721  33.725  1.00  0.00    -0.356 OA
HETATM   23  C18 UNK     1      16.263   7.735  34.728  1.00  0.00     0.210 C 
ENDBRANCH  18  22
ENDBRANCH   1  14
TORSDOF 5
ENDMDL
MODEL 2
REMARK VINA RESULT:      -8.2      0.930      2.771
REMARK  5 active torsions:
REMARK  status: ('A' for Active; 'I' for Inactive)
REMARK    1  A    between atoms: C10_15  and  O3_3 
REMARK    2  A    between atoms: C14_19  and  O4_4 
REMARK    3  A    between atoms: C3_8  and  C9_14 
REMARK    4  A    between atoms: C11_16  and  C7_12 
REMARK    5  A    between atoms: C12_17  and  C9_14 
ROOT
HETATM    1  C11 UNK     1      17.983   4.140  30.991  1.00  0.00     0.018 C 
HETATM    2  C12 UNK     1      18.858   3.474  30.222  1.00  0.00     0.056 C 
ENDROOT
BRANCH   2   3
HETATM    3  C9  UNK     1      18.420   2.283  29.418  1.00  0.00     0.182 C 
HETATM    4  O5  UNK     1      17.562   2.404  28.530  1.00  0.00    -0.288 OA
BRANCH   3   5
HETATM    5  C3  UNK     1      19.044   0.996  29.683  1.00  0.00     0.017 A 
HETATM    6  C4  UNK     1      19.262   0.590  31.002  1.00  0.00     0.055 A 
HETATM    7  C1  UNK     1      19.858  -0.638  31.202  1.00  0.00     0.105 A 
HETATM    8  O1  UNK     1      20.148  -1.197  32.409  1.00  0.00    -0.323 OA
HETATM    9  C2  UNK     1      20.229  -1.444  30.151  1.00  0.00     0.105 A 
HETATM   10  C8  UNK     1      20.744  -2.444  31.999  1.00  0.00     0.352 A 
HETATM   11  O2  UNK     1      20.799  -2.608  30.568  1.00  0.00    -0.323 OA
HETATM   12  C5  UNK     1      20.026  -1.067  28.839  1.00  0.00     0.040 A 
HETATM   13  C6  UNK     1      19.425   0.173  28.608  1.00  0.00     0.018 A 
ENDBRANCH   3   5
ENDBRANCH   2   3
BRANCH   1  14
HETATM   14  C7  UNK     1      18.315   5.324  31.801  1.00  0.00    -0.000 A 
HETATM   15  C10 UNK     1      17.313   6.147  32.317  1.00  0.00     0.078 A 
HETATM   16  C15 UNK     1      17.652   7.263  33.081  1.00  0.00     0.040 A 
HETATM   17  C16 UNK     1      18.993   7.558  33.331  1.00  0.00     0.039 A 
HETATM   18  C14 UNK     1      19.995   6.735  32.815  1.00  0.00     0.069 A 
HETATM   19  C13 UNK     1      19.655   5.619  32.049  1.00  0.00     0.051 A 
BRANCH  15  20
HETATM   20  O3  UNK     1      15.995   5.883  32.089  1.00  0.00    -0.355 OA
HETATM   21  C17 UNK     1      15.114   7.001  32.016  1.00  0.00     0.210 C 
ENDBRANCH  15  20
BRANCH  18  22
HETATM   22  O4  UNK     1      21.302   7.022  33.058  1.00  0.00    -0.356 OA
HETATM   23  C18 UNK     1      22.275   6.133  32.508  1.00  0.00     0.210 C 
ENDBRANCH  18  22
ENDBRANCH   1  14
TORSDOF 5
ENDMDL
MODEL 3
REMARK VINA RESULT:      -8.1      6.253     11.254
REMARK  5 active torsions:
REMARK  status: ('A' for Active; 'I' for Inactive)
REMARK    1  A    between atoms: C10_15  and  O3_3 
REMARK    2  A    between atoms: C14_19  and  O4_4 
REMARK    3  A    between atoms: C3_8  and  C9_14 
REMARK    4  A    between atoms: C11_16  and  C7_12 
REMARK    5  A    between atoms: C12_17  and  C9_14 
ROOT
HETATM    1  C11 UNK     1      20.006  -4.585  36.409  1.00  0.00     0.018 C 
HETATM    2  C12 UNK     1      20.543  -3.410  36.771  1.00  0.00     0.056 C 
ENDROOT
BRANCH   2   3
HETATM    3  C9  UNK     1      20.582  -2.257  35.809  1.00  0.00     0.182 C 
HETATM    4  O5  UNK     1      21.650  -1.920  35.272  1.00  0.00    -0.288 OA
BRANCH   3   5
HETATM    5  C3  UNK     1      19.341  -1.565  35.499  1.00  0.00     0.017 A 
HETATM    6  C4  UNK     1      18.526  -1.107  36.537  1.00  0.00     0.055 A 
HETATM    7  C1  UNK     1      17.358  -0.458  36.193  1.00  0.00     0.105 A 
HETATM    8  O1  UNK     1      16.444   0.054  37.062  1.00  0.00    -0.323 OA
HETATM    9  C2  UNK     1      16.997  -0.262  34.880  1.00  0.00     0.105 A 
HETATM   10  C8  UNK     1      15.467   0.594  36.148  1.00  0.00     0.352 A 
HETATM   11  O2  UNK     1      15.811   0.396  34.762  1.00  0.00    -0.323 OA
HETATM   12  C5  UNK     1      17.783  -0.705  33.836  1.00  0.00     0.040 A 
HETATM   13  C6  UNK     1      18.972  -1.367  34.156  1.00  0.00     0.018 A 
ENDBRANCH   3   5
ENDBRANCH   2   3
BRANCH   1  14
HETATM   14  C7  UNK     1      19.910  -5.765  37.285  1.00  0.00    -0.000 A 
HETATM   15  C10 UNK     1      18.802  -6.610  37.235  1.00  0.00     0.078 A 
HETATM   16  C15 UNK     1      18.733  -7.721  38.075  1.00  0.00     0.040 A 
HETATM   17  C16 UNK     1      19.773  -7.989  38.965  1.00  0.00     0.039 A 
HETATM   18  C14 UNK     1      20.882  -7.144  39.015  1.00  0.00     0.069 A 
HETATM   19  C13 UNK     1      20.950  -6.032  38.176  1.00  0.00     0.051 A 
BRANCH  15  20
HETATM   20  O3  UNK     1      17.771  -6.373  36.375  1.00  0.00    -0.355 OA
HETATM   21  C17 UNK     1      17.482  -7.386  35.414  1.00  0.00     0.210 C 
ENDBRANCH  15  20
BRANCH  18  22
HETATM   22  O4  UNK     1      21.897  -7.404  39.884  1.00  0.00    -0.356 OA
HETATM   23  C18 UNK     1      23.224  -7.374  39.359  1.00  0.00     0.210 C 
ENDBRANCH  18  22
ENDBRANCH   1  14
TORSDOF 5
ENDMDL
MODEL 4
REMARK VINA RESULT:      -7.9      1.808      2.692
REMARK  5 active torsions:
REMARK  status: ('A' for Active; 'I' for Inactive)
REMARK    1  A    between atoms: C10_15  and  O3_3 
REMARK    2  A    between atoms: C14_19  and  O4_4 
REMARK    3  A    between atoms: C3_8  and  C9_14 
REMARK    4  A    between atoms: C11_16  and  C7_12 
REMARK    5  A    between atoms: C12_17  and  C9_14 
ROOT
HETATM    1  C11 UNK     1      17.970   4.930  33.597  1.00  0.00     0.018 C 
HETATM    2  C12 UNK     1      18.166   4.210  32.483  1.00  0.00     0.056 C 
ENDROOT
BRANCH   2   3
HETATM    3  C9  UNK     1      18.067   2.711  32.513  1.00  0.00     0.182 C 
HETATM    4  O5  UNK     1      17.600   2.130  33.505  1.00  0.00    -0.288 OA
BRANCH   3   5
HETATM    5  C3  UNK     1      18.501   1.960  31.345  1.00  0.00     0.017 A 
HETATM    6  C4  UNK     1      19.282   0.813  31.510  1.00  0.00     0.055 A 
HETATM    7  C1  UNK     1      19.670   0.135  30.373  1.00  0.00     0.105 A 
HETATM    8  O1  UNK     1      20.428  -0.995  30.337  1.00  0.00    -0.323 OA
HETATM    9  C2  UNK     1      19.309   0.561  29.116  1.00  0.00     0.105 A 
HETATM   10  C8  UNK     1      20.503  -1.231  28.917  1.00  0.00     0.352 A 
HETATM   11  O2  UNK     1      19.796  -0.248  28.136  1.00  0.00    -0.323 OA
HETATM   12  C5  UNK     1      18.539   1.690  28.925  1.00  0.00     0.040 A 
HETATM   13  C6  UNK     1      18.133   2.397  30.060  1.00  0.00     0.018 A 
ENDBRANCH   3   5
ENDBRANCH   2   3
BRANCH   1  14
HETATM   14  C7  UNK     1      18.032   6.400  33.663  1.00  0.00    -0.000 A 
HETATM   15  C10 UNK     1      19.255   7.065  33.760  1.00  0.00     0.078 A 
HETATM   16  C15 UNK     1      19.288   8.458  33.821  1.00  0.00     0.040 A 
HETATM   17  C16 UNK     1      18.100   9.187  33.784  1.00  0.00     0.039 A 
HETATM   18  C14 UNK     1      16.877   8.523  33.687  1.00  0.00     0.069 A 
HETATM   19  C13 UNK     1      16.844   7.129  33.627  1.00  0.00     0.051 A 
BRANCH  15  20
HETATM   20  O3  UNK     1      20.432   6.378  33.798  1.00  0.00    -0.355 OA
HETATM   21  C17 UNK     1      21.242   6.416  32.625  1.00  0.00     0.210 C 
ENDBRANCH  15  20
BRANCH  18  22
HETATM   22  O4  UNK     1      15.718   9.234  33.652  1.00  0.00    -0.356 OA
HETATM   23  C18 UNK     1      14.516   8.530  33.965  1.00  0.00     0.210 C 
ENDBRANCH  18  22
ENDBRANCH   1  14
TORSDOF 5
ENDMDL
MODEL 5
REMARK VINA RESULT:      -7.8      3.126      4.415
REMARK  5 active torsions:
REMARK  status: ('A' for Active; 'I' for Inactive)
REMARK    1  A    between atoms: C10_15  and  O3_3 
REMARK    2  A    between atoms: C14_19  and  O4_4 
REMARK    3  A    between atoms: C3_8  and  C9_14 
REMARK    4  A    between atoms: C11_16  and  C7_12 
REMARK    5  A    between atoms: C12_17  and  C9_14 
ROOT
HETATM    1  C11 UNK     1      17.766   2.506  32.622  1.00  0.00     0.018 C 
HETATM    2  C12 UNK     1      18.095   2.020  33.829  1.00  0.00     0.056 C 
ENDROOT
BRANCH   2   3
HETATM    3  C9  UNK     1      17.458   0.763  34.349  1.00  0.00     0.182 C 
HETATM    4  O5  UNK     1      16.223   0.673  34.438  1.00  0.00    -0.288 OA
BRANCH   3   5
HETATM    5  C3  UNK     1      18.315  -0.354  34.714  1.00  0.00     0.017 A 
HETATM    6  C4  UNK     1      18.438  -0.721  36.057  1.00  0.00     0.055 A 
HETATM    7  C1  UNK     1      19.264  -1.786  36.355  1.00  0.00     0.105 A 
HETATM    8  O1  UNK     1      19.507  -2.284  37.598  1.00  0.00    -0.323 OA
HETATM    9  C2  UNK     1      19.947  -2.469  35.376  1.00  0.00     0.105 A 
HETATM   10  C8  UNK     1      20.419  -3.357  37.291  1.00  0.00     0.352 A 
HETATM   11  O2  UNK     1      20.704  -3.480  35.884  1.00  0.00    -0.323 OA
HETATM   12  C5  UNK     1      19.844  -2.127  34.044  1.00  0.00     0.040 A 
HETATM   13  C6  UNK     1      19.015  -1.051  33.714  1.00  0.00     0.018 A 
ENDBRANCH   3   5
ENDBRANCH   2   3
BRANCH   1  14
HETATM   14  C7  UNK     1      18.346   3.720  32.023  1.00  0.00    -0.000 A 
HETATM   15  C10 UNK     1      18.897   3.698  30.742  1.00  0.00     0.078 A 
HETATM   16  C15 UNK     1      19.440   4.860  30.196  1.00  0.00     0.040 A 
HETATM   17  C16 UNK     1      19.432   6.046  30.931  1.00  0.00     0.039 A 
HETATM   18  C14 UNK     1      18.881   6.069  32.212  1.00  0.00     0.069 A 
HETATM   19  C13 UNK     1      18.338   4.905  32.758  1.00  0.00     0.051 A 
BRANCH  15  20
HETATM   20  O3  UNK     1      18.918   2.553  30.002  1.00  0.00    -0.355 OA
HETATM   21  C17 UNK     1      18.020   2.479  28.896  1.00  0.00     0.210 C 
ENDBRANCH  15  20
BRANCH  18  22
HETATM   22  O4  UNK     1      18.874   7.225  32.929  1.00  0.00    -0.356 OA
HETATM   23  C18 UNK     1      17.679   8.005  32.890  1.00  0.00     0.210 C 
ENDBRANCH  18  22
ENDBRANCH   1  14
TORSDOF 5
ENDMDL
MODEL 6
REMARK VINA RESULT:      -7.8      2.030      7.838
REMARK  5 active torsions:
REMARK  status: ('A' for Active; 'I' for Inactive)
REMARK    1  A    between atoms: C10_15  and  O3_3 
REMARK    2  A    between atoms: C14_19  and  O4_4 
REMARK    3  A    between atoms: C3_8  and  C9_14 
REMARK    4  A    between atoms: C11_16  and  C7_12 
REMARK    5  A    between atoms: C12_17  and  C9_14 
ROOT
HETATM    1  C11 UNK     1      18.401   3.166  31.159  1.00  0.00     0.018 C 
HETATM    2  C12 UNK     1      19.294   4.037  30.668  1.00  0.00     0.056 C 
ENDROOT
BRANCH   2   3
HETATM    3  C9  UNK     1      18.897   5.454  30.365  1.00  0.00     0.182 C 
HETATM    4  O5  UNK     1      18.666   5.808  29.198  1.00  0.00    -0.288 OA
BRANCH   3   5
HETATM    5  C3  UNK     1      18.758   6.391  31.469  1.00  0.00     0.017 A 
HETATM    6  C4  UNK     1      17.644   7.233  31.527  1.00  0.00     0.055 A 
HETATM    7  C1  UNK     1      17.557   8.105  32.592  1.00  0.00     0.105 A 
HETATM    8  O1  UNK     1      16.552   8.995  32.814  1.00  0.00    -0.323 OA
HETATM    9  C2  UNK     1      18.524   8.155  33.570  1.00  0.00     0.105 A 
HETATM   10  C8  UNK     1      16.995   9.611  34.041  1.00  0.00     0.352 A 
HETATM   11  O2  UNK     1      18.246   9.083  34.525  1.00  0.00    -0.323 OA
HETATM   12  C5  UNK     1      19.633   7.335  33.536  1.00  0.00     0.040 A 
HETATM   13  C6  UNK     1      19.747   6.442  32.467  1.00  0.00     0.018 A 
ENDBRANCH   3   5
ENDBRANCH   2   3
BRANCH   1  14
HETATM   14  C7  UNK     1      18.700   1.764  31.500  1.00  0.00    -0.000 A 
HETATM   15  C10 UNK     1      18.321   1.226  32.729  1.00  0.00     0.078 A 
HETATM   16  C15 UNK     1      18.616  -0.104  33.029  1.00  0.00     0.040 A 
HETATM   17  C16 UNK     1      19.289  -0.896  32.099  1.00  0.00     0.039 A 
HETATM   18  C14 UNK     1      19.668  -0.358  30.869  1.00  0.00     0.069 A 
HETATM   19  C13 UNK     1      19.374   0.973  30.570  1.00  0.00     0.051 A 
BRANCH  15  20
HETATM   20  O3  UNK     1      17.662   1.977  33.657  1.00  0.00    -0.355 OA
HETATM   21  C17 UNK     1      18.305   2.164  34.915  1.00  0.00     0.210 C 
ENDBRANCH  15  20
BRANCH  18  22
HETATM   22  O4  UNK     1      20.325  -1.130  29.962  1.00  0.00    -0.356 OA
HETATM   23  C18 UNK     1      20.107  -0.838  28.582  1.00  0.00     0.210 C 
ENDBRANCH  18  22
ENDBRANCH   1  14
TORSDOF 5
ENDMDL
MODEL 7
REMARK VINA RESULT:      -7.8      2.984      5.911
REMARK  5 active torsions:
REMARK  status: ('A' for Active; 'I' for Inactive)
REMARK    1  A    between atoms: C10_15  and  O3_3 
REMARK    2  A    between atoms: C14_19  and  O4_4 
REMARK    3  A    between atoms: C3_8  and  C9_14 
REMARK    4  A    between atoms: C11_16  and  C7_12 
REMARK    5  A    between atoms: C12_17  and  C9_14 
ROOT
HETATM    1  C11 UNK     1      17.132   7.488  33.762  1.00  0.00     0.018 C 
HETATM    2  C12 UNK     1      18.469   7.441  33.854  1.00  0.00     0.056 C 
ENDROOT
BRANCH   2   3
HETATM    3  C9  UNK     1      19.206   6.149  33.645  1.00  0.00     0.182 C 
HETATM    4  O5  UNK     1      19.908   5.670  34.549  1.00  0.00    -0.288 OA
BRANCH   3   5
HETATM    5  C3  UNK     1      19.055   5.458  32.373  1.00  0.00     0.017 A 
HETATM    6  C4  UNK     1      18.391   4.229  32.328  1.00  0.00     0.055 A 
HETATM    7  C1  UNK     1      18.274   3.611  31.100  1.00  0.00     0.105 A 
HETATM    8  O1  UNK     1      17.664   2.418  30.862  1.00  0.00    -0.323 OA
HETATM    9  C2  UNK     1      18.788   4.173  29.954  1.00  0.00     0.105 A 
HETATM   10  C8  UNK     1      17.852   2.291  29.438  1.00  0.00     0.352 A 
HETATM   11  O2  UNK     1      18.565   3.401  28.855  1.00  0.00    -0.323 OA
HETATM   12  C5  UNK     1      19.449   5.383  29.971  1.00  0.00     0.040 A 
HETATM   13  C6  UNK     1      19.582   6.031  31.202  1.00  0.00     0.018 A 
ENDBRANCH   3   5
ENDBRANCH   2   3
BRANCH   1  14
HETATM   14  C7  UNK     1      16.325   8.708  33.936  1.00  0.00    -0.000 A 
HETATM   15  C10 UNK     1      14.931   8.659  33.911  1.00  0.00     0.078 A 
HETATM   16  C15 UNK     1      14.189   9.827  34.079  1.00  0.00     0.040 A 
HETATM   17  C16 UNK     1      14.839  11.046  34.272  1.00  0.00     0.039 A 
HETATM   18  C14 UNK     1      16.233  11.096  34.297  1.00  0.00     0.069 A 
HETATM   19  C13 UNK     1      16.976   9.927  34.128  1.00  0.00     0.051 A 
BRANCH  15  20
HETATM   20  O3  UNK     1      14.269   7.482  33.725  1.00  0.00    -0.355 OA
HETATM   21  C17 UNK     1      13.780   7.214  32.412  1.00  0.00     0.210 C 
ENDBRANCH  15  20
BRANCH  18  22
HETATM   22  O4  UNK     1      16.868  12.284  34.485  1.00  0.00    -0.356 OA
HETATM   23  C18 UNK     1      18.208  12.387  34.005  1.00  0.00     0.210 C 
ENDBRANCH  18  22
ENDBRANCH   1  14
TORSDOF 5
ENDMDL
MODEL 8
REMARK VINA RESULT:      -7.8      6.813      9.973
REMARK  5 active torsions:
REMARK  status: ('A' for Active; 'I' for Inactive)
REMARK    1  A    between atoms: C10_15  and  O3_3 
REMARK    2  A    between atoms: C14_19  and  O4_4 
REMARK    3  A    between atoms: C3_8  and  C9_14 
REMARK    4  A    between atoms: C11_16  and  C7_12 
REMARK    5  A    between atoms: C12_17  and  C9_14 
ROOT
HETATM    1  C11 UNK     1      20.444  -3.162  36.715  1.00  0.00     0.018 C 
HETATM    2  C12 UNK     1      20.208  -4.479  36.808  1.00  0.00     0.056 C 
ENDROOT
BRANCH   2   3
HETATM    3  C9  UNK     1      21.163  -5.380  37.538  1.00  0.00     0.182 C 
HETATM    4  O5  UNK     1      22.304  -4.985  37.829  1.00  0.00    -0.288 OA
BRANCH   3   5
HETATM    5  C3  UNK     1      20.714  -6.709  37.922  1.00  0.00     0.017 A 
HETATM    6  C4  UNK     1      20.745  -7.746  36.986  1.00  0.00     0.055 A 
HETATM    7  C1  UNK     1      20.308  -8.989  37.397  1.00  0.00     0.105 A 
HETATM    8  O1  UNK     1      20.264 -10.113  36.630  1.00  0.00    -0.323 OA
HETATM    9  C2  UNK     1      19.856  -9.213  38.677  1.00  0.00     0.105 A 
HETATM   10  C8  UNK     1      19.734 -11.068  37.571  1.00  0.00     0.352 A 
HETATM   11  O2  UNK     1      19.472 -10.504  38.871  1.00  0.00    -0.323 OA
HETATM   12  C5  UNK     1      19.815  -8.206  39.619  1.00  0.00     0.040 A 
HETATM   13  C6  UNK     1      20.251  -6.937  39.230  1.00  0.00     0.018 A 
ENDBRANCH   3   5
ENDBRANCH   2   3
BRANCH   1  14
HETATM   14  C7  UNK     1      19.560  -2.200  36.034  1.00  0.00    -0.000 A 
HETATM   15  C10 UNK     1      19.718  -1.914  34.678  1.00  0.00     0.078 A 
HETATM   16  C15 UNK     1      18.869  -1.000  34.055  1.00  0.00     0.040 A 
HETATM   17  C16 UNK     1      17.861  -0.372  34.787  1.00  0.00     0.039 A 
HETATM   18  C14 UNK     1      17.703  -0.659  36.143  1.00  0.00     0.069 A 
HETATM   19  C13 UNK     1      18.553  -1.572  36.767  1.00  0.00     0.051 A 
BRANCH  15  20
HETATM   20  O3  UNK     1      20.694  -2.513  33.939  1.00  0.00    -0.355 OA
HETATM   21  C17 UNK     1      20.624  -2.354  32.523  1.00  0.00     0.210 C 
ENDBRANCH  15  20
BRANCH  18  22
HETATM   22  O4  UNK     1      16.720  -0.046  36.858  1.00  0.00    -0.356 OA
HETATM   23  C18 UNK     1      17.087   1.115  37.603  1.00  0.00     0.210 C 
ENDBRANCH  18  22
ENDBRANCH   1  14
TORSDOF 5
ENDMDL
MODEL 9
REMARK VINA RESULT:      -7.8     22.006     24.382
REMARK  5 active torsions:
REMARK  status: ('A' for Active; 'I' for Inactive)
REMARK    1  A    between atoms: C10_15  and  O3_3 
REMARK    2  A    between atoms: C14_19  and  O4_4 
REMARK    3  A    between atoms: C3_8  and  C9_14 
REMARK    4  A    between atoms: C11_16  and  C7_12 
REMARK    5  A    between atoms: C12_17  and  C9_14 
ROOT
HETATM    1  C11 UNK     1      13.050   7.731   8.249  1.00  0.00     0.018 C 
HETATM    2  C12 UNK     1      13.061   6.689   7.405  1.00  0.00     0.056 C 
ENDROOT
BRANCH   2   3
HETATM    3  C9  UNK     1      11.835   6.332   6.613  1.00  0.00     0.182 C 
HETATM    4  O5  UNK     1      11.904   6.169   5.384  1.00  0.00    -0.288 OA
BRANCH   3   5
HETATM    5  C3  UNK     1      10.577   6.151   7.319  1.00  0.00     0.017 A 
HETATM    6  C4  UNK     1      10.574   5.572   8.591  1.00  0.00     0.055 A 
HETATM    7  C1  UNK     1       9.356   5.420   9.221  1.00  0.00     0.105 A 
HETATM    8  O1  UNK     1       9.157   4.879  10.454  1.00  0.00    -0.323 OA
HETATM    9  C2  UNK     1       8.179   5.819   8.630  1.00  0.00     0.105 A 
HETATM   10  C8  UNK     1       7.724   4.983  10.573  1.00  0.00     0.352 A 
HETATM   11  O2  UNK     1       7.097   5.578   9.419  1.00  0.00    -0.323 OA
HETATM   12  C5  UNK     1       8.154   6.392   7.376  1.00  0.00     0.040 A 
HETATM   13  C6  UNK     1       9.374   6.558   6.714  1.00  0.00     0.018 A 
ENDBRANCH   3   5
ENDBRANCH   2   3
BRANCH   1  14
HETATM   14  C7  UNK     1      14.204   8.165   9.055  1.00  0.00    -0.000 A 
HETATM   15  C10 UNK     1      14.688   7.379  10.101  1.00  0.00     0.078 A 
HETATM   16  C15 UNK     1      15.782   7.811  10.850  1.00  0.00     0.040 A 
HETATM   17  C16 UNK     1      16.394   9.029  10.554  1.00  0.00     0.039 A 
HETATM   18  C14 UNK     1      15.910   9.816   9.508  1.00  0.00     0.069 A 
HETATM   19  C13 UNK     1      14.815   9.384   8.759  1.00  0.00     0.051 A 
BRANCH  15  20
HETATM   20  O3  UNK     1      14.110   6.184  10.412  1.00  0.00    -0.355 OA
HETATM   21  C17 UNK     1      14.891   5.011  10.195  1.00  0.00     0.210 C 
ENDBRANCH  15  20
BRANCH  18  22
HETATM   22  O4  UNK     1      16.506  11.005   9.219  1.00  0.00    -0.356 OA
HETATM   23  C18 UNK     1      17.850  10.958   8.742  1.00  0.00     0.210 C 
ENDBRANCH  18  22
ENDBRANCH   1  14
TORSDOF 5
ENDMDL
MODEL 10
REMARK VINA RESULT:      -7.8      2.184      3.987
REMARK  5 active torsions:
REMARK  status: ('A' for Active; 'I' for Inactive)
REMARK    1  A    between atoms: C10_15  and  O3_3 
REMARK    2  A    between atoms: C14_19  and  O4_4 
REMARK    3  A    between atoms: C3_8  and  C9_14 
REMARK    4  A    between atoms: C11_16  and  C7_12 
REMARK    5  A    between atoms: C12_17  and  C9_14 
ROOT
HETATM    1  C11 UNK     1      17.444   5.419  33.308  1.00  0.00     0.018 C 
HETATM    2  C12 UNK     1      18.075   4.708  32.361  1.00  0.00     0.056 C 
ENDROOT
BRANCH   2   3
HETATM    3  C9  UNK     1      18.193   3.215  32.476  1.00  0.00     0.182 C 
HETATM    4  O5  UNK     1      18.061   2.655  33.576  1.00  0.00    -0.288 OA
BRANCH   3   5
HETATM    5  C3  UNK     1      18.433   2.439  31.269  1.00  0.00     0.017 A 
HETATM    6  C4  UNK     1      19.208   1.279  31.335  1.00  0.00     0.055 A 
HETATM    7  C1  UNK     1      19.410   0.577  30.164  1.00  0.00     0.105 A 
HETATM    8  O1  UNK     1      20.133  -0.568  30.034  1.00  0.00    -0.323 OA
HETATM    9  C2  UNK     1      18.872   0.994  28.968  1.00  0.00     0.105 A 
HETATM   10  C8  UNK     1      19.990  -0.826  28.622  1.00  0.00     0.352 A 
HETATM   11  O2  UNK     1      19.193   0.162  27.939  1.00  0.00    -0.323 OA
HETATM   12  C5  UNK     1      18.104   2.136  28.875  1.00  0.00     0.040 A 
HETATM   13  C6  UNK     1      17.885   2.866  30.046  1.00  0.00     0.018 A 
ENDBRANCH   3   5
ENDBRANCH   2   3
BRANCH   1  14
HETATM   14  C7  UNK     1      17.267   6.881  33.275  1.00  0.00    -0.000 A 
HETATM   15  C10 UNK     1      16.100   7.453  32.768  1.00  0.00     0.078 A 
HETATM   16  C15 UNK     1      15.955   8.840  32.747  1.00  0.00     0.040 A 
HETATM   17  C16 UNK     1      16.976   9.656  33.233  1.00  0.00     0.039 A 
HETATM   18  C14 UNK     1      18.143   9.084  33.740  1.00  0.00     0.069 A 
HETATM   19  C13 UNK     1      18.288   7.697  33.760  1.00  0.00     0.051 A 
BRANCH  15  20
HETATM   20  O3  UNK     1      15.085   6.679  32.286  1.00  0.00    -0.355 OA
HETATM   21  C17 UNK     1      13.805   7.294  32.161  1.00  0.00     0.210 C 
ENDBRANCH  15  20
BRANCH  18  22
HETATM   22  O4  UNK     1      19.140   9.880  34.215  1.00  0.00    -0.356 OA
HETATM   23  C18 UNK     1      20.393   9.255  34.491  1.00  0.00     0.210 C 
ENDBRANCH  18  22
ENDBRANCH   1  14
TORSDOF 5
ENDMDL
