MODEL 1
REMARK VINA RESULT:      -8.5      0.000      0.000
REMARK  2 active torsions:
REMARK  status: ('A' for Active; 'I' for Inactive)
REMARK    1  A    between atoms: C11_17  and  N1_5 
REMARK       I    between atoms: C8_14  and  N1_5 
REMARK    2  A    between atoms: C3_9  and  C8_14 
ROOT
HETATM    1 Br1  UNK     1      13.839  10.315  33.102  1.00  0.00    -0.051 Br
HETATM    2  O1  UNK     1      19.340   7.799  33.563  1.00  0.00    -0.274 OA
HETATM    3  O2  UNK     1      20.910   6.310  32.826  1.00  0.00    -0.259 OA
HETATM    4  C1  UNK     1      17.192   7.936  32.431  1.00  0.00     0.000 A 
HETATM    5  C2  UNK     1      18.057   8.366  33.433  1.00  0.00     0.089 A 
HETATM    6  C3  UNK     1      18.854   6.357  31.648  1.00  0.00     0.108 A 
HETATM    7  C4  UNK     1      17.634   6.892  31.520  1.00  0.00     0.037 A 
HETATM    8  C5  UNK     1      15.928   8.523  32.335  1.00  0.00     0.033 A 
HETATM    9  C6  UNK     1      19.791   6.798  32.706  1.00  0.00     0.304 A 
HETATM   10  C7  UNK     1      17.695   9.363  34.337  1.00  0.00     0.039 A 
HETATM   11  C9  UNK     1      15.551   9.524  33.236  1.00  0.00     0.011 A 
HETATM   12  C10 UNK     1      16.434   9.942  34.234  1.00  0.00     0.022 A 
ENDROOT
BRANCH   6  13
HETATM   13  C8  UNK     1      19.207   5.310  30.682  1.00  0.00     0.262 C 
HETATM   14  O3  UNK     1      20.004   5.557  29.779  1.00  0.00    -0.267 OA
HETATM   15  N1  UNK     1      18.550   4.115  30.941  1.00  0.00    -0.321 N 
HETATM   16  H5  UNK     1      17.932   4.066  31.748  1.00  0.00     0.169 HD
BRANCH  15  17
HETATM   17  C11 UNK     1      18.649   2.900  30.218  1.00  0.00     0.052 A 
HETATM   18  C12 UNK     1      19.279   1.811  30.779  1.00  0.00     0.032 A 
HETATM   19  C14 UNK     1      19.362   0.632  30.046  1.00  0.00     0.021 A 
HETATM   20  C15 UNK     1      18.801   0.615  28.779  1.00  0.00     0.116 A 
HETATM   21  N2  UNK     1      18.179   1.674  28.213  1.00  0.00    -0.271 NA
HETATM   22  C13 UNK     1      18.118   2.801  28.956  1.00  0.00     0.145 A 
ENDBRANCH  15  17
ENDBRANCH   6  13
TORSDOF 2
ENDMDL
MODEL 2
REMARK VINA RESULT:      -8.5      4.090      8.332
REMARK  2 active torsions:
REMARK  status: ('A' for Active; 'I' for Inactive)
REMARK    1  A    between atoms: C11_17  and  N1_5 
REMARK       I    between atoms: C8_14  and  N1_5 
REMARK    2  A    between atoms: C3_9  and  C8_14 
ROOT
HETATM    1 Br1  UNK     1      21.171  -3.597  31.527  1.00  0.00    -0.051 Br
HETATM    2  O1  UNK     1      19.180   1.447  28.808  1.00  0.00    -0.274 OA
HETATM    3  O2  UNK     1      18.327   3.564  28.932  1.00  0.00    -0.259 OA
HETATM    4  C1  UNK     1      19.644   0.220  30.855  1.00  0.00     0.000 A 
HETATM    5  C2  UNK     1      19.637   0.288  29.465  1.00  0.00     0.089 A 
HETATM    6  C3  UNK     1      18.741   2.463  30.989  1.00  0.00     0.108 A 
HETATM    7  C4  UNK     1      19.173   1.364  31.619  1.00  0.00     0.037 A 
HETATM    8  C5  UNK     1      20.106  -0.947  31.469  1.00  0.00     0.033 A 
HETATM    9  C6  UNK     1      18.723   2.559  29.512  1.00  0.00     0.304 A 
HETATM   10  C7  UNK     1      20.076  -0.773  28.676  1.00  0.00     0.039 A 
HETATM   11  C9  UNK     1      20.548  -2.020  30.690  1.00  0.00     0.011 A 
HETATM   12  C10 UNK     1      20.534  -1.932  29.296  1.00  0.00     0.022 A 
ENDROOT
BRANCH   6  13
HETATM   13  C8  UNK     1      18.285   3.564  31.846  1.00  0.00     0.262 C 
HETATM   14  O3  UNK     1      17.568   3.327  32.816  1.00  0.00    -0.267 OA
HETATM   15  N1  UNK     1      18.757   4.796  31.411  1.00  0.00    -0.321 N 
HETATM   16  H5  UNK     1      19.363   4.822  30.595  1.00  0.00     0.169 HD
BRANCH  15  17
HETATM   17  C11 UNK     1      18.517   6.066  31.991  1.00  0.00     0.052 A 
HETATM   18  C12 UNK     1      19.344   6.540  32.987  1.00  0.00     0.032 A 
HETATM   19  C14 UNK     1      19.084   7.790  33.537  1.00  0.00     0.021 A 
HETATM   20  C15 UNK     1      17.998   8.500  33.051  1.00  0.00     0.116 A 
HETATM   21  N2  UNK     1      17.177   8.052  32.075  1.00  0.00    -0.271 NA
HETATM   22  C13 UNK     1      17.461   6.834  31.564  1.00  0.00     0.145 A 
ENDBRANCH  15  17
ENDBRANCH   6  13
TORSDOF 2
ENDMDL
MODEL 3
REMARK VINA RESULT:      -8.3     14.772     17.897
REMARK  2 active torsions:
REMARK  status: ('A' for Active; 'I' for Inactive)
REMARK    1  A    between atoms: C11_17  and  N1_5 
REMARK       I    between atoms: C8_14  and  N1_5 
REMARK    2  A    between atoms: C3_9  and  C8_14 
ROOT
HETATM    1 Br1  UNK     1      19.043   2.049  21.080  1.00  0.00    -0.051 Br
HETATM    2  O1  UNK     1      19.199   0.845  15.136  1.00  0.00    -0.274 OA
HETATM    3  O2  UNK     1      19.169  -0.657  13.414  1.00  0.00    -0.259 OA
HETATM    4  C1  UNK     1      19.058   0.045  17.428  1.00  0.00     0.000 A 
HETATM    5  C2  UNK     1      19.161   1.097  16.522  1.00  0.00     0.089 A 
HETATM    6  C3  UNK     1      19.027  -1.549  15.605  1.00  0.00     0.108 A 
HETATM    7  C4  UNK     1      18.991  -1.316  16.922  1.00  0.00     0.037 A 
HETATM    8  C5  UNK     1      19.023   0.335  18.794  1.00  0.00     0.033 A 
HETATM    9  C6  UNK     1      19.136  -0.447  14.622  1.00  0.00     0.304 A 
HETATM   10  C7  UNK     1      19.228   2.424  16.942  1.00  0.00     0.039 A 
HETATM   11  C9  UNK     1      19.091   1.662  19.230  1.00  0.00     0.011 A 
HETATM   12  C10 UNK     1      19.193   2.704  18.305  1.00  0.00     0.022 A 
ENDROOT
BRANCH   6  13
HETATM   13  C8  UNK     1      18.953  -2.955  15.192  1.00  0.00     0.262 C 
HETATM   14  O3  UNK     1      17.948  -3.615  15.449  1.00  0.00    -0.267 OA
HETATM   15  N1  UNK     1      20.102  -3.367  14.529  1.00  0.00    -0.321 N 
HETATM   16  H5  UNK     1      20.844  -2.688  14.377  1.00  0.00     0.169 HD
BRANCH  15  17
HETATM   17  C11 UNK     1      20.378  -4.650  13.995  1.00  0.00     0.052 A 
HETATM   18  C12 UNK     1      20.036  -4.946  12.694  1.00  0.00     0.032 A 
HETATM   19  C14 UNK     1      20.320  -6.214  12.197  1.00  0.00     0.021 A 
HETATM   20  C15 UNK     1      20.936  -7.120  13.044  1.00  0.00     0.116 A 
HETATM   21  N2  UNK     1      21.278  -6.847  14.324  1.00  0.00    -0.271 NA
HETATM   22  C13 UNK     1      20.988  -5.606  14.771  1.00  0.00     0.145 A 
ENDBRANCH  15  17
ENDBRANCH   6  13
TORSDOF 2
ENDMDL
MODEL 4
REMARK VINA RESULT:      -8.2     11.504     14.909
REMARK  2 active torsions:
REMARK  status: ('A' for Active; 'I' for Inactive)
REMARK    1  A    between atoms: C11_17  and  N1_5 
REMARK       I    between atoms: C8_14  and  N1_5 
REMARK    2  A    between atoms: C3_9  and  C8_14 
ROOT
HETATM    1 Br1  UNK     1      23.780 -11.249  35.947  1.00  0.00    -0.051 Br
HETATM    2  O1  UNK     1      18.664  -8.173  37.024  1.00  0.00    -0.274 OA
HETATM    3  O2  UNK     1      17.576  -6.197  37.392  1.00  0.00    -0.259 OA
HETATM    4  C1  UNK     1      21.069  -8.170  36.670  1.00  0.00     0.000 A 
HETATM    5  C2  UNK     1      19.866  -8.862  36.774  1.00  0.00     0.089 A 
HETATM    6  C3  UNK     1      19.919  -6.074  37.059  1.00  0.00     0.108 A 
HETATM    7  C4  UNK     1      21.065  -6.724  36.823  1.00  0.00     0.037 A 
HETATM    8  C5  UNK     1      22.240  -8.890  36.421  1.00  0.00     0.033 A 
HETATM    9  C6  UNK     1      18.628  -6.789  37.175  1.00  0.00     0.304 A 
HETATM   10  C7  UNK     1      19.802 -10.248  36.637  1.00  0.00     0.039 A 
HETATM   11  C9  UNK     1      22.191 -10.280  36.282  1.00  0.00     0.011 A 
HETATM   12  C10 UNK     1      20.974 -10.957  36.390  1.00  0.00     0.022 A 
ENDROOT
BRANCH   6  13
HETATM   13  C8  UNK     1      20.017  -4.617  37.199  1.00  0.00     0.262 C 
HETATM   14  O3  UNK     1      20.924  -4.127  37.869  1.00  0.00    -0.267 OA
HETATM   15  N1  UNK     1      19.007  -3.956  36.513  1.00  0.00    -0.321 N 
HETATM   16  H5  UNK     1      18.337  -4.509  35.984  1.00  0.00     0.169 HD
BRANCH  15  17
HETATM   17  C11 UNK     1      18.791  -2.558  36.428  1.00  0.00     0.052 A 
HETATM   18  C12 UNK     1      17.882  -1.946  37.263  1.00  0.00     0.032 A 
HETATM   19  C14 UNK     1      17.691  -0.573  37.157  1.00  0.00     0.021 A 
HETATM   20  C15 UNK     1      18.432   0.114  36.210  1.00  0.00     0.116 A 
HETATM   21  N2  UNK     1      19.329  -0.470  35.382  1.00  0.00    -0.271 NA
HETATM   22  C13 UNK     1      19.488  -1.805  35.515  1.00  0.00     0.145 A 
ENDBRANCH  15  17
ENDBRANCH   6  13
TORSDOF 2
ENDMDL
MODEL 5
REMARK VINA RESULT:      -8.0      4.839      5.942
REMARK  2 active torsions:
REMARK  status: ('A' for Active; 'I' for Inactive)
REMARK    1  A    between atoms: C11_17  and  N1_5 
REMARK       I    between atoms: C8_14  and  N1_5 
REMARK    2  A    between atoms: C3_9  and  C8_14 
ROOT
HETATM    1 Br1  UNK     1      18.879   8.836  34.095  1.00  0.00    -0.051 Br
HETATM    2  O1  UNK     1      18.698   3.487  31.238  1.00  0.00    -0.274 OA
HETATM    3  O2  UNK     1      18.357   1.227  31.276  1.00  0.00    -0.259 OA
HETATM    4  C1  UNK     1      18.452   4.771  33.288  1.00  0.00     0.000 A 
HETATM    5  C2  UNK     1      18.733   4.716  31.926  1.00  0.00     0.089 A 
HETATM    6  C3  UNK     1      18.090   2.377  33.331  1.00  0.00     0.108 A 
HETATM    7  C4  UNK     1      18.122   3.541  33.990  1.00  0.00     0.037 A 
HETATM    8  C5  UNK     1      18.496   6.009  33.935  1.00  0.00     0.033 A 
HETATM    9  C6  UNK     1      18.385   2.293  31.883  1.00  0.00     0.304 A 
HETATM   10  C7  UNK     1      19.055   5.858  31.196  1.00  0.00     0.039 A 
HETATM   11  C9  UNK     1      18.819   7.163  33.215  1.00  0.00     0.011 A 
HETATM   12  C10 UNK     1      19.097   7.087  31.848  1.00  0.00     0.022 A 
ENDROOT
BRANCH   6  13
HETATM   13  C8  UNK     1      17.747   1.191  34.126  1.00  0.00     0.262 C 
HETATM   14  O3  UNK     1      16.599   0.751  34.102  1.00  0.00    -0.267 OA
HETATM   15  N1  UNK     1      18.837   0.704  34.836  1.00  0.00    -0.321 N 
HETATM   16  H5  UNK     1      19.733   1.173  34.731  1.00  0.00     0.169 HD
BRANCH  15  17
HETATM   17  C11 UNK     1      18.872  -0.417  35.701  1.00  0.00     0.052 A 
HETATM   18  C12 UNK     1      18.202  -0.385  36.904  1.00  0.00     0.032 A 
HETATM   19  C14 UNK     1      18.255  -1.501  37.733  1.00  0.00     0.021 A 
HETATM   20  C15 UNK     1      18.986  -2.596  37.300  1.00  0.00     0.116 A 
HETATM   21  N2  UNK     1      19.649  -2.645  36.123  1.00  0.00    -0.271 NA
HETATM   22  C13 UNK     1      19.574  -1.543  35.345  1.00  0.00     0.145 A 
ENDBRANCH  15  17
ENDBRANCH   6  13
TORSDOF 2
ENDMDL
MODEL 6
REMARK VINA RESULT:      -8.0      4.120      7.511
REMARK  2 active torsions:
REMARK  status: ('A' for Active; 'I' for Inactive)
REMARK    1  A    between atoms: C11_17  and  N1_5 
REMARK       I    between atoms: C8_14  and  N1_5 
REMARK    2  A    between atoms: C3_9  and  C8_14 
ROOT
HETATM    1 Br1  UNK     1      18.167  -1.280  36.872  1.00  0.00    -0.051 Br
HETATM    2  O1  UNK     1      18.712   1.276  31.397  1.00  0.00    -0.274 OA
HETATM    3  O2  UNK     1      18.714   3.133  30.065  1.00  0.00    -0.259 OA
HETATM    4  C1  UNK     1      18.330   1.514  33.786  1.00  0.00     0.000 A 
HETATM    5  C2  UNK     1      18.581   0.709  32.679  1.00  0.00     0.089 A 
HETATM    6  C3  UNK     1      18.331   3.484  32.377  1.00  0.00     0.108 A 
HETATM    7  C4  UNK     1      18.205   2.950  33.598  1.00  0.00     0.037 A 
HETATM    8  C5  UNK     1      18.207   0.914  35.042  1.00  0.00     0.033 A 
HETATM    9  C6  UNK     1      18.598   2.648  31.185  1.00  0.00     0.304 A 
HETATM   10  C7  UNK     1      18.713  -0.674  32.793  1.00  0.00     0.039 A 
HETATM   11  C9  UNK     1      18.336  -0.472  35.170  1.00  0.00     0.011 A 
HETATM   12  C10 UNK     1      18.589  -1.264  34.047  1.00  0.00     0.022 A 
ENDROOT
BRANCH   6  13
HETATM   13  C8  UNK     1      18.188   4.942  32.289  1.00  0.00     0.262 C 
HETATM   14  O3  UNK     1      19.160   5.634  31.990  1.00  0.00    -0.267 OA
HETATM   15  N1  UNK     1      16.895   5.360  32.573  1.00  0.00    -0.321 N 
HETATM   16  H5  UNK     1      16.193   4.655  32.784  1.00  0.00     0.169 HD
BRANCH  15  17
HETATM   17  C11 UNK     1      16.398   6.687  32.584  1.00  0.00     0.052 A 
HETATM   18  C12 UNK     1      15.921   7.237  33.753  1.00  0.00     0.032 A 
HETATM   19  C14 UNK     1      15.439   8.542  33.733  1.00  0.00     0.021 A 
HETATM   20  C15 UNK     1      15.466   9.225  32.528  1.00  0.00     0.116 A 
HETATM   21  N2  UNK     1      15.931   8.701  31.372  1.00  0.00    -0.271 NA
HETATM   22  C13 UNK     1      16.391   7.432  31.430  1.00  0.00     0.145 A 
ENDBRANCH  15  17
ENDBRANCH   6  13
TORSDOF 2
ENDMDL
MODEL 7
REMARK VINA RESULT:      -7.9     14.672     17.560
REMARK  2 active torsions:
REMARK  status: ('A' for Active; 'I' for Inactive)
REMARK    1  A    between atoms: C11_17  and  N1_5 
REMARK       I    between atoms: C8_14  and  N1_5 
REMARK    2  A    between atoms: C3_9  and  C8_14 
ROOT
HETATM    1 Br1  UNK     1      19.034   2.045  21.110  1.00  0.00    -0.051 Br
HETATM    2  O1  UNK     1      19.174   0.794  15.176  1.00  0.00    -0.274 OA
HETATM    3  O2  UNK     1      19.225  -0.725  13.468  1.00  0.00    -0.259 OA
HETATM    4  C1  UNK     1      19.132   0.010  17.476  1.00  0.00     0.000 A 
HETATM    5  C2  UNK     1      19.142   1.056  16.559  1.00  0.00     0.089 A 
HETATM    6  C3  UNK     1      19.185  -1.602  15.669  1.00  0.00     0.108 A 
HETATM    7  C4  UNK     1      19.155  -1.358  16.984  1.00  0.00     0.037 A 
HETATM    8  C5  UNK     1      19.099   0.311  18.840  1.00  0.00     0.033 A 
HETATM    9  C6  UNK     1      19.197  -0.505  14.674  1.00  0.00     0.304 A 
HETATM   10  C7  UNK     1      19.120   2.389  16.965  1.00  0.00     0.039 A 
HETATM   11  C9  UNK     1      19.077   1.643  19.263  1.00  0.00     0.011 A 
HETATM   12  C10 UNK     1      19.088   2.680  18.326  1.00  0.00     0.022 A 
ENDROOT
BRANCH   6  13
HETATM   13  C8  UNK     1      19.208  -3.014  15.271  1.00  0.00     0.262 C 
HETATM   14  O3  UNK     1      20.264  -3.529  14.908  1.00  0.00    -0.267 OA
HETATM   15  N1  UNK     1      17.955  -3.605  15.365  1.00  0.00    -0.321 N 
HETATM   16  H5  UNK     1      17.178  -3.043  15.705  1.00  0.00     0.169 HD
BRANCH  15  17
HETATM   17  C11 UNK     1      17.606  -4.944  15.062  1.00  0.00     0.052 A 
HETATM   18  C12 UNK     1      17.174  -5.790  16.061  1.00  0.00     0.032 A 
HETATM   19  C14 UNK     1      16.839  -7.099  15.734  1.00  0.00     0.021 A 
HETATM   20  C15 UNK     1      16.959  -7.488  14.410  1.00  0.00     0.116 A 
HETATM   21  N2  UNK     1      17.381  -6.673  13.417  1.00  0.00    -0.271 NA
HETATM   22  C13 UNK     1      17.697  -5.408  13.773  1.00  0.00     0.145 A 
ENDBRANCH  15  17
ENDBRANCH   6  13
TORSDOF 2
ENDMDL
MODEL 8
REMARK VINA RESULT:      -7.8      9.134     11.464
REMARK  2 active torsions:
REMARK  status: ('A' for Active; 'I' for Inactive)
REMARK    1  A    between atoms: C11_17  and  N1_5 
REMARK       I    between atoms: C8_14  and  N1_5 
REMARK    2  A    between atoms: C3_9  and  C8_14 
ROOT
HETATM    1 Br1  UNK     1      20.513  -1.035  29.639  1.00  0.00    -0.051 Br
HETATM    2  O1  UNK     1      18.555  -1.102  35.381  1.00  0.00    -0.274 OA
HETATM    3  O2  UNK     1      18.517  -2.065  37.454  1.00  0.00    -0.259 OA
HETATM    4  C1  UNK     1      19.890  -2.110  33.615  1.00  0.00     0.000 A 
HETATM    5  C2  UNK     1      19.025  -1.111  34.053  1.00  0.00     0.089 A 
HETATM    6  C3  UNK     1      19.852  -3.131  35.811  1.00  0.00     0.108 A 
HETATM    7  C4  UNK     1      20.300  -3.144  34.551  1.00  0.00     0.037 A 
HETATM    8  C5  UNK     1      20.334  -2.083  32.291  1.00  0.00     0.033 A 
HETATM    9  C6  UNK     1      18.931  -2.079  36.299  1.00  0.00     0.304 A 
HETATM   10  C7  UNK     1      18.594  -0.090  33.207  1.00  0.00     0.039 A 
HETATM   11  C9  UNK     1      19.909  -1.066  31.431  1.00  0.00     0.011 A 
HETATM   12  C10 UNK     1      19.042  -0.071  31.889  1.00  0.00     0.022 A 
ENDROOT
BRANCH   6  13
HETATM   13  C8  UNK     1      20.322  -4.218  36.679  1.00  0.00     0.262 C 
HETATM   14  O3  UNK     1      21.469  -4.193  37.119  1.00  0.00    -0.267 OA
HETATM   15  N1  UNK     1      19.343  -5.179  36.891  1.00  0.00    -0.321 N 
HETATM   16  H5  UNK     1      18.428  -5.042  36.468  1.00  0.00     0.169 HD
BRANCH  15  17
HETATM   17  C11 UNK     1      19.445  -6.359  37.670  1.00  0.00     0.052 A 
HETATM   18  C12 UNK     1      20.142  -6.345  38.858  1.00  0.00     0.032 A 
HETATM   19  C14 UNK     1      20.226  -7.518  39.601  1.00  0.00     0.021 A 
HETATM   20  C15 UNK     1      19.598  -8.648  39.102  1.00  0.00     0.116 A 
HETATM   21  N2  UNK     1      18.910  -8.680  37.938  1.00  0.00    -0.271 NA
HETATM   22  C13 UNK     1      18.850  -7.521  37.245  1.00  0.00     0.145 A 
ENDBRANCH  15  17
ENDBRANCH   6  13
TORSDOF 2
ENDMDL
MODEL 9
REMARK VINA RESULT:      -7.7      4.263      7.445
REMARK  2 active torsions:
REMARK  status: ('A' for Active; 'I' for Inactive)
REMARK    1  A    between atoms: C11_17  and  N1_5 
REMARK       I    between atoms: C8_14  and  N1_5 
REMARK    2  A    between atoms: C3_9  and  C8_14 
ROOT
HETATM    1 Br1  UNK     1      17.858  -0.090  37.762  1.00  0.00    -0.051 Br
HETATM    2  O1  UNK     1      18.324   1.716  31.989  1.00  0.00    -0.274 OA
HETATM    3  O2  UNK     1      18.480   3.389  30.439  1.00  0.00    -0.259 OA
HETATM    4  C1  UNK     1      18.166   2.279  34.349  1.00  0.00     0.000 A 
HETATM    5  C2  UNK     1      18.216   1.324  33.338  1.00  0.00     0.089 A 
HETATM    6  C3  UNK     1      18.331   4.053  32.709  1.00  0.00     0.108 A 
HETATM    7  C4  UNK     1      18.228   3.687  33.992  1.00  0.00     0.037 A 
HETATM    8  C5  UNK     1      18.059   1.850  35.675  1.00  0.00     0.033 A 
HETATM    9  C6  UNK     1      18.385   3.056  31.616  1.00  0.00     0.304 A 
HETATM   10  C7  UNK     1      18.163  -0.041  33.613  1.00  0.00     0.039 A 
HETATM   11  C9  UNK     1      18.004   0.484  35.966  1.00  0.00     0.011 A 
HETATM   12  C10 UNK     1      18.056  -0.459  34.937  1.00  0.00     0.022 A 
ENDROOT
BRANCH   6  13
HETATM   13  C8  UNK     1      18.386   5.497  32.449  1.00  0.00     0.262 C 
HETATM   14  O3  UNK     1      18.289   5.913  31.296  1.00  0.00    -0.267 OA
HETATM   15  N1  UNK     1      18.550   6.234  33.614  1.00  0.00    -0.321 N 
HETATM   16  H5  UNK     1      18.593   5.736  34.501  1.00  0.00     0.169 HD
BRANCH  15  17
HETATM   17  C11 UNK     1      18.644   7.642  33.740  1.00  0.00     0.052 A 
HETATM   18  C12 UNK     1      19.770   8.213  34.291  1.00  0.00     0.032 A 
HETATM   19  C14 UNK     1      19.834   9.598  34.402  1.00  0.00     0.021 A 
HETATM   20  C15 UNK     1      18.753  10.336  33.949  1.00  0.00     0.116 A 
HETATM   21  N2  UNK     1      17.640   9.792  33.406  1.00  0.00    -0.271 NA
HETATM   22  C13 UNK     1      17.615   8.444  33.314  1.00  0.00     0.145 A 
ENDBRANCH  15  17
ENDBRANCH   6  13
TORSDOF 2
ENDMDL
MODEL 10
REMARK VINA RESULT:      -7.6      2.653      4.194
REMARK  2 active torsions:
REMARK  status: ('A' for Active; 'I' for Inactive)
REMARK    1  A    between atoms: C11_17  and  N1_5 
REMARK       I    between atoms: C8_14  and  N1_5 
REMARK    2  A    between atoms: C3_9  and  C8_14 
ROOT
HETATM    1 Br1  UNK     1      10.996  13.222  33.824  1.00  0.00    -0.051 Br
HETATM    2  O1  UNK     1      15.750   9.786  35.372  1.00  0.00    -0.274 OA
HETATM    3  O2  UNK     1      17.360   8.261  34.820  1.00  0.00    -0.259 OA
HETATM    4  C1  UNK     1      14.172  10.531  33.679  1.00  0.00     0.000 A 
HETATM    5  C2  UNK     1      14.648  10.574  34.986  1.00  0.00     0.089 A 
HETATM    6  C3  UNK     1      15.877   8.915  33.090  1.00  0.00     0.108 A 
HETATM    7  C4  UNK     1      14.830   9.660  32.718  1.00  0.00     0.037 A 
HETATM    8  C5  UNK     1      13.077  11.327  33.334  1.00  0.00     0.033 A 
HETATM    9  C6  UNK     1      16.401   8.944  34.475  1.00  0.00     0.304 A 
HETATM   10  C7  UNK     1      14.062  11.388  35.954  1.00  0.00     0.039 A 
HETATM   11  C9  UNK     1      12.478  12.148  34.295  1.00  0.00     0.011 A 
HETATM   12  C10 UNK     1      12.971  12.177  35.602  1.00  0.00     0.022 A 
ENDROOT
BRANCH   6  13
HETATM   13  C8  UNK     1      16.474   8.068  32.050  1.00  0.00     0.262 C 
HETATM   14  O3  UNK     1      16.372   8.390  30.868  1.00  0.00    -0.267 OA
HETATM   15  N1  UNK     1      17.108   6.953  32.582  1.00  0.00    -0.321 N 
HETATM   16  H5  UNK     1      17.122   6.840  33.593  1.00  0.00     0.169 HD
BRANCH  15  17
HETATM   17  C11 UNK     1      17.786   5.927  31.879  1.00  0.00     0.052 A 
HETATM   18  C12 UNK     1      18.709   6.247  30.908  1.00  0.00     0.032 A 
HETATM   19  C14 UNK     1      19.359   5.219  30.234  1.00  0.00     0.021 A 
HETATM   20  C15 UNK     1      19.040   3.915  30.578  1.00  0.00     0.116 A 
HETATM   21  N2  UNK     1      18.137   3.582  31.527  1.00  0.00    -0.271 NA
HETATM   22  C13 UNK     1      17.527   4.608  32.161  1.00  0.00     0.145 A 
ENDBRANCH  15  17
ENDBRANCH   6  13
TORSDOF 2
ENDMDL
