MODEL 1
REMARK VINA RESULT:      -8.6      0.000      0.000
REMARK  4 active torsions:
REMARK  status: ('A' for Active; 'I' for Inactive)
REMARK    1  A    between atoms: C15_19  and  O2_2 
REMARK    2  A    between atoms: C7_11  and  O2_2 
REMARK    3  A    between atoms: C2_6  and  C4_8 
REMARK    4  A    between atoms: C15_19  and  C17_21 
ROOT
HETATM    1  O1  UNK     1      18.010   3.118  34.284  1.00  0.00    -0.275 OA
HETATM    2  O3  UNK     1      17.869   1.044  35.235  1.00  0.00    -0.260 OA
HETATM    3  C1  UNK     1      18.636   3.307  31.934  1.00  0.00     0.009 A 
HETATM    4  C2  UNK     1      18.740   1.842  31.856  1.00  0.00    -0.007 A 
HETATM    5  C3  UNK     1      18.275   3.900  33.144  1.00  0.00     0.093 A 
HETATM    6  C5  UNK     1      18.883   4.147  30.840  1.00  0.00     0.018 A 
HETATM    7  C6  UNK     1      18.158   5.283  33.287  1.00  0.00     0.075 A 
HETATM    8  C7  UNK     1      18.408   6.102  32.190  1.00  0.00     0.071 A 
HETATM    9  C8  UNK     1      18.482   1.126  32.961  1.00  0.00     0.095 A 
HETATM   10  C9  UNK     1      18.770   5.535  30.968  1.00  0.00     0.038 A 
HETATM   11  C10 UNK     1      18.098   1.735  34.248  1.00  0.00     0.289 A 
ENDROOT
BRANCH   4  12
HETATM   12  C4  UNK     1      19.105   1.069  30.672  1.00  0.00    -0.025 A 
HETATM   13  C11 UNK     1      20.172   0.177  30.730  1.00  0.00     0.012 A 
HETATM   14  C13 UNK     1      20.520  -0.563  29.600  1.00  0.00     0.001 A 
HETATM   15  C16 UNK     1      19.799  -0.408  28.417  1.00  0.00     0.000 A 
HETATM   16  C14 UNK     1      18.730   0.485  28.363  1.00  0.00     0.001 A 
HETATM   17  C12 UNK     1      18.382   1.226  29.493  1.00  0.00     0.012 A 
ENDBRANCH   4  12
BRANCH   8  18
HETATM   18  O2  UNK     1      18.302   7.453  32.309  1.00  0.00    -0.344 OA
BRANCH  18  19
HETATM   19  C15 UNK     1      17.086   7.964  32.855  1.00  0.00     0.253 C 
BRANCH  19  20
HETATM   20  C17 UNK     1      15.993   7.978  31.809  1.00  0.00     0.146 C 
HETATM   21  O4  UNK     1      16.155   8.470  30.693  1.00  0.00    -0.296 OA
HETATM   22  C18 UNK     1      14.682   7.350  32.205  1.00  0.00     0.093 C 
ENDBRANCH  19  20
ENDBRANCH  18  19
ENDBRANCH   8  18
TORSDOF 4
ENDMDL
MODEL 2
REMARK VINA RESULT:      -8.1      2.847      7.565
REMARK  4 active torsions:
REMARK  status: ('A' for Active; 'I' for Inactive)
REMARK    1  A    between atoms: C15_19  and  O2_2 
REMARK    2  A    between atoms: C7_11  and  O2_2 
REMARK    3  A    between atoms: C2_6  and  C4_8 
REMARK    4  A    between atoms: C15_19  and  C17_21 
ROOT
HETATM    1  O1  UNK     1      18.194   1.625  31.747  1.00  0.00    -0.275 OA
HETATM    2  O3  UNK     1      18.005   2.657  29.716  1.00  0.00    -0.260 OA
HETATM    3  C1  UNK     1      18.406   2.990  33.757  1.00  0.00     0.009 A 
HETATM    4  C2  UNK     1      18.337   4.202  32.928  1.00  0.00    -0.007 A 
HETATM    5  C3  UNK     1      18.333   1.740  33.143  1.00  0.00     0.093 A 
HETATM    6  C5  UNK     1      18.541   3.029  35.151  1.00  0.00     0.018 A 
HETATM    7  C6  UNK     1      18.392   0.551  33.870  1.00  0.00     0.075 A 
HETATM    8  C7  UNK     1      18.529   0.609  35.254  1.00  0.00     0.071 A 
HETATM    9  C8  UNK     1      18.206   4.058  31.599  1.00  0.00     0.095 A 
HETATM   10  C9  UNK     1      18.603   1.846  35.894  1.00  0.00     0.038 A 
HETATM   11  C10 UNK     1      18.125   2.745  30.933  1.00  0.00     0.289 A 
ENDROOT
BRANCH   4  12
HETATM   12  C4  UNK     1      18.399   5.579  33.411  1.00  0.00    -0.025 A 
HETATM   13  C11 UNK     1      17.222   6.271  33.682  1.00  0.00     0.012 A 
HETATM   14  C13 UNK     1      17.281   7.586  34.145  1.00  0.00     0.001 A 
HETATM   15  C16 UNK     1      18.517   8.203  34.334  1.00  0.00     0.000 A 
HETATM   16  C14 UNK     1      19.694   7.506  34.061  1.00  0.00     0.001 A 
HETATM   17  C12 UNK     1      19.635   6.191  33.598  1.00  0.00     0.012 A 
ENDBRANCH   4  12
BRANCH   8  18
HETATM   18  O2  UNK     1      18.590  -0.539  35.982  1.00  0.00    -0.344 OA
BRANCH  18  19
HETATM   19  C15 UNK     1      19.054  -1.711  35.311  1.00  0.00     0.253 C 
BRANCH  19  20
HETATM   20  C17 UNK     1      20.348  -2.201  35.926  1.00  0.00     0.146 C 
HETATM   21  O4  UNK     1      21.447  -1.957  35.430  1.00  0.00    -0.296 OA
HETATM   22  C18 UNK     1      20.221  -3.011  37.189  1.00  0.00     0.093 C 
ENDBRANCH  19  20
ENDBRANCH  18  19
ENDBRANCH   8  18
TORSDOF 4
ENDMDL
MODEL 3
REMARK VINA RESULT:      -7.9     22.487     24.135
REMARK  4 active torsions:
REMARK  status: ('A' for Active; 'I' for Inactive)
REMARK    1  A    between atoms: C15_19  and  O2_2 
REMARK    2  A    between atoms: C7_11  and  O2_2 
REMARK    3  A    between atoms: C2_6  and  C4_8 
REMARK    4  A    between atoms: C15_19  and  C17_21 
ROOT
HETATM    1  O1  UNK     1      15.924   6.119   9.901  1.00  0.00    -0.275 OA
HETATM    2  O3  UNK     1      15.658   3.849   9.904  1.00  0.00    -0.260 OA
HETATM    3  C1  UNK     1      14.176   7.518   8.932  1.00  0.00     0.009 A 
HETATM    4  C2  UNK     1      13.401   6.310   8.614  1.00  0.00    -0.007 A 
HETATM    5  C3  UNK     1      15.412   7.387   9.565  1.00  0.00     0.093 A 
HETATM    6  C5  UNK     1      13.728   8.811   8.630  1.00  0.00     0.018 A 
HETATM    7  C6  UNK     1      16.198   8.492   9.895  1.00  0.00     0.075 A 
HETATM    8  C7  UNK     1      15.737   9.768   9.586  1.00  0.00     0.071 A 
HETATM    9  C8  UNK     1      13.918   5.116   8.946  1.00  0.00     0.095 A 
HETATM   10  C9  UNK     1      14.504   9.928   8.954  1.00  0.00     0.038 A 
HETATM   11  C10 UNK     1      15.223   4.958   9.617  1.00  0.00     0.289 A 
ENDROOT
BRANCH   4  12
HETATM   12  C4  UNK     1      12.098   6.273   7.956  1.00  0.00    -0.025 A 
HETATM   13  C11 UNK     1      10.938   6.207   8.723  1.00  0.00     0.012 A 
HETATM   14  C13 UNK     1       9.693   6.173   8.095  1.00  0.00     0.001 A 
HETATM   15  C16 UNK     1       9.613   6.204   6.703  1.00  0.00     0.000 A 
HETATM   16  C14 UNK     1      10.777   6.271   5.939  1.00  0.00     0.001 A 
HETATM   17  C12 UNK     1      12.023   6.305   6.567  1.00  0.00     0.012 A 
ENDBRANCH   4  12
BRANCH   8  18
HETATM   18  O2  UNK     1      16.489  10.859   9.898  1.00  0.00    -0.344 OA
BRANCH  18  19
HETATM   19  C15 UNK     1      17.903  10.740   9.743  1.00  0.00     0.253 C 
BRANCH  19  20
HETATM   20  C17 UNK     1      18.341  11.284   8.399  1.00  0.00     0.146 C 
HETATM   21  O4  UNK     1      19.416  10.981   7.885  1.00  0.00    -0.296 OA
HETATM   22  C18 UNK     1      17.382  12.223   7.716  1.00  0.00     0.093 C 
ENDBRANCH  19  20
ENDBRANCH  18  19
ENDBRANCH   8  18
TORSDOF 4
ENDMDL
MODEL 4
REMARK VINA RESULT:      -7.8     21.957     24.311
REMARK  4 active torsions:
REMARK  status: ('A' for Active; 'I' for Inactive)
REMARK    1  A    between atoms: C15_19  and  O2_2 
REMARK    2  A    between atoms: C7_11  and  O2_2 
REMARK    3  A    between atoms: C2_6  and  C4_8 
REMARK    4  A    between atoms: C15_19  and  C17_21 
ROOT
HETATM    1  O1  UNK     1      14.083   4.630   8.751  1.00  0.00    -0.275 OA
HETATM    2  O3  UNK     1      16.022   4.060   9.817  1.00  0.00    -0.260 OA
HETATM    3  C1  UNK     1      13.368   6.963   8.753  1.00  0.00     0.009 A 
HETATM    4  C2  UNK     1      14.560   7.315   9.539  1.00  0.00    -0.007 A 
HETATM    5  C3  UNK     1      13.166   5.633   8.383  1.00  0.00     0.093 A 
HETATM    6  C5  UNK     1      12.415   7.908   8.350  1.00  0.00     0.018 A 
HETATM    7  C6  UNK     1      12.056   5.230   7.638  1.00  0.00     0.075 A 
HETATM    8  C7  UNK     1      11.120   6.183   7.249  1.00  0.00     0.071 A 
HETATM    9  C8  UNK     1      15.414   6.336   9.874  1.00  0.00     0.095 A 
HETATM   10  C9  UNK     1      11.299   7.520   7.604  1.00  0.00     0.038 A 
HETATM   11  C10 UNK     1      15.217   4.925   9.491  1.00  0.00     0.289 A 
ENDROOT
BRANCH   4  12
HETATM   12  C4  UNK     1      14.918   8.652  10.004  1.00  0.00    -0.025 A 
HETATM   13  C11 UNK     1      15.753   9.454   9.231  1.00  0.00     0.012 A 
HETATM   14  C13 UNK     1      16.094  10.732   9.675  1.00  0.00     0.001 A 
HETATM   15  C16 UNK     1      15.599  11.202  10.890  1.00  0.00     0.000 A 
HETATM   16  C14 UNK     1      14.762  10.396  11.661  1.00  0.00     0.001 A 
HETATM   17  C12 UNK     1      14.421   9.119  11.218  1.00  0.00     0.012 A 
ENDBRANCH   4  12
BRANCH   8  18
HETATM   18  O2  UNK     1      10.030   5.811   6.523  1.00  0.00    -0.344 OA
BRANCH  18  19
HETATM   19  C15 UNK     1       8.789   6.438   6.845  1.00  0.00     0.253 C 
BRANCH  19  20
HETATM   20  C17 UNK     1       8.128   5.746   8.018  1.00  0.00     0.146 C 
HETATM   21  O4  UNK     1       7.740   4.580   7.962  1.00  0.00    -0.296 OA
HETATM   22  C18 UNK     1       7.968   6.566   9.271  1.00  0.00     0.093 C 
ENDBRANCH  19  20
ENDBRANCH  18  19
ENDBRANCH   8  18
TORSDOF 4
ENDMDL
MODEL 5
REMARK VINA RESULT:      -7.7     15.975     18.138
REMARK  4 active torsions:
REMARK  status: ('A' for Active; 'I' for Inactive)
REMARK    1  A    between atoms: C15_19  and  O2_2 
REMARK    2  A    between atoms: C7_11  and  O2_2 
REMARK    3  A    between atoms: C2_6  and  C4_8 
REMARK    4  A    between atoms: C15_19  and  C17_21 
ROOT
HETATM    1  O1  UNK     1      30.934  -4.637  38.893  1.00  0.00    -0.275 OA
HETATM    2  O3  UNK     1      29.094  -3.601  39.768  1.00  0.00    -0.260 OA
HETATM    3  C1  UNK     1      30.734  -6.929  38.084  1.00  0.00     0.009 A 
HETATM    4  C2  UNK     1      29.312  -6.926  38.461  1.00  0.00    -0.007 A 
HETATM    5  C3  UNK     1      31.500  -5.787  38.311  1.00  0.00     0.093 A 
HETATM    6  C5  UNK     1      31.362  -8.037  37.500  1.00  0.00     0.018 A 
HETATM    7  C6  UNK     1      32.854  -5.723  37.978  1.00  0.00     0.075 A 
HETATM    8  C7  UNK     1      33.462  -6.833  37.400  1.00  0.00     0.071 A 
HETATM    9  C8  UNK     1      28.803  -5.814  39.015  1.00  0.00     0.095 A 
HETATM   10  C9  UNK     1      32.718  -7.988  37.160  1.00  0.00     0.038 A 
HETATM   11  C10 UNK     1      29.598  -4.596  39.261  1.00  0.00     0.289 A 
ENDROOT
BRANCH   4  12
HETATM   12  C4  UNK     1      28.375  -8.034  38.293  1.00  0.00    -0.025 A 
HETATM   13  C11 UNK     1      28.048  -8.835  39.383  1.00  0.00     0.012 A 
HETATM   14  C13 UNK     1      27.152  -9.892  39.223  1.00  0.00     0.001 A 
HETATM   15  C16 UNK     1      26.588 -10.144  37.973  1.00  0.00     0.000 A 
HETATM   16  C14 UNK     1      26.918  -9.338  36.884  1.00  0.00     0.001 A 
HETATM   17  C12 UNK     1      27.814  -8.281  37.044  1.00  0.00     0.012 A 
ENDBRANCH   4  12
BRANCH   8  18
HETATM   18  O2  UNK     1      34.782  -6.792  37.068  1.00  0.00    -0.344 OA
BRANCH  18  19
HETATM   19  C15 UNK     1      35.279  -5.567  36.530  1.00  0.00     0.253 C 
BRANCH  19  20
HETATM   20  C17 UNK     1      34.963  -5.463  35.054  1.00  0.00     0.146 C 
HETATM   21  O4  UNK     1      35.081  -6.417  34.286  1.00  0.00    -0.296 OA
HETATM   22  C18 UNK     1      34.488  -4.120  34.566  1.00  0.00     0.093 C 
ENDBRANCH  19  20
ENDBRANCH  18  19
ENDBRANCH   8  18
TORSDOF 4
ENDMDL
MODEL 6
REMARK VINA RESULT:      -7.6     22.171     24.847
REMARK  4 active torsions:
REMARK  status: ('A' for Active; 'I' for Inactive)
REMARK    1  A    between atoms: C15_19  and  O2_2 
REMARK    2  A    between atoms: C7_11  and  O2_2 
REMARK    3  A    between atoms: C2_6  and  C4_8 
REMARK    4  A    between atoms: C15_19  and  C17_21 
ROOT
HETATM    1  O1  UNK     1      11.237   6.266   5.977  1.00  0.00    -0.275 OA
HETATM    2  O3  UNK     1       9.354   6.620   4.731  1.00  0.00    -0.260 OA
HETATM    3  C1  UNK     1      11.022   5.919   8.382  1.00  0.00     0.009 A 
HETATM    4  C2  UNK     1       9.563   6.065   8.261  1.00  0.00    -0.007 A 
HETATM    5  C3  UNK     1      11.813   6.024   7.238  1.00  0.00     0.093 A 
HETATM    6  C5  UNK     1      11.663   5.675   9.603  1.00  0.00     0.018 A 
HETATM    7  C6  UNK     1      13.202   5.897   7.283  1.00  0.00     0.075 A 
HETATM    8  C7  UNK     1      13.822   5.656   8.505  1.00  0.00     0.071 A 
HETATM    9  C8  UNK     1       9.045   6.296   7.044  1.00  0.00     0.095 A 
HETATM   10  C9  UNK     1      13.054   5.545   9.664  1.00  0.00     0.038 A 
HETATM   11  C10 UNK     1       9.867   6.409   5.824  1.00  0.00     0.289 A 
ENDROOT
BRANCH   4  12
HETATM   12  C4  UNK     1       8.598   5.984   9.353  1.00  0.00    -0.025 A 
HETATM   13  C11 UNK     1       8.332   4.756   9.952  1.00  0.00     0.012 A 
HETATM   14  C13 UNK     1       7.411   4.678  10.997  1.00  0.00     0.001 A 
HETATM   15  C16 UNK     1       6.759   5.829  11.437  1.00  0.00     0.000 A 
HETATM   16  C14 UNK     1       7.028   7.057  10.835  1.00  0.00     0.001 A 
HETATM   17  C12 UNK     1       7.950   7.135   9.791  1.00  0.00     0.012 A 
ENDBRANCH   4  12
BRANCH   8  18
HETATM   18  O2  UNK     1      15.175   5.530   8.570  1.00  0.00    -0.344 OA
BRANCH  18  19
HETATM   19  C15 UNK     1      15.768   5.542   9.869  1.00  0.00     0.253 C 
BRANCH  19  20
HETATM   20  C17 UNK     1      16.557   6.816  10.085  1.00  0.00     0.146 C 
HETATM   21  O4  UNK     1      17.695   6.969   9.643  1.00  0.00    -0.296 OA
HETATM   22  C18 UNK     1      15.871   7.899  10.874  1.00  0.00     0.093 C 
ENDBRANCH  19  20
ENDBRANCH  18  19
ENDBRANCH   8  18
TORSDOF 4
ENDMDL
MODEL 7
REMARK VINA RESULT:      -7.5     15.928     17.680
REMARK  4 active torsions:
REMARK  status: ('A' for Active; 'I' for Inactive)
REMARK    1  A    between atoms: C15_19  and  O2_2 
REMARK    2  A    between atoms: C7_11  and  O2_2 
REMARK    3  A    between atoms: C2_6  and  C4_8 
REMARK    4  A    between atoms: C15_19  and  C17_21 
ROOT
HETATM    1  O1  UNK     1      28.931  -5.424  39.506  1.00  0.00    -0.275 OA
HETATM    2  O3  UNK     1      29.344  -3.210  39.899  1.00  0.00    -0.260 OA
HETATM    3  C1  UNK     1      30.459  -6.681  38.080  1.00  0.00     0.009 A 
HETATM    4  C2  UNK     1      31.269  -5.467  37.896  1.00  0.00    -0.007 A 
HETATM    5  C3  UNK     1      29.317  -6.623  38.878  1.00  0.00     0.093 A 
HETATM    6  C5  UNK     1      30.784  -7.909  37.487  1.00  0.00     0.018 A 
HETATM    7  C6  UNK     1      28.504  -7.737  39.093  1.00  0.00     0.075 A 
HETATM    8  C7  UNK     1      28.841  -8.947  38.495  1.00  0.00     0.071 A 
HETATM    9  C8  UNK     1      30.874  -4.340  38.509  1.00  0.00     0.095 A 
HETATM   10  C9  UNK     1      29.979  -9.034  37.693  1.00  0.00     0.038 A 
HETATM   11  C10 UNK     1      29.670  -4.260  39.357  1.00  0.00     0.289 A 
ENDROOT
BRANCH   4  12
HETATM   12  C4  UNK     1      32.487  -5.359  37.097  1.00  0.00    -0.025 A 
HETATM   13  C11 UNK     1      33.680  -5.890  37.579  1.00  0.00     0.012 A 
HETATM   14  C13 UNK     1      34.843  -5.788  36.815  1.00  0.00     0.001 A 
HETATM   15  C16 UNK     1      34.808  -5.154  35.574  1.00  0.00     0.000 A 
HETATM   16  C14 UNK     1      33.610  -4.625  35.095  1.00  0.00     0.001 A 
HETATM   17  C12 UNK     1      32.447  -4.727  35.858  1.00  0.00     0.012 A 
ENDBRANCH   4  12
BRANCH   8  18
HETATM   18  O2  UNK     1      28.061 -10.045  38.691  1.00  0.00    -0.344 OA
BRANCH  18  19
HETATM   19  C15 UNK     1      26.660  -9.827  38.854  1.00  0.00     0.253 C 
BRANCH  19  20
HETATM   20  C17 UNK     1      26.014  -9.487  37.528  1.00  0.00     0.146 C 
HETATM   21  O4  UNK     1      25.480  -8.400  37.315  1.00  0.00    -0.296 OA
HETATM   22  C18 UNK     1      26.059 -10.558  36.470  1.00  0.00     0.093 C 
ENDBRANCH  19  20
ENDBRANCH  18  19
ENDBRANCH   8  18
TORSDOF 4
ENDMDL
MODEL 8
REMARK VINA RESULT:      -7.5      4.418      6.485
REMARK  4 active torsions:
REMARK  status: ('A' for Active; 'I' for Inactive)
REMARK    1  A    between atoms: C15_19  and  O2_2 
REMARK    2  A    between atoms: C7_11  and  O2_2 
REMARK    3  A    between atoms: C2_6  and  C4_8 
REMARK    4  A    between atoms: C15_19  and  C17_21 
ROOT
HETATM    1  O1  UNK     1      14.563   8.490  32.958  1.00  0.00    -0.275 OA
HETATM    2  O3  UNK     1      13.719   6.648  31.899  1.00  0.00    -0.260 OA
HETATM    3  C1  UNK     1      16.982   8.782  33.083  1.00  0.00     0.009 A 
HETATM    4  C2  UNK     1      17.161   7.523  32.346  1.00  0.00    -0.007 A 
HETATM    5  C3  UNK     1      15.691   9.227  33.366  1.00  0.00     0.093 A 
HETATM    6  C5  UNK     1      18.057   9.568  33.519  1.00  0.00     0.018 A 
HETATM    7  C6  UNK     1      15.450  10.412  34.062  1.00  0.00     0.075 A 
HETATM    8  C7  UNK     1      16.530  11.179  34.489  1.00  0.00     0.071 A 
HETATM    9  C8  UNK     1      16.066   6.843  31.971  1.00  0.00     0.095 A 
HETATM   10  C9  UNK     1      17.832  10.758  34.217  1.00  0.00     0.038 A 
HETATM   11  C10 UNK     1      14.693   7.299  32.261  1.00  0.00     0.289 A 
ENDROOT
BRANCH   4  12
HETATM   12  C4  UNK     1      18.437   6.920  31.971  1.00  0.00    -0.025 A 
HETATM   13  C11 UNK     1      19.469   6.848  32.903  1.00  0.00     0.012 A 
HETATM   14  C13 UNK     1      20.687   6.271  32.546  1.00  0.00     0.001 A 
HETATM   15  C16 UNK     1      20.870   5.769  31.258  1.00  0.00     0.000 A 
HETATM   16  C14 UNK     1      19.834   5.842  30.328  1.00  0.00     0.001 A 
HETATM   17  C12 UNK     1      18.615   6.419  30.685  1.00  0.00     0.012 A 
ENDBRANCH   4  12
BRANCH   8  18
HETATM   18  O2  UNK     1      16.317  12.338  35.170  1.00  0.00    -0.344 OA
BRANCH  18  19
HETATM   19  C15 UNK     1      14.961  12.708  35.416  1.00  0.00     0.253 C 
BRANCH  19  20
HETATM   20  C17 UNK     1      14.623  12.556  36.884  1.00  0.00     0.146 C 
HETATM   21  O4  UNK     1      15.422  12.835  37.776  1.00  0.00    -0.296 OA
HETATM   22  C18 UNK     1      13.242  12.043  37.201  1.00  0.00     0.093 C 
ENDBRANCH  19  20
ENDBRANCH  18  19
ENDBRANCH   8  18
TORSDOF 4
ENDMDL
MODEL 9
REMARK VINA RESULT:      -7.4     13.459     16.135
REMARK  4 active torsions:
REMARK  status: ('A' for Active; 'I' for Inactive)
REMARK    1  A    between atoms: C15_19  and  O2_2 
REMARK    2  A    between atoms: C7_11  and  O2_2 
REMARK    3  A    between atoms: C2_6  and  C4_8 
REMARK    4  A    between atoms: C15_19  and  C17_21 
ROOT
HETATM    1  O1  UNK     1      25.528 -11.687  36.108  1.00  0.00    -0.275 OA
HETATM    2  O3  UNK     1      24.366 -13.289  34.964  1.00  0.00    -0.260 OA
HETATM    3  C1  UNK     1      24.339  -9.730  36.947  1.00  0.00     0.009 A 
HETATM    4  C2  UNK     1      23.089 -10.261  36.383  1.00  0.00    -0.007 A 
HETATM    5  C3  UNK     1      25.518 -10.458  36.793  1.00  0.00     0.093 A 
HETATM    6  C5  UNK     1      24.403  -8.515  37.642  1.00  0.00     0.018 A 
HETATM    7  C6  UNK     1      26.738 -10.011  37.303  1.00  0.00     0.075 A 
HETATM    8  C7  UNK     1      26.783  -8.801  37.990  1.00  0.00     0.071 A 
HETATM    9  C8  UNK     1      23.132 -11.436  35.734  1.00  0.00     0.095 A 
HETATM   10  C9  UNK     1      25.618  -8.054  38.159  1.00  0.00     0.038 A 
HETATM   11  C10 UNK     1      24.370 -12.220  35.563  1.00  0.00     0.289 A 
ENDROOT
BRANCH   4  12
HETATM   12  C4  UNK     1      21.775  -9.627  36.455  1.00  0.00    -0.025 A 
HETATM   13  C11 UNK     1      20.896  -9.972  37.477  1.00  0.00     0.012 A 
HETATM   14  C13 UNK     1      19.642  -9.366  37.548  1.00  0.00     0.001 A 
HETATM   15  C16 UNK     1      19.272  -8.418  36.594  1.00  0.00     0.000 A 
HETATM   16  C14 UNK     1      20.156  -8.074  35.572  1.00  0.00     0.001 A 
HETATM   17  C12 UNK     1      21.410  -8.681  35.502  1.00  0.00     0.012 A 
ENDBRANCH   4  12
BRANCH   8  18
HETATM   18  O2  UNK     1      27.963  -8.347  38.494  1.00  0.00    -0.344 OA
BRANCH  18  19
HETATM   19  C15 UNK     1      27.896  -7.317  39.479  1.00  0.00     0.253 C 
BRANCH  19  20
HETATM   20  C17 UNK     1      28.825  -6.176  39.124  1.00  0.00     0.146 C 
HETATM   21  O4  UNK     1      28.561  -5.004  39.390  1.00  0.00    -0.296 OA
HETATM   22  C18 UNK     1      30.103  -6.551  38.422  1.00  0.00     0.093 C 
ENDBRANCH  19  20
ENDBRANCH  18  19
ENDBRANCH   8  18
TORSDOF 4
ENDMDL
MODEL 10
REMARK VINA RESULT:      -7.4      3.324      5.721
REMARK  4 active torsions:
REMARK  status: ('A' for Active; 'I' for Inactive)
REMARK    1  A    between atoms: C15_19  and  O2_2 
REMARK    2  A    between atoms: C7_11  and  O2_2 
REMARK    3  A    between atoms: C2_6  and  C4_8 
REMARK    4  A    between atoms: C15_19  and  C17_21 
ROOT
HETATM    1  O1  UNK     1      18.297   9.536  34.208  1.00  0.00    -0.275 OA
HETATM    2  O3  UNK     1      20.511   9.188  34.656  1.00  0.00    -0.260 OA
HETATM    3  C1  UNK     1      17.098   7.925  32.824  1.00  0.00     0.009 A 
HETATM    4  C2  UNK     1      18.332   7.136  32.694  1.00  0.00    -0.007 A 
HETATM    5  C3  UNK     1      17.118   9.099  33.576  1.00  0.00     0.093 A 
HETATM    6  C5  UNK     1      15.888   7.550  32.223  1.00  0.00     0.018 A 
HETATM    7  C6  UNK     1      15.983   9.896  33.739  1.00  0.00     0.075 A 
HETATM    8  C7  UNK     1      14.791   9.509  33.134  1.00  0.00     0.071 A 
HETATM    9  C8  UNK     1      19.439   7.579  33.309  1.00  0.00     0.095 A 
HETATM   10  C9  UNK     1      14.743   8.338  32.378  1.00  0.00     0.038 A 
HETATM   11  C10 UNK     1      19.479   8.818  34.109  1.00  0.00     0.289 A 
ENDROOT
BRANCH   4  12
HETATM   12  C4  UNK     1      18.480   5.890  31.946  1.00  0.00    -0.025 A 
HETATM   13  C11 UNK     1      19.002   5.915  30.656  1.00  0.00     0.012 A 
HETATM   14  C13 UNK     1      19.145   4.724  29.943  1.00  0.00     0.001 A 
HETATM   15  C16 UNK     1      18.766   3.515  30.523  1.00  0.00     0.000 A 
HETATM   16  C14 UNK     1      18.245   3.494  31.816  1.00  0.00     0.001 A 
HETATM   17  C12 UNK     1      18.101   4.684  32.529  1.00  0.00     0.012 A 
ENDBRANCH   4  12
BRANCH   8  18
HETATM   18  O2  UNK     1      13.674  10.272  33.280  1.00  0.00    -0.344 OA
BRANCH  18  19
HETATM   19  C15 UNK     1      13.857  11.616  33.723  1.00  0.00     0.253 C 
BRANCH  19  20
HETATM   20  C17 UNK     1      13.071  11.874  34.990  1.00  0.00     0.146 C 
HETATM   21  O4  UNK     1      11.894  12.232  34.974  1.00  0.00    -0.296 OA
HETATM   22  C18 UNK     1      13.808  11.665  36.286  1.00  0.00     0.093 C 
ENDBRANCH  19  20
ENDBRANCH  18  19
ENDBRANCH   8  18
TORSDOF 4
ENDMDL
