MODEL 1
REMARK VINA RESULT:      -7.8      0.000      0.000
REMARK  1 active torsions:
REMARK  status: ('A' for Active; 'I' for Inactive)
REMARK    1  A    between atoms: C1_6  and  C5_10 
ROOT
HETATM    1  O1  UNK     1      29.079  -5.680  39.198  1.00  0.00    -0.277 OA
HETATM    2  O2  UNK     1      28.885  -8.497  36.075  1.00  0.00    -0.274 OA
HETATM    3  O3  UNK     1      29.843  -3.730  40.058  1.00  0.00    -0.265 OA
HETATM    4  O4  UNK     1      30.216  -7.167  34.786  1.00  0.00    -0.259 OA
HETATM    5  C1  UNK     1      30.481  -5.096  36.755  1.00  0.00     0.070 C 
HETATM    6  C2  UNK     1      29.691  -6.362  36.960  1.00  0.00     0.061 A 
HETATM    7  C3  UNK     1      29.962  -3.990  37.679  1.00  0.00     0.126 C 
HETATM    8  C4  UNK     1      29.028  -6.572  38.105  1.00  0.00     0.105 A 
HETATM    9  C6  UNK     1      28.253  -7.790  38.317  1.00  0.00     0.033 A 
HETATM   10  C7  UNK     1      29.661  -4.452  39.083  1.00  0.00     0.265 C 
HETATM   11  C8  UNK     1      29.634  -7.347  35.851  1.00  0.00     0.298 A 
HETATM   12  C9  UNK     1      28.204  -8.725  37.286  1.00  0.00     0.092 A 
HETATM   13  C12 UNK     1      27.555  -8.071  39.497  1.00  0.00     0.017 A 
HETATM   14  C13 UNK     1      27.489  -9.917  37.400  1.00  0.00     0.038 A 
HETATM   15  C15 UNK     1      26.833  -9.262  39.627  1.00  0.00     0.001 A 
HETATM   16  C16 UNK     1      26.800 -10.183  38.579  1.00  0.00     0.003 A 
ENDROOT
BRANCH   5  17
HETATM   17  C5  UNK     1      31.984  -5.302  36.884  1.00  0.00    -0.042 A 
HETATM   18  C10 UNK     1      32.605  -5.909  38.010  1.00  0.00     0.015 A 
HETATM   19  C14 UNK     1      33.975  -5.973  37.871  1.00  0.00     0.050 A 
HETATM   20  S1  UNK     1      34.501  -5.299  36.387  1.00  0.00    -0.113 SA
HETATM   21  C11 UNK     1      32.895  -4.922  35.927  1.00  0.00     0.057 A 
ENDBRANCH   5  17
TORSDOF 1
ENDMDL
MODEL 2
REMARK VINA RESULT:      -7.8     22.732     24.534
REMARK  1 active torsions:
REMARK  status: ('A' for Active; 'I' for Inactive)
REMARK    1  A    between atoms: C1_6  and  C5_10 
ROOT
HETATM    1  O1  UNK     1      20.259  -2.275  16.615  1.00  0.00    -0.277 OA
HETATM    2  O2  UNK     1      22.562  -5.721  15.875  1.00  0.00    -0.274 OA
HETATM    3  O3  UNK     1      18.480  -0.949  16.161  1.00  0.00    -0.265 OA
HETATM    4  O4  UNK     1      21.082  -6.370  14.265  1.00  0.00    -0.259 OA
HETATM    5  C1  UNK     1      19.342  -4.113  14.601  1.00  0.00     0.070 C 
HETATM    6  C2  UNK     1      20.605  -4.332  15.391  1.00  0.00     0.061 A 
HETATM    7  C3  UNK     1      18.378  -3.212  15.379  1.00  0.00     0.126 C 
HETATM    8  C4  UNK     1      20.972  -3.462  16.342  1.00  0.00     0.105 A 
HETATM    9  C6  UNK     1      22.190  -3.663  17.120  1.00  0.00     0.033 A 
HETATM   10  C7  UNK     1      19.041  -2.035  16.049  1.00  0.00     0.265 C 
HETATM   11  C8  UNK     1      21.409  -5.549  15.117  1.00  0.00     0.298 A 
HETATM   12  C9  UNK     1      22.956  -4.797  16.861  1.00  0.00     0.092 A 
HETATM   13  C12 UNK     1      22.631  -2.780  18.114  1.00  0.00     0.017 A 
HETATM   14  C13 UNK     1      24.134  -5.069  17.555  1.00  0.00     0.038 A 
HETATM   15  C15 UNK     1      23.811  -3.040  18.819  1.00  0.00     0.001 A 
HETATM   16  C16 UNK     1      24.561  -4.183  18.540  1.00  0.00     0.003 A 
ENDROOT
BRANCH   5  17
HETATM   17  C5  UNK     1      19.600  -3.603  13.189  1.00  0.00    -0.042 A 
HETATM   18  C10 UNK     1      20.506  -2.552  12.881  1.00  0.00     0.015 A 
HETATM   19  C14 UNK     1      20.550  -2.289  11.529  1.00  0.00     0.050 A 
HETATM   20  S1  UNK     1      19.499  -3.311  10.642  1.00  0.00    -0.113 SA
HETATM   21  C11 UNK     1      18.983  -4.107  12.068  1.00  0.00     0.057 A 
ENDBRANCH   5  17
TORSDOF 1
ENDMDL
MODEL 3
REMARK VINA RESULT:      -7.5     22.458     24.551
REMARK  1 active torsions:
REMARK  status: ('A' for Active; 'I' for Inactive)
REMARK    1  A    between atoms: C1_6  and  C5_10 
ROOT
HETATM    1  O1  UNK     1      21.964  -6.408  15.087  1.00  0.00    -0.277 OA
HETATM    2  O2  UNK     1      20.753  -2.750  16.784  1.00  0.00    -0.274 OA
HETATM    3  O3  UNK     1      21.624  -8.140  13.668  1.00  0.00    -0.265 OA
HETATM    4  O4  UNK     1      18.906  -2.736  15.446  1.00  0.00    -0.259 OA
HETATM    5  C1  UNK     1      19.531  -5.208  14.130  1.00  0.00     0.070 C 
HETATM    6  C2  UNK     1      20.379  -4.586  15.208  1.00  0.00     0.061 A 
HETATM    7  C3  UNK     1      20.382  -6.133  13.253  1.00  0.00     0.126 C 
HETATM    8  C4  UNK     1      21.522  -5.168  15.596  1.00  0.00     0.105 A 
HETATM    9  C6  UNK     1      22.357  -4.575  16.636  1.00  0.00     0.033 A 
HETATM   10  C7  UNK     1      21.344  -7.000  14.026  1.00  0.00     0.265 C 
HETATM   11  C8  UNK     1      19.938  -3.298  15.799  1.00  0.00     0.298 A 
HETATM   12  C9  UNK     1      21.944  -3.373  17.204  1.00  0.00     0.092 A 
HETATM   13  C12 UNK     1      23.551  -5.146  17.093  1.00  0.00     0.017 A 
HETATM   14  C13 UNK     1      22.678  -2.734  18.203  1.00  0.00     0.038 A 
HETATM   15  C15 UNK     1      24.298  -4.518  18.094  1.00  0.00     0.001 A 
HETATM   16  C16 UNK     1      23.863  -3.313  18.648  1.00  0.00     0.003 A 
ENDROOT
BRANCH   5  17
HETATM   17  C5  UNK     1      18.289  -5.903  14.671  1.00  0.00    -0.042 A 
HETATM   18  C10 UNK     1      18.052  -6.135  16.053  1.00  0.00     0.015 A 
HETATM   19  C14 UNK     1      16.854  -6.780  16.269  1.00  0.00     0.050 A 
HETATM   20  S1  UNK     1      16.025  -7.102  14.805  1.00  0.00    -0.113 SA
HETATM   21  C11 UNK     1      17.270  -6.377  13.879  1.00  0.00     0.057 A 
ENDBRANCH   5  17
TORSDOF 1
ENDMDL
MODEL 4
REMARK VINA RESULT:      -7.4      2.667      5.615
REMARK  1 active torsions:
REMARK  status: ('A' for Active; 'I' for Inactive)
REMARK    1  A    between atoms: C1_6  and  C5_10 
ROOT
HETATM    1  O1  UNK     1      28.984  -5.030  38.028  1.00  0.00    -0.277 OA
HETATM    2  O2  UNK     1      32.400  -7.395  37.349  1.00  0.00    -0.274 OA
HETATM    3  O3  UNK     1      26.849  -4.798  38.749  1.00  0.00    -0.265 OA
HETATM    4  O4  UNK     1      31.336  -9.200  38.249  1.00  0.00    -0.259 OA
HETATM    5  C1  UNK     1      28.903  -7.792  38.829  1.00  0.00     0.070 C 
HETATM    6  C2  UNK     1      30.108  -7.166  38.178  1.00  0.00     0.061 A 
HETATM    7  C3  UNK     1      28.056  -6.720  39.521  1.00  0.00     0.126 C 
HETATM    8  C4  UNK     1      30.108  -5.865  37.853  1.00  0.00     0.105 A 
HETATM    9  C6  UNK     1      31.269  -5.243  37.227  1.00  0.00     0.033 A 
HETATM   10  C7  UNK     1      27.885  -5.456  38.716  1.00  0.00     0.265 C 
HETATM   11  C8  UNK     1      31.305  -8.012  37.942  1.00  0.00     0.298 A 
HETATM   12  C9  UNK     1      32.391  -6.033  36.991  1.00  0.00     0.092 A 
HETATM   13  C12 UNK     1      31.319  -3.895  36.851  1.00  0.00     0.017 A 
HETATM   14  C13 UNK     1      33.546  -5.523  36.398  1.00  0.00     0.038 A 
HETATM   15  C15 UNK     1      32.469  -3.368  36.255  1.00  0.00     0.001 A 
HETATM   16  C16 UNK     1      33.581  -4.181  36.029  1.00  0.00     0.003 A 
ENDROOT
BRANCH   5  17
HETATM   17  C5  UNK     1      28.085  -8.650  37.874  1.00  0.00    -0.042 A 
HETATM   18  C10 UNK     1      28.356  -8.762  36.483  1.00  0.00     0.015 A 
HETATM   19  C14 UNK     1      27.465  -9.603  35.851  1.00  0.00     0.050 A 
HETATM   20  S1  UNK     1      26.311 -10.250  36.939  1.00  0.00    -0.113 SA
HETATM   21  C11 UNK     1      27.002  -9.405  38.258  1.00  0.00     0.057 A 
ENDBRANCH   5  17
TORSDOF 1
ENDMDL
MODEL 5
REMARK VINA RESULT:      -7.2     36.244     37.339
REMARK  1 active torsions:
REMARK  status: ('A' for Active; 'I' for Inactive)
REMARK    1  A    between atoms: C1_6  and  C5_10 
ROOT
HETATM    1  O1  UNK     1       7.293   7.169  11.178  1.00  0.00    -0.277 OA
HETATM    2  O2  UNK     1       6.269   3.172  10.338  1.00  0.00    -0.274 OA
HETATM    3  O3  UNK     1       8.205   9.148  10.564  1.00  0.00    -0.265 OA
HETATM    4  O4  UNK     1       7.095   3.399   8.225  1.00  0.00    -0.259 OA
HETATM    5  C1  UNK     1       7.864   6.145   8.550  1.00  0.00     0.070 C 
HETATM    6  C2  UNK     1       7.223   5.312   9.630  1.00  0.00     0.061 A 
HETATM    7  C3  UNK     1       7.607   7.633   8.805  1.00  0.00     0.126 C 
HETATM    8  C4  UNK     1       6.946   5.846  10.828  1.00  0.00     0.105 A 
HETATM    9  C6  UNK     1       6.320   5.054  11.881  1.00  0.00     0.033 A 
HETATM   10  C7  UNK     1       7.764   8.048  10.247  1.00  0.00     0.265 C 
HETATM   11  C8  UNK     1       6.870   3.904   9.320  1.00  0.00     0.298 A 
HETATM   12  C9  UNK     1       5.997   3.728  11.603  1.00  0.00     0.092 A 
HETATM   13  C12 UNK     1       6.024   5.553  13.155  1.00  0.00     0.017 A 
HETATM   14  C13 UNK     1       5.397   2.898  12.548  1.00  0.00     0.038 A 
HETATM   15  C15 UNK     1       5.422   4.733  14.115  1.00  0.00     0.001 A 
HETATM   16  C16 UNK     1       5.109   3.407  13.811  1.00  0.00     0.003 A 
ENDROOT
BRANCH   5  17
HETATM   17  C5  UNK     1       9.343   5.837   8.357  1.00  0.00    -0.042 A 
HETATM   18  C10 UNK     1      10.048   6.075   7.146  1.00  0.00     0.015 A 
HETATM   19  C14 UNK     1      11.373   5.708   7.241  1.00  0.00     0.050 A 
HETATM   20  S1  UNK     1      11.755   5.078   8.787  1.00  0.00    -0.113 SA
HETATM   21  C11 UNK     1      10.147   5.296   9.333  1.00  0.00     0.057 A 
ENDBRANCH   5  17
TORSDOF 1
ENDMDL
MODEL 6
REMARK VINA RESULT:      -7.2      3.520      5.351
REMARK  1 active torsions:
REMARK  status: ('A' for Active; 'I' for Inactive)
REMARK    1  A    between atoms: C1_6  and  C5_10 
ROOT
HETATM    1  O1  UNK     1      25.751  -9.203  39.008  1.00  0.00    -0.277 OA
HETATM    2  O2  UNK     1      24.418  -5.212  38.867  1.00  0.00    -0.274 OA
HETATM    3  O3  UNK     1      27.421 -10.733  38.986  1.00  0.00    -0.265 OA
HETATM    4  O4  UNK     1      26.578  -4.489  38.757  1.00  0.00    -0.259 OA
HETATM    5  C1  UNK     1      27.727  -7.116  38.861  1.00  0.00     0.070 C 
HETATM    6  C2  UNK     1      26.247  -6.839  38.885  1.00  0.00     0.061 A 
HETATM    7  C3  UNK     1      28.023  -8.473  39.509  1.00  0.00     0.126 C 
HETATM    8  C4  UNK     1      25.367  -7.845  38.988  1.00  0.00     0.105 A 
HETATM    9  C6  UNK     1      23.930  -7.592  39.017  1.00  0.00     0.033 A 
HETATM   10  C7  UNK     1      27.062  -9.566  39.114  1.00  0.00     0.265 C 
HETATM   11  C8  UNK     1      25.791  -5.427  38.832  1.00  0.00     0.298 A 
HETATM   12  C9  UNK     1      23.494  -6.271  38.955  1.00  0.00     0.092 A 
HETATM   13  C12 UNK     1      22.966  -8.603  39.107  1.00  0.00     0.017 A 
HETATM   14  C13 UNK     1      22.141  -5.936  38.979  1.00  0.00     0.038 A 
HETATM   15  C15 UNK     1      21.604  -8.283  39.131  1.00  0.00     0.001 A 
HETATM   16  C16 UNK     1      21.193  -6.951  39.067  1.00  0.00     0.003 A 
ENDROOT
BRANCH   5  17
HETATM   17  C5  UNK     1      28.336  -6.992  37.471  1.00  0.00    -0.042 A 
HETATM   18  C10 UNK     1      27.749  -7.538  36.298  1.00  0.00     0.015 A 
HETATM   19  C14 UNK     1      28.505  -7.280  35.175  1.00  0.00     0.050 A 
HETATM   20  S1  UNK     1      29.916  -6.382  35.544  1.00  0.00    -0.113 SA
HETATM   21  C11 UNK     1      29.517  -6.337  37.209  1.00  0.00     0.057 A 
ENDBRANCH   5  17
TORSDOF 1
ENDMDL
MODEL 7
REMARK VINA RESULT:      -7.2     34.013     35.312
REMARK  1 active torsions:
REMARK  status: ('A' for Active; 'I' for Inactive)
REMARK    1  A    between atoms: C1_6  and  C5_10 
ROOT
HETATM    1  O1  UNK     1      15.930   6.558   9.257  1.00  0.00    -0.277 OA
HETATM    2  O2  UNK     1      12.207   8.297  10.168  1.00  0.00    -0.274 OA
HETATM    3  O3  UNK     1      18.192   6.547   9.376  1.00  0.00    -0.265 OA
HETATM    4  O4  UNK     1      13.257   9.929  11.367  1.00  0.00    -0.259 OA
HETATM    5  C1  UNK     1      15.902   8.919  10.899  1.00  0.00     0.070 C 
HETATM    6  C2  UNK     1      14.647   8.289  10.354  1.00  0.00     0.061 A 
HETATM    7  C3  UNK     1      17.022   7.879  10.990  1.00  0.00     0.126 C 
HETATM    8  C4  UNK     1      14.712   7.169   9.620  1.00  0.00     0.105 A 
HETATM    9  C6  UNK     1      13.505   6.544   9.089  1.00  0.00     0.033 A 
HETATM   10  C7  UNK     1      17.116   6.969   9.791  1.00  0.00     0.265 C 
HETATM   11  C8  UNK     1      13.342   8.915  10.681  1.00  0.00     0.298 A 
HETATM   12  C9  UNK     1      12.277   7.131   9.382  1.00  0.00     0.092 A 
HETATM   13  C12 UNK     1      13.513   5.384   8.305  1.00  0.00     0.017 A 
HETATM   14  C13 UNK     1      11.073   6.603   8.918  1.00  0.00     0.038 A 
HETATM   15  C15 UNK     1      12.314   4.842   7.831  1.00  0.00     0.001 A 
HETATM   16  C16 UNK     1      11.095   5.450   8.138  1.00  0.00     0.003 A 
ENDROOT
BRANCH   5  17
HETATM   17  C5  UNK     1      16.328  10.164  10.133  1.00  0.00    -0.042 A 
HETATM   18  C10 UNK     1      16.040  10.384   8.758  1.00  0.00     0.015 A 
HETATM   19  C14 UNK     1      16.538  11.589   8.313  1.00  0.00     0.050 A 
HETATM   20  S1  UNK     1      17.349  12.446   9.556  1.00  0.00    -0.113 SA
HETATM   21  C11 UNK     1      17.034  11.204  10.692  1.00  0.00     0.057 A 
ENDBRANCH   5  17
TORSDOF 1
ENDMDL
MODEL 8
REMARK VINA RESULT:      -7.1     34.350     35.658
REMARK  1 active torsions:
REMARK  status: ('A' for Active; 'I' for Inactive)
REMARK    1  A    between atoms: C1_6  and  C5_10 
ROOT
HETATM    1  O1  UNK     1      14.779   6.202   8.921  1.00  0.00    -0.277 OA
HETATM    2  O2  UNK     1      11.466   8.597   9.926  1.00  0.00    -0.274 OA
HETATM    3  O3  UNK     1      16.950   5.615   9.189  1.00  0.00    -0.265 OA
HETATM    4  O4  UNK     1      12.710   9.662  11.513  1.00  0.00    -0.259 OA
HETATM    5  C1  UNK     1      15.094   8.142  11.022  1.00  0.00     0.070 C 
HETATM    6  C2  UNK     1      13.802   7.955  10.271  1.00  0.00     0.061 A 
HETATM    7  C3  UNK     1      15.932   6.860  10.966  1.00  0.00     0.126 C 
HETATM    8  C4  UNK     1      13.697   7.014   9.322  1.00  0.00     0.105 A 
HETATM    9  C6  UNK     1      12.450   6.816   8.590  1.00  0.00     0.033 A 
HETATM   10  C7  UNK     1      15.957   6.200   9.610  1.00  0.00     0.265 C 
HETATM   11  C8  UNK     1      12.643   8.808  10.634  1.00  0.00     0.298 A 
HETATM   12  C9  UNK     1      11.362   7.621   8.916  1.00  0.00     0.092 A 
HETATM   13  C12 UNK     1      12.287   5.862   7.579  1.00  0.00     0.017 A 
HETATM   14  C13 UNK     1      10.132   7.502   8.269  1.00  0.00     0.038 A 
HETATM   15  C15 UNK     1      11.060   5.730   6.920  1.00  0.00     0.001 A 
HETATM   16  C16 UNK     1       9.984   6.549   7.266  1.00  0.00     0.003 A 
ENDROOT
BRANCH   5  17
HETATM   17  C5  UNK     1      15.877   9.367  10.569  1.00  0.00    -0.042 A 
HETATM   18  C10 UNK     1      16.818   9.354   9.503  1.00  0.00     0.015 A 
HETATM   19  C14 UNK     1      17.383  10.595   9.300  1.00  0.00     0.050 A 
HETATM   20  S1  UNK     1      16.776  11.764  10.394  1.00  0.00    -0.113 SA
HETATM   21  C11 UNK     1      15.755  10.610  11.143  1.00  0.00     0.057 A 
ENDBRANCH   5  17
TORSDOF 1
ENDMDL
MODEL 9
REMARK VINA RESULT:      -7.1      3.159      5.648
REMARK  1 active torsions:
REMARK  status: ('A' for Active; 'I' for Inactive)
REMARK    1  A    between atoms: C1_6  and  C5_10 
ROOT
HETATM    1  O1  UNK     1      28.074  -8.250  36.482  1.00  0.00    -0.277 OA
HETATM    2  O2  UNK     1      31.024  -5.402  35.527  1.00  0.00    -0.274 OA
HETATM    3  O3  UNK     1      26.875 -10.104  35.975  1.00  0.00    -0.265 OA
HETATM    4  O4  UNK     1      31.467  -6.507  33.581  1.00  0.00    -0.259 OA
HETATM    5  C1  UNK     1      29.528  -8.576  34.021  1.00  0.00     0.070 C 
HETATM    6  C2  UNK     1      29.776  -7.434  34.971  1.00  0.00     0.061 A 
HETATM    7  C3  UNK     1      28.919  -9.766  34.770  1.00  0.00     0.126 C 
HETATM    8  C4  UNK     1      29.095  -7.345  36.121  1.00  0.00     0.105 A 
HETATM    9  C6  UNK     1      29.327  -6.247  37.054  1.00  0.00     0.033 A 
HETATM   10  C7  UNK     1      27.848  -9.387  35.761  1.00  0.00     0.265 C 
HETATM   11  C8  UNK     1      30.817  -6.436  34.619  1.00  0.00     0.298 A 
HETATM   12  C9  UNK     1      30.294  -5.300  36.726  1.00  0.00     0.092 A 
HETATM   13  C12 UNK     1      28.635  -6.094  38.261  1.00  0.00     0.017 A 
HETATM   14  C13 UNK     1      30.583  -4.218  37.557  1.00  0.00     0.038 A 
HETATM   15  C15 UNK     1      28.913  -5.015  39.106  1.00  0.00     0.001 A 
HETATM   16  C16 UNK     1      29.887  -4.078  38.754  1.00  0.00     0.003 A 
ENDROOT
BRANCH   5  17
HETATM   17  C5  UNK     1      28.706  -8.175  32.804  1.00  0.00    -0.042 A 
HETATM   18  C10 UNK     1      28.000  -6.945  32.697  1.00  0.00     0.015 A 
HETATM   19  C14 UNK     1      27.340  -6.833  31.492  1.00  0.00     0.050 A 
HETATM   20  S1  UNK     1      27.575  -8.211  30.501  1.00  0.00    -0.113 SA
HETATM   21  C11 UNK     1      28.562  -8.959  31.684  1.00  0.00     0.057 A 
ENDBRANCH   5  17
TORSDOF 1
ENDMDL
MODEL 10
REMARK VINA RESULT:      -7.1      1.732      3.436
REMARK  1 active torsions:
REMARK  status: ('A' for Active; 'I' for Inactive)
REMARK    1  A    between atoms: C1_6  and  C5_10 
ROOT
HETATM    1  O1  UNK     1      30.015  -8.769  37.671  1.00  0.00    -0.277 OA
HETATM    2  O2  UNK     1      28.133  -5.288  39.106  1.00  0.00    -0.274 OA
HETATM    3  O3  UNK     1      31.871  -9.887  37.011  1.00  0.00    -0.265 OA
HETATM    4  O4  UNK     1      30.152  -4.233  39.210  1.00  0.00    -0.259 OA
HETATM    5  C1  UNK     1      31.660  -6.485  38.266  1.00  0.00     0.070 C 
HETATM    6  C2  UNK     1      30.164  -6.483  38.442  1.00  0.00     0.061 A 
HETATM    7  C3  UNK     1      32.199  -7.917  38.337  1.00  0.00     0.126 C 
HETATM    8  C4  UNK     1      29.445  -7.584  38.182  1.00  0.00     0.105 A 
HETATM    9  C6  UNK     1      27.996  -7.599  38.353  1.00  0.00     0.033 A 
HETATM   10  C7  UNK     1      31.367  -8.927  37.587  1.00  0.00     0.265 C 
HETATM   11  C8  UNK     1      29.514  -5.247  38.947  1.00  0.00     0.298 A 
HETATM   12  C9  UNK     1      27.377  -6.439  38.814  1.00  0.00     0.092 A 
HETATM   13  C12 UNK     1      27.194  -8.713  38.082  1.00  0.00     0.017 A 
HETATM   14  C13 UNK     1      25.999  -6.363  39.008  1.00  0.00     0.038 A 
HETATM   15  C15 UNK     1      25.809  -8.652  38.270  1.00  0.00     0.001 A 
HETATM   16  C16 UNK     1      25.213  -7.478  38.733  1.00  0.00     0.003 A 
ENDROOT
BRANCH   5  17
HETATM   17  C5  UNK     1      32.115  -5.755  37.010  1.00  0.00    -0.042 A 
HETATM   18  C10 UNK     1      31.343  -5.672  35.819  1.00  0.00     0.015 A 
HETATM   19  C14 UNK     1      31.988  -4.954  34.836  1.00  0.00     0.050 A 
HETATM   20  S1  UNK     1      33.518  -4.385  35.356  1.00  0.00    -0.113 SA
HETATM   21  C11 UNK     1      33.320  -5.101  36.899  1.00  0.00     0.057 A 
ENDBRANCH   5  17
TORSDOF 1
ENDMDL
