MODEL 1
REMARK VINA RESULT:      -9.0      0.000      0.000
REMARK  5 active torsions:
REMARK  status: ('A' for Active; 'I' for Inactive)
REMARK    1  A    between atoms: C10_16  and  O2_3 
REMARK    2  A    between atoms: C4_10  and  O2_3 
REMARK    3  A    between atoms: C17_23  and  O3_4 
REMARK    4  A    between atoms: C2_8  and  C5_11 
REMARK    5  A    between atoms: C10_16  and  C17_23 
ROOT
HETATM    1 Cl1  UNK     1      19.009   6.261  29.756  1.00  0.00    -0.081 Cl
HETATM    2  O1  UNK     1      17.997   2.756  34.392  1.00  0.00    -0.275 OA
HETATM    3  O4  UNK     1      17.909   0.665  35.311  1.00  0.00    -0.260 OA
HETATM    4  C1  UNK     1      18.633   2.997  32.049  1.00  0.00     0.011 A 
HETATM    5  C2  UNK     1      18.778   1.536  31.950  1.00  0.00    -0.007 A 
HETATM    6  C3  UNK     1      18.248   3.561  33.264  1.00  0.00     0.093 A 
HETATM    7  C4  UNK     1      18.327   5.779  32.343  1.00  0.00     0.094 A 
HETATM    8  C6  UNK     1      18.864   3.858  30.969  1.00  0.00     0.042 A 
HETATM    9  C7  UNK     1      18.093   4.938  33.426  1.00  0.00     0.076 A 
HETATM   10  C8  UNK     1      18.713   5.240  31.115  1.00  0.00     0.068 A 
HETATM   11  C9  UNK     1      18.531   0.796  33.044  1.00  0.00     0.095 A 
HETATM   12  C11 UNK     1      18.123   1.377  34.336  1.00  0.00     0.289 A 
ENDROOT
BRANCH   7  13
HETATM   13  O2  UNK     1      18.173   7.123  32.508  1.00  0.00    -0.335 OA
BRANCH  13  14
HETATM   14  C10 UNK     1      16.890   7.582  32.928  1.00  0.00     0.224 C 
HETATM   15  C14 UNK     1      17.070   8.924  33.615  1.00  0.00     0.051 C 
BRANCH  14  16
HETATM   16  C17 UNK     1      15.995   7.699  31.711  1.00  0.00     0.287 C 
HETATM   17  O5  UNK     1      16.208   8.442  30.760  1.00  0.00    -0.262 OA
BRANCH  16  18
HETATM   18  O3  UNK     1      14.943   6.836  31.828  1.00  0.00    -0.324 OA
HETATM   19  C19 UNK     1      13.810   7.338  32.543  1.00  0.00     0.213 C 
ENDBRANCH  16  18
ENDBRANCH  14  16
ENDBRANCH  13  14
ENDBRANCH   7  13
BRANCH   5  20
HETATM   20  C5  UNK     1      19.170   0.789  30.759  1.00  0.00    -0.025 A 
HETATM   21  C12 UNK     1      18.553   1.056  29.540  1.00  0.00     0.012 A 
HETATM   22  C15 UNK     1      18.927   0.342  28.402  1.00  0.00     0.001 A 
HETATM   23  C18 UNK     1      19.917  -0.637  28.486  1.00  0.00     0.000 A 
HETATM   24  C16 UNK     1      20.533  -0.902  29.710  1.00  0.00     0.001 A 
HETATM   25  C13 UNK     1      20.158  -0.187  30.848  1.00  0.00     0.012 A 
ENDBRANCH   5  20
TORSDOF 5
ENDMDL
MODEL 2
REMARK VINA RESULT:      -8.3      3.445      7.783
REMARK  5 active torsions:
REMARK  status: ('A' for Active; 'I' for Inactive)
REMARK    1  A    between atoms: C10_16  and  O2_3 
REMARK    2  A    between atoms: C4_10  and  O2_3 
REMARK    3  A    between atoms: C17_23  and  O3_4 
REMARK    4  A    between atoms: C2_8  and  C5_11 
REMARK    5  A    between atoms: C10_16  and  C17_23 
ROOT
HETATM    1 Cl1  UNK     1      17.598   1.868  36.966  1.00  0.00    -0.081 Cl
HETATM    2  O1  UNK     1      18.640   0.940  31.235  1.00  0.00    -0.275 OA
HETATM    3  O4  UNK     1      19.007   1.757  29.131  1.00  0.00    -0.260 OA
HETATM    4  C1  UNK     1      18.290   2.506  33.072  1.00  0.00     0.011 A 
HETATM    5  C2  UNK     1      18.442   3.627  32.131  1.00  0.00    -0.007 A 
HETATM    6  C3  UNK     1      18.393   1.201  32.596  1.00  0.00     0.093 A 
HETATM    7  C4  UNK     1      18.012   0.294  34.789  1.00  0.00     0.094 A 
HETATM    8  C6  UNK     1      18.041   2.690  34.438  1.00  0.00     0.042 A 
HETATM    9  C7  UNK     1      18.259   0.093  33.435  1.00  0.00     0.076 A 
HETATM   10  C8  UNK     1      17.904   1.591  35.291  1.00  0.00     0.068 A 
HETATM   11  C9  UNK     1      18.678   3.346  30.838  1.00  0.00     0.095 A 
HETATM   12  C11 UNK     1      18.790   1.970  30.319  1.00  0.00     0.289 A 
ENDROOT
BRANCH   7  13
HETATM   13  O2  UNK     1      17.883  -0.792  35.602  1.00  0.00    -0.335 OA
BRANCH  13  14
HETATM   14  C10 UNK     1      18.927  -1.024  36.546  1.00  0.00     0.224 C 
HETATM   15  C14 UNK     1      18.291  -1.444  37.859  1.00  0.00     0.051 C 
BRANCH  14  16
HETATM   16  C17 UNK     1      19.840  -2.104  36.003  1.00  0.00     0.287 C 
HETATM   17  O5  UNK     1      20.801  -1.898  35.271  1.00  0.00    -0.262 OA
BRANCH  16  18
HETATM   18  O3  UNK     1      19.444  -3.322  36.476  1.00  0.00    -0.324 OA
HETATM   19  C19 UNK     1      20.484  -4.142  37.018  1.00  0.00     0.213 C 
ENDBRANCH  16  18
ENDBRANCH  14  16
ENDBRANCH  13  14
ENDBRANCH   7  13
BRANCH   5  20
HETATM   20  C5  UNK     1      18.363   5.046  32.462  1.00  0.00    -0.025 A 
HETATM   21  C12 UNK     1      17.141   5.709  32.378  1.00  0.00     0.012 A 
HETATM   22  C15 UNK     1      17.064   7.065  32.694  1.00  0.00     0.001 A 
HETATM   23  C18 UNK     1      18.210   7.755  33.093  1.00  0.00     0.000 A 
HETATM   24  C16 UNK     1      19.432   7.087  33.176  1.00  0.00     0.001 A 
HETATM   25  C13 UNK     1      19.508   5.730  32.860  1.00  0.00     0.012 A 
ENDBRANCH   5  20
TORSDOF 5
ENDMDL
MODEL 3
REMARK VINA RESULT:      -8.0     11.719     14.991
REMARK  5 active torsions:
REMARK  status: ('A' for Active; 'I' for Inactive)
REMARK    1  A    between atoms: C10_16  and  O2_3 
REMARK    2  A    between atoms: C4_10  and  O2_3 
REMARK    3  A    between atoms: C17_23  and  O3_4 
REMARK    4  A    between atoms: C2_8  and  C5_11 
REMARK    5  A    between atoms: C10_16  and  C17_23 
ROOT
HETATM    1 Cl1  UNK     1      21.947  -6.399  38.315  1.00  0.00    -0.081 Cl
HETATM    2  O1  UNK     1      22.978 -11.519  35.575  1.00  0.00    -0.275 OA
HETATM    3  O4  UNK     1      24.430 -13.164  34.930  1.00  0.00    -0.260 OA
HETATM    4  C1  UNK     1      23.825  -9.621  36.850  1.00  0.00     0.011 A 
HETATM    5  C2  UNK     1      25.175 -10.202  36.797  1.00  0.00    -0.007 A 
HETATM    6  C3  UNK     1      22.770 -10.295  36.239  1.00  0.00     0.093 A 
HETATM    7  C4  UNK     1      21.204  -8.594  36.893  1.00  0.00     0.094 A 
HETATM    8  C6  UNK     1      23.545  -8.407  37.491  1.00  0.00     0.042 A 
HETATM    9  C7  UNK     1      21.466  -9.800  36.252  1.00  0.00     0.076 A 
HETATM   10  C8  UNK     1      22.243  -7.898  37.513  1.00  0.00     0.068 A 
HETATM   11  C9  UNK     1      25.341 -11.370  36.156  1.00  0.00     0.095 A 
HETATM   12  C11 UNK     1      24.236 -12.098  35.504  1.00  0.00     0.289 A 
ENDROOT
BRANCH   7  13
HETATM   13  O2  UNK     1      19.928  -8.116  36.903  1.00  0.00    -0.335 OA
BRANCH  13  14
HETATM   14  C10 UNK     1      19.382  -7.701  35.652  1.00  0.00     0.224 C 
HETATM   15  C14 UNK     1      17.871  -7.829  35.731  1.00  0.00     0.051 C 
BRANCH  14  16
HETATM   16  C17 UNK     1      19.803  -6.270  35.390  1.00  0.00     0.287 C 
HETATM   17  O5  UNK     1      20.472  -5.907  34.430  1.00  0.00    -0.262 OA
BRANCH  16  18
HETATM   18  O3  UNK     1      19.301  -5.456  36.365  1.00  0.00    -0.324 OA
HETATM   19  C19 UNK     1      19.862  -4.141  36.421  1.00  0.00     0.213 C 
ENDBRANCH  16  18
ENDBRANCH  14  16
ENDBRANCH  13  14
ENDBRANCH   7  13
BRANCH   5  20
HETATM   20  C5  UNK     1      26.383  -9.627  37.382  1.00  0.00    -0.025 A 
HETATM   21  C12 UNK     1      27.046  -8.595  36.724  1.00  0.00     0.012 A 
HETATM   22  C15 UNK     1      28.201  -8.046  37.282  1.00  0.00     0.001 A 
HETATM   23  C18 UNK     1      28.688  -8.531  38.496  1.00  0.00     0.000 A 
HETATM   24  C16 UNK     1      28.020  -9.566  39.152  1.00  0.00     0.001 A 
HETATM   25  C13 UNK     1      26.866 -10.114  38.593  1.00  0.00     0.012 A 
ENDBRANCH   5  20
TORSDOF 5
ENDMDL
MODEL 4
REMARK VINA RESULT:      -7.8      3.616      5.954
REMARK  5 active torsions:
REMARK  status: ('A' for Active; 'I' for Inactive)
REMARK    1  A    between atoms: C10_16  and  O2_3 
REMARK    2  A    between atoms: C4_10  and  O2_3 
REMARK    3  A    between atoms: C17_23  and  O3_4 
REMARK    4  A    between atoms: C2_8  and  C5_11 
REMARK    5  A    between atoms: C10_16  and  C17_23 
ROOT
HETATM    1 Cl1  UNK     1      13.236   7.503  32.295  1.00  0.00    -0.081 Cl
HETATM    2  O1  UNK     1      18.414   9.423  34.368  1.00  0.00    -0.275 OA
HETATM    3  O4  UNK     1      20.680   9.185  34.565  1.00  0.00    -0.260 OA
HETATM    4  C1  UNK     1      17.155   7.774  33.085  1.00  0.00     0.011 A 
HETATM    5  C2  UNK     1      18.406   7.052  32.806  1.00  0.00    -0.007 A 
HETATM    6  C3  UNK     1      17.197   8.935  33.855  1.00  0.00     0.093 A 
HETATM    7  C4  UNK     1      14.819   9.229  33.676  1.00  0.00     0.094 A 
HETATM    8  C6  UNK     1      15.909   7.347  32.610  1.00  0.00     0.042 A 
HETATM    9  C7  UNK     1      16.049   9.668  34.156  1.00  0.00     0.076 A 
HETATM   10  C8  UNK     1      14.748   8.070  32.903  1.00  0.00     0.068 A 
HETATM   11  C9  UNK     1      19.550   7.543  33.310  1.00  0.00     0.095 A 
HETATM   12  C11 UNK     1      19.613   8.770  34.126  1.00  0.00     0.289 A 
ENDROOT
BRANCH   7  13
HETATM   13  O2  UNK     1      13.701   9.950  33.974  1.00  0.00    -0.335 OA
BRANCH  13  14
HETATM   14  C10 UNK     1      13.820  11.371  33.948  1.00  0.00     0.224 C 
HETATM   15  C14 UNK     1      13.296  11.864  32.611  1.00  0.00     0.051 C 
BRANCH  14  16
HETATM   16  C17 UNK     1      13.022  11.946  35.101  1.00  0.00     0.287 C 
HETATM   17  O5  UNK     1      11.842  12.267  35.037  1.00  0.00    -0.262 OA
BRANCH  16  18
HETATM   18  O3  UNK     1      13.811  12.021  36.213  1.00  0.00    -0.324 OA
HETATM   19  C19 UNK     1      15.039  12.735  36.053  1.00  0.00     0.213 C 
ENDBRANCH  16  18
ENDBRANCH  14  16
ENDBRANCH  13  14
ENDBRANCH   7  13
BRANCH   5  20
HETATM   20  C5  UNK     1      18.537   5.828  32.022  1.00  0.00    -0.025 A 
HETATM   21  C12 UNK     1      18.151   4.609  32.573  1.00  0.00     0.012 A 
HETATM   22  C15 UNK     1      18.276   3.439  31.825  1.00  0.00     0.001 A 
HETATM   23  C18 UNK     1      18.786   3.491  30.527  1.00  0.00     0.000 A 
HETATM   24  C16 UNK     1      19.171   4.715  29.979  1.00  0.00     0.001 A 
HETATM   25  C13 UNK     1      19.046   5.885  30.728  1.00  0.00     0.012 A 
ENDBRANCH   5  20
TORSDOF 5
ENDMDL
MODEL 5
REMARK VINA RESULT:      -7.7     22.299     23.851
REMARK  5 active torsions:
REMARK  status: ('A' for Active; 'I' for Inactive)
REMARK    1  A    between atoms: C10_16  and  O2_3 
REMARK    2  A    between atoms: C4_10  and  O2_3 
REMARK    3  A    between atoms: C17_23  and  O3_4 
REMARK    4  A    between atoms: C2_8  and  C5_11 
REMARK    5  A    between atoms: C10_16  and  C17_23 
ROOT
HETATM    1 Cl1  UNK     1      14.122  11.608   9.497  1.00  0.00    -0.081 Cl
HETATM    2  O1  UNK     1      16.197   6.119  10.095  1.00  0.00    -0.275 OA
HETATM    3  O4  UNK     1      15.964   3.867   9.771  1.00  0.00    -0.260 OA
HETATM    4  C1  UNK     1      14.442   7.619   9.307  1.00  0.00     0.011 A 
HETATM    5  C2  UNK     1      13.688   6.458   8.809  1.00  0.00    -0.007 A 
HETATM    6  C3  UNK     1      15.670   7.415   9.933  1.00  0.00     0.093 A 
HETATM    7  C4  UNK     1      15.961   9.772  10.296  1.00  0.00     0.094 A 
HETATM    8  C6  UNK     1      13.979   8.935   9.183  1.00  0.00     0.042 A 
HETATM    9  C7  UNK     1      16.435   8.471  10.428  1.00  0.00     0.076 A 
HETATM   10  C8  UNK     1      14.734  10.005   9.673  1.00  0.00     0.068 A 
HETATM   11  C9  UNK     1      14.218   5.235   8.978  1.00  0.00     0.095 A 
HETATM   12  C11 UNK     1      15.516   5.001   9.638  1.00  0.00     0.289 A 
ENDROOT
BRANCH   7  13
HETATM   13  O2  UNK     1      16.714  10.800  10.781  1.00  0.00    -0.335 OA
BRANCH  13  14
HETATM   14  C10 UNK     1      17.267  11.705   9.828  1.00  0.00     0.224 C 
HETATM   15  C14 UNK     1      17.305  13.087  10.456  1.00  0.00     0.051 C 
BRANCH  14  16
HETATM   16  C17 UNK     1      18.655  11.228   9.455  1.00  0.00     0.287 C 
HETATM   17  O5  UNK     1      19.607  11.191  10.225  1.00  0.00    -0.262 OA
BRANCH  16  18
HETATM   18  O3  UNK     1      18.669  10.825   8.150  1.00  0.00    -0.324 OA
HETATM   19  C19 UNK     1      19.142  11.794   7.210  1.00  0.00     0.213 C 
ENDBRANCH  16  18
ENDBRANCH  14  16
ENDBRANCH  13  14
ENDBRANCH   7  13
BRANCH   5  20
HETATM   20  C5  UNK     1      12.395   6.496   8.134  1.00  0.00    -0.025 A 
HETATM   21  C12 UNK     1      12.341   6.583   6.745  1.00  0.00     0.012 A 
HETATM   22  C15 UNK     1      11.106   6.620   6.100  1.00  0.00     0.001 A 
HETATM   23  C18 UNK     1       9.927   6.570   6.845  1.00  0.00     0.000 A 
HETATM   24  C16 UNK     1       9.986   6.483   8.236  1.00  0.00     0.001 A 
HETATM   25  C13 UNK     1      11.222   6.446   8.881  1.00  0.00     0.012 A 
ENDBRANCH   5  20
TORSDOF 5
ENDMDL
MODEL 6
REMARK VINA RESULT:      -7.6     16.199     18.040
REMARK  5 active torsions:
REMARK  status: ('A' for Active; 'I' for Inactive)
REMARK    1  A    between atoms: C10_16  and  O2_3 
REMARK    2  A    between atoms: C4_10  and  O2_3 
REMARK    3  A    between atoms: C17_23  and  O3_4 
REMARK    4  A    between atoms: C2_8  and  C5_11 
REMARK    5  A    between atoms: C10_16  and  C17_23 
ROOT
HETATM    1 Cl1  UNK     1      31.143  -8.459  34.108  1.00  0.00    -0.081 Cl
HETATM    2  O1  UNK     1      30.474  -4.159  38.090  1.00  0.00    -0.275 OA
HETATM    3  O4  UNK     1      29.498  -3.360  39.997  1.00  0.00    -0.260 OA
HETATM    4  C1  UNK     1      29.889  -6.392  37.303  1.00  0.00     0.011 A 
HETATM    5  C2  UNK     1      28.976  -6.544  38.447  1.00  0.00    -0.007 A 
HETATM    6  C3  UNK     1      30.609  -5.208  37.160  1.00  0.00     0.093 A 
HETATM    7  C4  UNK     1      31.661  -6.003  35.151  1.00  0.00     0.094 A 
HETATM    8  C6  UNK     1      30.071  -7.392  36.339  1.00  0.00     0.042 A 
HETATM    9  C7  UNK     1      31.491  -4.999  36.100  1.00  0.00     0.076 A 
HETATM   10  C8  UNK     1      30.953  -7.199  35.271  1.00  0.00     0.068 A 
HETATM   11  C9  UNK     1      28.870  -5.525  39.316  1.00  0.00     0.095 A 
HETATM   12  C11 UNK     1      29.624  -4.265  39.180  1.00  0.00     0.289 A 
ENDROOT
BRANCH   7  13
HETATM   13  O2  UNK     1      32.525  -5.793  34.118  1.00  0.00    -0.335 OA
BRANCH  13  14
HETATM   14  C10 UNK     1      33.859  -6.271  34.282  1.00  0.00     0.224 C 
HETATM   15  C14 UNK     1      34.337  -6.802  32.942  1.00  0.00     0.051 C 
BRANCH  14  16
HETATM   16  C17 UNK     1      34.728  -5.128  34.765  1.00  0.00     0.287 C 
HETATM   17  O5  UNK     1      34.687  -3.987  34.321  1.00  0.00    -0.262 OA
BRANCH  16  18
HETATM   18  O3  UNK     1      35.533  -5.560  35.780  1.00  0.00    -0.324 OA
HETATM   19  C19 UNK     1      34.855  -6.087  36.925  1.00  0.00     0.213 C 
ENDBRANCH  16  18
ENDBRANCH  14  16
ENDBRANCH  13  14
ENDBRANCH   7  13
BRANCH   5  20
HETATM   20  C5  UNK     1      28.153  -7.712  38.742  1.00  0.00    -0.025 A 
HETATM   21  C12 UNK     1      28.760  -8.920  39.077  1.00  0.00     0.012 A 
HETATM   22  C15 UNK     1      27.974 -10.037  39.359  1.00  0.00     0.001 A 
HETATM   23  C18 UNK     1      26.583  -9.944  39.306  1.00  0.00     0.000 A 
HETATM   24  C16 UNK     1      25.979  -8.732  38.970  1.00  0.00     0.001 A 
HETATM   25  C13 UNK     1      26.765  -7.615  38.688  1.00  0.00     0.012 A 
ENDBRANCH   5  20
TORSDOF 5
ENDMDL
MODEL 7
REMARK VINA RESULT:      -7.5      4.713      6.976
REMARK  5 active torsions:
REMARK  status: ('A' for Active; 'I' for Inactive)
REMARK    1  A    between atoms: C10_16  and  O2_3 
REMARK    2  A    between atoms: C4_10  and  O2_3 
REMARK    3  A    between atoms: C17_23  and  O3_4 
REMARK    4  A    between atoms: C2_8  and  C5_11 
REMARK    5  A    between atoms: C10_16  and  C17_23 
ROOT
HETATM    1 Cl1  UNK     1      18.524  12.108  34.743  1.00  0.00    -0.081 Cl
HETATM    2  O1  UNK     1      14.213   8.554  32.850  1.00  0.00    -0.275 OA
HETATM    3  O4  UNK     1      13.544   6.596  31.877  1.00  0.00    -0.260 OA
HETATM    4  C1  UNK     1      16.596   8.976  33.152  1.00  0.00     0.011 A 
HETATM    5  C2  UNK     1      16.894   7.675  32.534  1.00  0.00    -0.007 A 
HETATM    6  C3  UNK     1      15.268   9.375  33.291  1.00  0.00     0.093 A 
HETATM    7  C4  UNK     1      15.921  11.447  34.320  1.00  0.00     0.094 A 
HETATM    8  C6  UNK     1      17.594   9.845  33.611  1.00  0.00     0.042 A 
HETATM    9  C7  UNK     1      14.917  10.596  33.868  1.00  0.00     0.076 A 
HETATM   10  C8  UNK     1      17.259  11.071  34.192  1.00  0.00     0.068 A 
HETATM   11  C9  UNK     1      15.864   6.915  32.124  1.00  0.00     0.095 A 
HETATM   12  C11 UNK     1      14.454   7.322  32.264  1.00  0.00     0.289 A 
ENDROOT
BRANCH   7  13
HETATM   13  O2  UNK     1      15.571  12.638  34.883  1.00  0.00    -0.335 OA
BRANCH  13  14
HETATM   14  C10 UNK     1      15.452  12.673  36.303  1.00  0.00     0.224 C 
HETATM   15  C14 UNK     1      15.627  14.111  36.756  1.00  0.00     0.051 C 
BRANCH  14  16
HETATM   16  C17 UNK     1      14.090  12.133  36.689  1.00  0.00     0.287 C 
HETATM   17  O5  UNK     1      13.025  12.569  36.268  1.00  0.00    -0.262 OA
BRANCH  16  18
HETATM   18  O3  UNK     1      14.237  11.080  37.547  1.00  0.00    -0.324 OA
HETATM   19  C19 UNK     1      13.380  11.092  38.691  1.00  0.00     0.213 C 
ENDBRANCH  16  18
ENDBRANCH  14  16
ENDBRANCH  13  14
ENDBRANCH   7  13
BRANCH   5  20
HETATM   20  C5  UNK     1      18.221   7.109  32.314  1.00  0.00    -0.025 A 
HETATM   21  C12 UNK     1      19.177   7.175  33.324  1.00  0.00     0.012 A 
HETATM   22  C15 UNK     1      20.446   6.636  33.115  1.00  0.00     0.001 A 
HETATM   23  C18 UNK     1      20.755   6.031  31.895  1.00  0.00     0.000 A 
HETATM   24  C16 UNK     1      19.794   5.967  30.886  1.00  0.00     0.001 A 
HETATM   25  C13 UNK     1      18.525   6.507  31.096  1.00  0.00     0.012 A 
ENDBRANCH   5  20
TORSDOF 5
ENDMDL
MODEL 8
REMARK VINA RESULT:      -7.4     22.613     24.426
REMARK  5 active torsions:
REMARK  status: ('A' for Active; 'I' for Inactive)
REMARK    1  A    between atoms: C10_16  and  O2_3 
REMARK    2  A    between atoms: C4_10  and  O2_3 
REMARK    3  A    between atoms: C17_23  and  O3_4 
REMARK    4  A    between atoms: C2_8  and  C5_11 
REMARK    5  A    between atoms: C10_16  and  C17_23 
ROOT
HETATM    1 Cl1  UNK     1      10.015   9.775   9.447  1.00  0.00    -0.081 Cl
HETATM    2  O1  UNK     1      13.910   5.345   9.452  1.00  0.00    -0.275 OA
HETATM    3  O4  UNK     1      16.076   4.612   9.472  1.00  0.00    -0.260 OA
HETATM    4  C1  UNK     1      13.468   7.744   9.471  1.00  0.00     0.011 A 
HETATM    5  C2  UNK     1      14.917   7.999   9.492  1.00  0.00    -0.007 A 
HETATM    6  C3  UNK     1      13.010   6.428   9.452  1.00  0.00     0.093 A 
HETATM    7  C4  UNK     1      10.718   7.149   9.431  1.00  0.00     0.094 A 
HETATM    8  C6  UNK     1      12.516   8.771   9.469  1.00  0.00     0.042 A 
HETATM    9  C7  UNK     1      11.650   6.117   9.433  1.00  0.00     0.076 A 
HETATM   10  C8  UNK     1      11.150   8.476   9.450  1.00  0.00     0.068 A 
HETATM   11  C9  UNK     1      15.749   6.945   9.491  1.00  0.00     0.095 A 
HETATM   12  C11 UNK     1      15.281   5.547   9.471  1.00  0.00     0.289 A 
ENDROOT
BRANCH   7  13
HETATM   13  O2  UNK     1       9.391   6.838   9.412  1.00  0.00    -0.335 OA
BRANCH  13  14
HETATM   14  C10 UNK     1       8.999   5.721   8.616  1.00  0.00     0.224 C 
HETATM   15  C14 UNK     1       7.853   5.017   9.321  1.00  0.00     0.051 C 
BRANCH  14  16
HETATM   16  C17 UNK     1       8.581   6.223   7.249  1.00  0.00     0.287 C 
HETATM   17  O5  UNK     1       7.648   6.990   7.045  1.00  0.00    -0.262 OA
BRANCH  16  18
HETATM   18  O3  UNK     1       9.417   5.713   6.296  1.00  0.00    -0.324 OA
HETATM   19  C19 UNK     1      10.461   6.588   5.859  1.00  0.00     0.213 C 
ENDBRANCH  16  18
ENDBRANCH  14  16
ENDBRANCH  13  14
ENDBRANCH   7  13
BRANCH   5  20
HETATM   20  C5  UNK     1      15.560   9.309   9.513  1.00  0.00    -0.025 A 
HETATM   21  C12 UNK     1      16.250   9.723  10.649  1.00  0.00     0.012 A 
HETATM   22  C15 UNK     1      16.864  10.975  10.671  1.00  0.00     0.001 A 
HETATM   23  C18 UNK     1      16.788  11.809   9.555  1.00  0.00     0.000 A 
HETATM   24  C16 UNK     1      16.096  11.390   8.418  1.00  0.00     0.001 A 
HETATM   25  C13 UNK     1      15.481  10.138   8.398  1.00  0.00     0.012 A 
ENDBRANCH   5  20
TORSDOF 5
ENDMDL
MODEL 9
REMARK VINA RESULT:      -7.4     16.367     18.723
REMARK  5 active torsions:
REMARK  status: ('A' for Active; 'I' for Inactive)
REMARK    1  A    between atoms: C10_16  and  O2_3 
REMARK    2  A    between atoms: C4_10  and  O2_3 
REMARK    3  A    between atoms: C17_23  and  O3_4 
REMARK    4  A    between atoms: C2_8  and  C5_11 
REMARK    5  A    between atoms: C10_16  and  C17_23 
ROOT
HETATM    1 Cl1  UNK     1      32.846  -8.986  35.209  1.00  0.00    -0.081 Cl
HETATM    2  O1  UNK     1      30.876  -4.574  38.592  1.00  0.00    -0.275 OA
HETATM    3  O4  UNK     1      29.270  -3.692  39.960  1.00  0.00    -0.260 OA
HETATM    4  C1  UNK     1      30.540  -6.797  37.647  1.00  0.00     0.011 A 
HETATM    5  C2  UNK     1      29.245  -6.885  38.341  1.00  0.00    -0.007 A 
HETATM    6  C3  UNK     1      31.314  -5.648  37.793  1.00  0.00     0.093 A 
HETATM    7  C4  UNK     1      33.030  -6.531  36.362  1.00  0.00     0.094 A 
HETATM    8  C6  UNK     1      31.038  -7.825  36.836  1.00  0.00     0.042 A 
HETATM    9  C7  UNK     1      32.550  -5.500  37.164  1.00  0.00     0.076 A 
HETATM   10  C8  UNK     1      32.275  -7.693  36.198  1.00  0.00     0.068 A 
HETATM   11  C9  UNK     1      28.856  -5.843  39.095  1.00  0.00     0.095 A 
HETATM   12  C11 UNK     1      29.662  -4.620  39.261  1.00  0.00     0.289 A 
ENDROOT
BRANCH   7  13
HETATM   13  O2  UNK     1      34.238  -6.380  35.750  1.00  0.00    -0.335 OA
BRANCH  13  14
HETATM   14  C10 UNK     1      34.236  -5.812  34.442  1.00  0.00     0.224 C 
HETATM   15  C14 UNK     1      34.756  -4.389  34.545  1.00  0.00     0.051 C 
BRANCH  14  16
HETATM   16  C17 UNK     1      35.115  -6.658  33.543  1.00  0.00     0.287 C 
HETATM   17  O5  UNK     1      34.716  -7.275  32.563  1.00  0.00    -0.262 OA
BRANCH  16  18
HETATM   18  O3  UNK     1      36.408  -6.601  33.978  1.00  0.00    -0.324 OA
HETATM   19  C19 UNK     1      37.036  -7.864  34.216  1.00  0.00     0.213 C 
ENDBRANCH  16  18
ENDBRANCH  14  16
ENDBRANCH  13  14
ENDBRANCH   7  13
BRANCH   5  20
HETATM   20  C5  UNK     1      28.318  -8.011  38.294  1.00  0.00    -0.025 A 
HETATM   21  C12 UNK     1      27.402  -8.109  37.250  1.00  0.00     0.012 A 
HETATM   22  C15 UNK     1      26.515  -9.185  37.205  1.00  0.00     0.001 A 
HETATM   23  C18 UNK     1      26.547 -10.158  38.204  1.00  0.00     0.000 A 
HETATM   24  C16 UNK     1      27.467 -10.055  39.248  1.00  0.00     0.001 A 
HETATM   25  C13 UNK     1      28.353  -8.979  39.293  1.00  0.00     0.012 A 
ENDBRANCH   5  20
TORSDOF 5
ENDMDL
MODEL 10
REMARK VINA RESULT:      -7.3     12.170     15.441
REMARK  5 active torsions:
REMARK  status: ('A' for Active; 'I' for Inactive)
REMARK    1  A    between atoms: C10_16  and  O2_3 
REMARK    2  A    between atoms: C4_10  and  O2_3 
REMARK    3  A    between atoms: C17_23  and  O3_4 
REMARK    4  A    between atoms: C2_8  and  C5_11 
REMARK    5  A    between atoms: C10_16  and  C17_23 
ROOT
HETATM    1 Cl1  UNK     1      23.498  -5.932  39.181  1.00  0.00    -0.081 Cl
HETATM    2  O1  UNK     1      23.224 -10.830  35.905  1.00  0.00    -0.275 OA
HETATM    3  O4  UNK     1      24.239 -12.673  35.010  1.00  0.00    -0.260 OA
HETATM    4  C1  UNK     1      24.534  -9.310  37.292  1.00  0.00     0.011 A 
HETATM    5  C2  UNK     1      25.716 -10.163  37.091  1.00  0.00    -0.007 A 
HETATM    6  C3  UNK     1      23.327  -9.669  36.695  1.00  0.00     0.093 A 
HETATM    7  C4  UNK     1      22.216  -7.746  37.614  1.00  0.00     0.094 A 
HETATM    8  C6  UNK     1      24.564  -8.141  38.062  1.00  0.00     0.042 A 
HETATM    9  C7  UNK     1      22.170  -8.905  36.845  1.00  0.00     0.076 A 
HETATM   10  C8  UNK     1      23.412  -7.365  38.223  1.00  0.00     0.068 A 
HETATM   11  C9  UNK     1      25.585 -11.264  36.332  1.00  0.00     0.095 A 
HETATM   12  C11 UNK     1      24.315 -11.658  35.694  1.00  0.00     0.289 A 
ENDROOT
BRANCH   7  13
HETATM   13  O2  UNK     1      21.081  -7.005  37.757  1.00  0.00    -0.335 OA
BRANCH  13  14
HETATM   14  C10 UNK     1      19.849  -7.718  37.847  1.00  0.00     0.224 C 
HETATM   15  C14 UNK     1      19.536  -7.935  39.316  1.00  0.00     0.051 C 
BRANCH  14  16
HETATM   16  C17 UNK     1      18.768  -6.904  37.165  1.00  0.00     0.287 C 
HETATM   17  O5  UNK     1      17.603  -6.845  37.539  1.00  0.00    -0.262 OA
BRANCH  16  18
HETATM   18  O3  UNK     1      19.298  -6.236  36.098  1.00  0.00    -0.324 OA
HETATM   19  C19 UNK     1      19.408  -6.992  34.889  1.00  0.00     0.213 C 
ENDBRANCH  16  18
ENDBRANCH  14  16
ENDBRANCH  13  14
ENDBRANCH   7  13
BRANCH   5  20
HETATM   20  C5  UNK     1      27.048  -9.933  37.642  1.00  0.00    -0.025 A 
HETATM   21  C12 UNK     1      27.313 -10.257  38.969  1.00  0.00     0.012 A 
HETATM   22  C15 UNK     1      28.585 -10.037  39.497  1.00  0.00     0.001 A 
HETATM   23  C18 UNK     1      29.589  -9.493  38.694  1.00  0.00     0.000 A 
HETATM   24  C16 UNK     1      29.318  -9.169  37.364  1.00  0.00     0.001 A 
HETATM   25  C13 UNK     1      28.046  -9.390  36.838  1.00  0.00     0.012 A 
ENDBRANCH   5  20
TORSDOF 5
ENDMDL
