MODEL 1
REMARK VINA RESULT:      -8.2      0.000      0.000
REMARK  4 active torsions:
REMARK  status: ('A' for Active; 'I' for Inactive)
REMARK    1  A    between atoms: C11_15  and  O2_2 
REMARK    2  A    between atoms: C6_10  and  N1_4 
REMARK    3  A    between atoms: C6_10  and  C9_13 
REMARK    4  A    between atoms: C15_19  and  C18_22 
ROOT
HETATM    1  O1  UNK     1      29.272  -5.853  33.395  1.00  0.00    -0.274 OA
HETATM    2  O3  UNK     1      29.547  -4.217  31.823  1.00  0.00    -0.260 OA
HETATM    3  C9  UNK     1      28.984  -7.572  35.029  1.00  0.00     0.038 A 
HETATM    4  C10 UNK     1      29.098  -7.220  33.687  1.00  0.00     0.101 A 
HETATM    5  C11 UNK     1      28.813  -8.904  35.378  1.00  0.00     0.076 A 
HETATM    6  C12 UNK     1      29.045  -8.171  32.670  1.00  0.00     0.010 A 
HETATM    7  C13 UNK     1      28.757  -9.876  34.379  1.00  0.00     0.038 A 
HETATM    8  C14 UNK     1      28.873  -9.513  33.033  1.00  0.00     0.018 A 
HETATM    9  C15 UNK     1      29.171  -7.734  31.270  1.00  0.00    -0.007 A 
HETATM   10  C16 UNK     1      29.335  -6.423  31.026  1.00  0.00     0.095 A 
HETATM   11  C17 UNK     1      29.395  -5.404  32.089  1.00  0.00     0.289 A 
ENDROOT
BRANCH   3  12
HETATM   12  C6  UNK     1      29.047  -6.519  36.098  1.00  0.00     0.317 C 
BRANCH  12  13
HETATM   13  N1  UNK     1      30.258  -6.639  36.915  1.00  0.00     0.101 N 
HETATM   14  C1  UNK     1      31.470  -6.393  36.102  1.00  0.00     0.220 C 
HETATM   15  C3  UNK     1      31.711  -4.901  35.813  1.00  0.00     0.035 C 
HETATM   16  C7  UNK     1      32.698  -7.050  36.750  1.00  0.00     0.043 C 
HETATM   17  C5  UNK     1      31.675  -4.044  37.072  1.00  0.00     0.004 C 
HETATM   18  C4  UNK     1      30.413  -4.318  37.882  1.00  0.00     0.035 C 
HETATM   19  C2  UNK     1      30.230  -5.822  38.149  1.00  0.00     0.220 C 
HETATM   20  C8  UNK     1      28.983  -6.062  39.009  1.00  0.00     0.043 C 
ENDBRANCH  12  13
ENDBRANCH   3  12
BRANCH   5  21
HETATM   21  O2  UNK     1      28.699  -9.281  36.682  1.00  0.00    -0.360 OA
HETATM   22  H20 UNK     1      28.926  -8.526  37.252  1.00  0.00     0.217 HD
ENDBRANCH   5  21
BRANCH   9  23
HETATM   23  C18 UNK     1      29.136  -8.595  30.093  1.00  0.00    -0.025 A 
HETATM   24  C19 UNK     1      27.914  -9.050  29.604  1.00  0.00     0.012 A 
HETATM   25  C21 UNK     1      27.880  -9.874  28.479  1.00  0.00     0.001 A 
HETATM   26  C23 UNK     1      29.068 -10.240  27.847  1.00  0.00     0.000 A 
HETATM   27  C22 UNK     1      30.290  -9.784  28.340  1.00  0.00     0.001 A 
HETATM   28  C20 UNK     1      30.324  -8.960  29.465  1.00  0.00     0.012 A 
ENDBRANCH   9  23
TORSDOF 4
ENDMDL
MODEL 2
REMARK VINA RESULT:      -8.2     19.371     21.037
REMARK  4 active torsions:
REMARK  status: ('A' for Active; 'I' for Inactive)
REMARK    1  A    between atoms: C11_15  and  O2_2 
REMARK    2  A    between atoms: C6_10  and  N1_4 
REMARK    3  A    between atoms: C6_10  and  C9_13 
REMARK    4  A    between atoms: C15_19  and  C18_22 
ROOT
HETATM    1  O1  UNK     1      18.099   9.100  34.232  1.00  0.00    -0.274 OA
HETATM    2  O3  UNK     1      20.339   8.843  34.612  1.00  0.00    -0.260 OA
HETATM    3  C9  UNK     1      15.759   9.357  33.826  1.00  0.00     0.038 A 
HETATM    4  C10 UNK     1      16.929   8.638  33.598  1.00  0.00     0.101 A 
HETATM    5  C11 UNK     1      14.575   8.950  33.230  1.00  0.00     0.076 A 
HETATM    6  C12 UNK     1      16.951   7.509  32.782  1.00  0.00     0.010 A 
HETATM    7  C13 UNK     1      14.569   7.822  32.410  1.00  0.00     0.038 A 
HETATM    8  C14 UNK     1      15.749   7.105  32.186  1.00  0.00     0.018 A 
HETATM    9  C15 UNK     1      18.221   6.793  32.581  1.00  0.00    -0.007 A 
HETATM   10  C16 UNK     1      19.319   7.260  33.198  1.00  0.00     0.095 A 
HETATM   11  C17 UNK     1      19.313   8.451  34.066  1.00  0.00     0.289 A 
ENDROOT
BRANCH   3  12
HETATM   12  C6  UNK     1      15.774  10.570  34.713  1.00  0.00     0.317 C 
BRANCH  12  13
HETATM   13  N1  UNK     1      15.747  11.814  33.939  1.00  0.00     0.101 N 
HETATM   14  C1  UNK     1      14.424  12.470  34.038  1.00  0.00     0.220 C 
HETATM   15  C3  UNK     1      14.209  13.198  35.377  1.00  0.00     0.035 C 
HETATM   16  C7  UNK     1      14.192  13.405  32.842  1.00  0.00     0.043 C 
HETATM   17  C5  UNK     1      15.352  14.145  35.722  1.00  0.00     0.004 C 
HETATM   18  C4  UNK     1      16.698  13.438  35.615  1.00  0.00     0.035 C 
HETATM   19  C2  UNK     1      16.860  12.738  34.254  1.00  0.00     0.220 C 
HETATM   20  C8  UNK     1      18.243  12.081  34.155  1.00  0.00     0.043 C 
ENDBRANCH  12  13
ENDBRANCH   3  12
BRANCH   5  21
HETATM   21  O2  UNK     1      13.413   9.631  33.434  1.00  0.00    -0.360 OA
HETATM   22  H20 UNK     1      12.671   9.105  33.088  1.00  0.00     0.217 HD
ENDBRANCH   5  21
BRANCH   9  23
HETATM   23  C18 UNK     1      18.416   5.601  31.762  1.00  0.00    -0.025 A 
HETATM   24  C19 UNK     1      18.919   5.724  30.469  1.00  0.00     0.012 A 
HETATM   25  C21 UNK     1      19.106   4.585  29.685  1.00  0.00     0.001 A 
HETATM   26  C23 UNK     1      18.789   3.328  30.197  1.00  0.00     0.000 A 
HETATM   27  C22 UNK     1      18.284   3.208  31.492  1.00  0.00     0.001 A 
HETATM   28  C20 UNK     1      18.097   4.347  32.276  1.00  0.00     0.012 A 
ENDBRANCH   9  23
TORSDOF 4
ENDMDL
MODEL 3
REMARK VINA RESULT:      -8.0     15.064     16.652
REMARK  4 active torsions:
REMARK  status: ('A' for Active; 'I' for Inactive)
REMARK    1  A    between atoms: C11_15  and  O2_2 
REMARK    2  A    between atoms: C6_10  and  N1_4 
REMARK    3  A    between atoms: C6_10  and  C9_13 
REMARK    4  A    between atoms: C15_19  and  C18_22 
ROOT
HETATM    1  O1  UNK     1      17.869   2.967  33.786  1.00  0.00    -0.274 OA
HETATM    2  O3  UNK     1      17.648   1.202  35.223  1.00  0.00    -0.260 OA
HETATM    3  C9  UNK     1      18.105   4.802  32.276  1.00  0.00     0.038 A 
HETATM    4  C10 UNK     1      18.257   3.440  32.518  1.00  0.00     0.101 A 
HETATM    5  C11 UNK     1      18.469   5.327  31.044  1.00  0.00     0.076 A 
HETATM    6  C12 UNK     1      18.767   2.574  31.552  1.00  0.00     0.010 A 
HETATM    7  C13 UNK     1      18.981   4.482  30.060  1.00  0.00     0.038 A 
HETATM    8  C14 UNK     1      19.129   3.113  30.311  1.00  0.00     0.018 A 
HETATM    9  C15 UNK     1      18.902   1.144  31.870  1.00  0.00    -0.007 A 
HETATM   10  C16 UNK     1      18.525   0.725  33.090  1.00  0.00     0.095 A 
HETATM   11  C17 UNK     1      17.982   1.626  34.121  1.00  0.00     0.289 A 
ENDROOT
BRANCH   3  12
HETATM   12  C6  UNK     1      17.551   5.705  33.341  1.00  0.00     0.317 C 
BRANCH  12  13
HETATM   13  N1  UNK     1      17.249   7.043  32.823  1.00  0.00     0.101 N 
HETATM   14  C1  UNK     1      15.792   7.223  32.643  1.00  0.00     0.220 C 
HETATM   15  C3  UNK     1      15.047   7.475  33.966  1.00  0.00     0.035 C 
HETATM   16  C7  UNK     1      15.505   8.326  31.613  1.00  0.00     0.043 C 
HETATM   17  C5  UNK     1      15.671   8.595  34.790  1.00  0.00     0.004 C 
HETATM   18  C4  UNK     1      17.171   8.376  34.959  1.00  0.00     0.035 C 
HETATM   19  C2  UNK     1      17.862   8.140  33.605  1.00  0.00     0.220 C 
HETATM   20  C8  UNK     1      19.374   7.976  33.801  1.00  0.00     0.043 C 
ENDBRANCH  12  13
ENDBRANCH   3  12
BRANCH   5  21
HETATM   21  O2  UNK     1      18.332   6.656  30.776  1.00  0.00    -0.360 OA
HETATM   22  H20 UNK     1      18.698   6.840  29.894  1.00  0.00     0.217 HD
ENDBRANCH   5  21
BRANCH   9  23
HETATM   23  C18 UNK     1      19.416   0.109  30.979  1.00  0.00    -0.025 A 
HETATM   24  C19 UNK     1      19.726  -1.150  31.485  1.00  0.00     0.012 A 
HETATM   25  C21 UNK     1      20.218  -2.139  30.633  1.00  0.00     0.001 A 
HETATM   26  C23 UNK     1      20.397  -1.866  29.278  1.00  0.00     0.000 A 
HETATM   27  C22 UNK     1      20.086  -0.604  28.774  1.00  0.00     0.001 A 
HETATM   28  C20 UNK     1      19.595   0.386  29.626  1.00  0.00     0.012 A 
ENDBRANCH   9  23
TORSDOF 4
ENDMDL
MODEL 4
REMARK VINA RESULT:      -8.0     20.742     22.507
REMARK  4 active torsions:
REMARK  status: ('A' for Active; 'I' for Inactive)
REMARK    1  A    between atoms: C11_15  and  O2_2 
REMARK    2  A    between atoms: C6_10  and  N1_4 
REMARK    3  A    between atoms: C6_10  and  C9_13 
REMARK    4  A    between atoms: C15_19  and  C18_22 
ROOT
HETATM    1  O1  UNK     1      14.458   8.670  33.221  1.00  0.00    -0.274 OA
HETATM    2  O3  UNK     1      13.440   6.896  32.201  1.00  0.00    -0.260 OA
HETATM    3  C9  UNK     1      15.535  10.520  34.283  1.00  0.00     0.038 A 
HETATM    4  C10 UNK     1      15.652   9.344  33.546  1.00  0.00     0.101 A 
HETATM    5  C11 UNK     1      16.675  11.229  34.632  1.00  0.00     0.076 A 
HETATM    6  C12 UNK     1      16.890   8.849  33.142  1.00  0.00     0.010 A 
HETATM    7  C13 UNK     1      17.927  10.756  34.239  1.00  0.00     0.038 A 
HETATM    8  C14 UNK     1      18.035   9.574  33.498  1.00  0.00     0.018 A 
HETATM    9  C15 UNK     1      16.946   7.601  32.366  1.00  0.00    -0.007 A 
HETATM   10  C16 UNK     1      15.790   6.982  32.074  1.00  0.00     0.095 A 
HETATM   11  C17 UNK     1      14.472   7.492  32.490  1.00  0.00     0.289 A 
ENDROOT
BRANCH   3  12
HETATM   12  C6  UNK     1      14.182  11.023  34.700  1.00  0.00     0.317 C 
BRANCH  12  13
HETATM   13  N1  UNK     1      13.940  12.391  34.235  1.00  0.00     0.101 N 
HETATM   14  C1  UNK     1      13.440  12.396  32.842  1.00  0.00     0.220 C 
HETATM   15  C3  UNK     1      11.956  12.004  32.731  1.00  0.00     0.035 C 
HETATM   16  C7  UNK     1      13.721  13.748  32.170  1.00  0.00     0.043 C 
HETATM   17  C5  UNK     1      11.063  12.809  33.668  1.00  0.00     0.004 C 
HETATM   18  C4  UNK     1      11.603  12.780  35.094  1.00  0.00     0.035 C 
HETATM   19  C2  UNK     1      13.085  13.189  35.143  1.00  0.00     0.220 C 
HETATM   20  C8  UNK     1      13.586  13.202  36.593  1.00  0.00     0.043 C 
ENDBRANCH  12  13
ENDBRANCH   3  12
BRANCH   5  21
HETATM   21  O2  UNK     1      16.594  12.383  35.351  1.00  0.00    -0.360 OA
HETATM   22  H20 UNK     1      15.706  12.451  35.742  1.00  0.00     0.217 HD
ENDBRANCH   5  21
BRANCH   9  23
HETATM   23  C18 UNK     1      18.154   6.950  31.869  1.00  0.00    -0.025 A 
HETATM   24  C19 UNK     1      19.225   6.726  32.731  1.00  0.00     0.012 A 
HETATM   25  C21 UNK     1      20.379   6.105  32.257  1.00  0.00     0.001 A 
HETATM   26  C23 UNK     1      20.460   5.708  30.922  1.00  0.00     0.000 A 
HETATM   27  C22 UNK     1      19.386   5.934  30.061  1.00  0.00     0.001 A 
HETATM   28  C20 UNK     1      18.231   6.557  30.536  1.00  0.00     0.012 A 
ENDBRANCH   9  23
TORSDOF 4
ENDMDL
MODEL 5
REMARK VINA RESULT:      -7.8      1.851      2.685
REMARK  4 active torsions:
REMARK  status: ('A' for Active; 'I' for Inactive)
REMARK    1  A    between atoms: C11_15  and  O2_2 
REMARK    2  A    between atoms: C6_10  and  N1_4 
REMARK    3  A    between atoms: C6_10  and  C9_13 
REMARK    4  A    between atoms: C15_19  and  C18_22 
ROOT
HETATM    1  O1  UNK     1      30.920  -5.600  32.848  1.00  0.00    -0.274 OA
HETATM    2  O3  UNK     1      29.741  -4.055  31.645  1.00  0.00    -0.260 OA
HETATM    3  C9  UNK     1      32.148  -7.225  34.096  1.00  0.00     0.038 A 
HETATM    4  C10 UNK     1      31.349  -6.934  32.994  1.00  0.00     0.101 A 
HETATM    5  C11 UNK     1      32.603  -8.521  34.293  1.00  0.00     0.076 A 
HETATM    6  C12 UNK     1      30.985  -7.912  32.071  1.00  0.00     0.010 A 
HETATM    7  C13 UNK     1      32.254  -9.518  33.383  1.00  0.00     0.038 A 
HETATM    8  C14 UNK     1      31.450  -9.216  32.278  1.00  0.00     0.018 A 
HETATM    9  C15 UNK     1      30.137  -7.540  30.927  1.00  0.00    -0.007 A 
HETATM   10  C16 UNK     1      29.744  -6.260  30.817  1.00  0.00     0.095 A 
HETATM   11  C17 UNK     1      30.121  -5.212  31.783  1.00  0.00     0.289 A 
ENDROOT
BRANCH   3  12
HETATM   12  C6  UNK     1      32.521  -6.144  35.071  1.00  0.00     0.317 C 
BRANCH  12  13
HETATM   13  N1  UNK     1      31.356  -5.645  35.807  1.00  0.00     0.101 N 
HETATM   14  C1  UNK     1      30.605  -6.760  36.427  1.00  0.00     0.220 C 
HETATM   15  C3  UNK     1      31.279  -7.309  37.697  1.00  0.00     0.035 C 
HETATM   16  C7  UNK     1      29.148  -6.351  36.691  1.00  0.00     0.043 C 
HETATM   17  C5  UNK     1      31.625  -6.215  38.700  1.00  0.00     0.004 C 
HETATM   18  C4  UNK     1      32.400  -5.086  38.031  1.00  0.00     0.035 C 
HETATM   19  C2  UNK     1      31.675  -4.572  36.775  1.00  0.00     0.220 C 
HETATM   20  C8  UNK     1      32.450  -3.403  36.153  1.00  0.00     0.043 C 
ENDBRANCH  12  13
ENDBRANCH   3  12
BRANCH   5  21
HETATM   21  O2  UNK     1      33.388  -8.838  35.360  1.00  0.00    -0.360 OA
HETATM   22  H20 UNK     1      32.832  -9.227  36.058  1.00  0.00     0.217 HD
ENDBRANCH   5  21
BRANCH   9  23
HETATM   23  C18 UNK     1      29.668  -8.436  29.877  1.00  0.00    -0.025 A 
HETATM   24  C19 UNK     1      30.546  -8.855  28.879  1.00  0.00     0.012 A 
HETATM   25  C21 UNK     1      30.097  -9.712  27.874  1.00  0.00     0.001 A 
HETATM   26  C23 UNK     1      28.773 -10.148  27.870  1.00  0.00     0.000 A 
HETATM   27  C22 UNK     1      27.896  -9.727  28.869  1.00  0.00     0.001 A 
HETATM   28  C20 UNK     1      28.345  -8.869  29.875  1.00  0.00     0.012 A 
ENDBRANCH   9  23
TORSDOF 4
ENDMDL
MODEL 6
REMARK VINA RESULT:      -7.7     19.676     21.899
REMARK  4 active torsions:
REMARK  status: ('A' for Active; 'I' for Inactive)
REMARK    1  A    between atoms: C11_15  and  O2_2 
REMARK    2  A    between atoms: C6_10  and  N1_4 
REMARK    3  A    between atoms: C6_10  and  C9_13 
REMARK    4  A    between atoms: C15_19  and  C18_22 
ROOT
HETATM    1  O1  UNK     1      17.589  10.085  33.478  1.00  0.00    -0.274 OA
HETATM    2  O3  UNK     1      18.603  12.016  34.166  1.00  0.00    -0.260 OA
HETATM    3  C9  UNK     1      16.519   8.072  32.766  1.00  0.00     0.038 A 
HETATM    4  C10 UNK     1      16.435   9.279  33.455  1.00  0.00     0.101 A 
HETATM    5  C11 UNK     1      15.414   7.236  32.707  1.00  0.00     0.076 A 
HETATM    6  C12 UNK     1      15.263   9.681  34.094  1.00  0.00     0.010 A 
HETATM    7  C13 UNK     1      14.229   7.615  33.337  1.00  0.00     0.038 A 
HETATM    8  C14 UNK     1      14.153   8.830  34.026  1.00  0.00     0.018 A 
HETATM    9  C15 UNK     1      15.239  10.969  34.805  1.00  0.00    -0.007 A 
HETATM   10  C16 UNK     1      16.358  11.713  34.811  1.00  0.00     0.095 A 
HETATM   11  C17 UNK     1      17.604  11.305  34.138  1.00  0.00     0.289 A 
ENDROOT
BRANCH   3  12
HETATM   12  C6  UNK     1      17.799   7.672  32.088  1.00  0.00     0.317 C 
BRANCH  12  13
HETATM   13  N1  UNK     1      18.242   6.337  32.500  1.00  0.00     0.101 N 
HETATM   14  C1  UNK     1      18.484   5.474  31.322  1.00  0.00     0.220 C 
HETATM   15  C3  UNK     1      19.809   5.787  30.606  1.00  0.00     0.035 C 
HETATM   16  C7  UNK     1      18.385   3.991  31.708  1.00  0.00     0.043 C 
HETATM   17  C5  UNK     1      21.000   5.815  31.556  1.00  0.00     0.004 C 
HETATM   18  C4  UNK     1      20.720   6.715  32.755  1.00  0.00     0.035 C 
HETATM   19  C2  UNK     1      19.389   6.350  33.435  1.00  0.00     0.220 C 
HETATM   20  C8  UNK     1      19.160   7.236  34.666  1.00  0.00     0.043 C 
ENDBRANCH  12  13
ENDBRANCH   3  12
BRANCH   5  21
HETATM   21  O2  UNK     1      15.463   6.049  32.040  1.00  0.00    -0.360 OA
HETATM   22  H20 UNK     1      14.567   5.813  31.745  1.00  0.00     0.217 HD
ENDBRANCH   5  21
BRANCH   9  23
HETATM   23  C18 UNK     1      14.102  11.534  35.523  1.00  0.00    -0.025 A 
HETATM   24  C19 UNK     1      14.042  11.438  36.911  1.00  0.00     0.012 A 
HETATM   25  C21 UNK     1      12.954  11.978  37.597  1.00  0.00     0.001 A 
HETATM   26  C23 UNK     1      11.930  12.612  36.894  1.00  0.00     0.000 A 
HETATM   27  C22 UNK     1      11.993  12.705  35.504  1.00  0.00     0.001 A 
HETATM   28  C20 UNK     1      13.081  12.165  34.817  1.00  0.00     0.012 A 
ENDBRANCH   9  23
TORSDOF 4
ENDMDL
MODEL 7
REMARK VINA RESULT:      -7.6     15.061     16.425
REMARK  4 active torsions:
REMARK  status: ('A' for Active; 'I' for Inactive)
REMARK    1  A    between atoms: C11_15  and  O2_2 
REMARK    2  A    between atoms: C6_10  and  N1_4 
REMARK    3  A    between atoms: C6_10  and  C9_13 
REMARK    4  A    between atoms: C15_19  and  C18_22 
ROOT
HETATM    1  O1  UNK     1      18.585   5.094  31.586  1.00  0.00    -0.274 OA
HETATM    2  O3  UNK     1      18.973   6.088  29.565  1.00  0.00    -0.260 OA
HETATM    3  C9  UNK     1      18.180   4.043  33.693  1.00  0.00     0.038 A 
HETATM    4  C10 UNK     1      18.466   3.908  32.337  1.00  0.00     0.101 A 
HETATM    5  C11 UNK     1      18.053   2.911  34.484  1.00  0.00     0.076 A 
HETATM    6  C12 UNK     1      18.630   2.660  31.740  1.00  0.00     0.010 A 
HETATM    7  C13 UNK     1      18.213   1.649  33.912  1.00  0.00     0.038 A 
HETATM    8  C14 UNK     1      18.501   1.523  32.549  1.00  0.00     0.018 A 
HETATM    9  C15 UNK     1      18.930   2.585  30.302  1.00  0.00    -0.007 A 
HETATM   10  C16 UNK     1      19.035   3.734  29.614  1.00  0.00     0.095 A 
HETATM   11  C17 UNK     1      18.867   5.063  30.229  1.00  0.00     0.289 A 
ENDROOT
BRANCH   3  12
HETATM   12  C6  UNK     1      18.011   5.406  34.301  1.00  0.00     0.317 C 
BRANCH  12  13
HETATM   13  N1  UNK     1      17.712   6.424  33.290  1.00  0.00     0.101 N 
HETATM   14  C1  UNK     1      16.259   6.699  33.230  1.00  0.00     0.220 C 
HETATM   15  C3  UNK     1      15.763   7.582  34.388  1.00  0.00     0.035 C 
HETATM   16  C7  UNK     1      15.875   7.288  31.864  1.00  0.00     0.043 C 
HETATM   17  C5  UNK     1      16.586   8.854  34.554  1.00  0.00     0.004 C 
HETATM   18  C4  UNK     1      18.075   8.535  34.617  1.00  0.00     0.035 C 
HETATM   19  C2  UNK     1      18.515   7.660  33.430  1.00  0.00     0.220 C 
HETATM   20  C8  UNK     1      20.025   7.400  33.492  1.00  0.00     0.043 C 
ENDBRANCH  12  13
ENDBRANCH   3  12
BRANCH   5  21
HETATM   21  O2  UNK     1      17.775   3.009  35.815  1.00  0.00    -0.360 OA
HETATM   22  H20 UNK     1      18.048   3.887  36.132  1.00  0.00     0.217 HD
ENDBRANCH   5  21
BRANCH   9  23
HETATM   23  C18 UNK     1      19.129   1.365  29.527  1.00  0.00    -0.025 A 
HETATM   24  C19 UNK     1      20.203   0.527  29.818  1.00  0.00     0.012 A 
HETATM   25  C21 UNK     1      20.394  -0.639  29.076  1.00  0.00     0.001 A 
HETATM   26  C23 UNK     1      19.511  -0.964  28.048  1.00  0.00     0.000 A 
HETATM   27  C22 UNK     1      18.436  -0.122  27.759  1.00  0.00     0.001 A 
HETATM   28  C20 UNK     1      18.245   1.045  28.500  1.00  0.00     0.012 A 
ENDBRANCH   9  23
TORSDOF 4
ENDMDL
MODEL 8
REMARK VINA RESULT:      -7.5      2.294      7.496
REMARK  4 active torsions:
REMARK  status: ('A' for Active; 'I' for Inactive)
REMARK    1  A    between atoms: C11_15  and  O2_2 
REMARK    2  A    between atoms: C6_10  and  N1_4 
REMARK    3  A    between atoms: C6_10  and  C9_13 
REMARK    4  A    between atoms: C15_19  and  C18_22 
ROOT
HETATM    1  O1  UNK     1      30.096  -9.201  33.445  1.00  0.00    -0.274 OA
HETATM    2  O3  UNK     1      31.573 -10.250  34.839  1.00  0.00    -0.260 OA
HETATM    3  C9  UNK     1      28.551  -8.094  31.998  1.00  0.00     0.038 A 
HETATM    4  C10 UNK     1      29.192  -8.142  33.233  1.00  0.00     0.101 A 
HETATM    5  C11 UNK     1      27.650  -7.074  31.730  1.00  0.00     0.076 A 
HETATM    6  C12 UNK     1      28.957  -7.187  34.221  1.00  0.00     0.010 A 
HETATM    7  C13 UNK     1      27.398  -6.105  32.701  1.00  0.00     0.038 A 
HETATM    8  C14 UNK     1      28.047  -6.161  33.939  1.00  0.00     0.018 A 
HETATM    9  C15 UNK     1      29.667  -7.294  35.505  1.00  0.00    -0.007 A 
HETATM   10  C16 UNK     1      30.521  -8.317  35.676  1.00  0.00     0.095 A 
HETATM   11  C17 UNK     1      30.783  -9.333  34.642  1.00  0.00     0.289 A 
ENDROOT
BRANCH   3  12
HETATM   12  C6  UNK     1      28.829  -9.140  30.957  1.00  0.00     0.317 C 
BRANCH  12  13
HETATM   13  N1  UNK     1      29.516  -8.581  29.789  1.00  0.00     0.101 N 
HETATM   14  C1  UNK     1      30.786  -7.933  30.182  1.00  0.00     0.220 C 
HETATM   15  C3  UNK     1      31.914  -8.939  30.469  1.00  0.00     0.035 C 
HETATM   16  C7  UNK     1      31.210  -6.891  29.136  1.00  0.00     0.043 C 
HETATM   17  C5  UNK     1      32.104  -9.948  29.343  1.00  0.00     0.004 C 
HETATM   18  C4  UNK     1      30.779 -10.600  28.966  1.00  0.00     0.035 C 
HETATM   19  C2  UNK     1      29.694  -9.547  28.681  1.00  0.00     0.220 C 
HETATM   20  C8  UNK     1      28.389 -10.230  28.254  1.00  0.00     0.043 C 
ENDBRANCH  12  13
ENDBRANCH   3  12
BRANCH   5  21
HETATM   21  O2  UNK     1      27.007  -6.998  30.531  1.00  0.00    -0.360 OA
HETATM   22  H20 UNK     1      27.624  -7.252  29.824  1.00  0.00     0.217 HD
ENDBRANCH   5  21
BRANCH   9  23
HETATM   23  C18 UNK     1      29.536  -6.385  36.638  1.00  0.00    -0.025 A 
HETATM   24  C19 UNK     1      30.347  -5.255  36.718  1.00  0.00     0.012 A 
HETATM   25  C21 UNK     1      30.222  -4.386  37.801  1.00  0.00     0.001 A 
HETATM   26  C23 UNK     1      29.287  -4.648  38.802  1.00  0.00     0.000 A 
HETATM   27  C22 UNK     1      28.476  -5.780  38.720  1.00  0.00     0.001 A 
HETATM   28  C20 UNK     1      28.601  -6.651  37.636  1.00  0.00     0.012 A 
ENDBRANCH   9  23
TORSDOF 4
ENDMDL
MODEL 9
REMARK VINA RESULT:      -7.5      2.584      6.808
REMARK  4 active torsions:
REMARK  status: ('A' for Active; 'I' for Inactive)
REMARK    1  A    between atoms: C11_15  and  O2_2 
REMARK    2  A    between atoms: C6_10  and  N1_4 
REMARK    3  A    between atoms: C6_10  and  C9_13 
REMARK    4  A    between atoms: C15_19  and  C18_22 
ROOT
HETATM    1  O1  UNK     1      30.460  -6.795  34.471  1.00  0.00    -0.274 OA
HETATM    2  O3  UNK     1      30.981  -5.110  35.925  1.00  0.00    -0.260 OA
HETATM    3  C9  UNK     1      29.910  -8.562  32.961  1.00  0.00     0.038 A 
HETATM    4  C10 UNK     1      29.832  -8.035  34.247  1.00  0.00     0.101 A 
HETATM    5  C11 UNK     1      29.309  -9.780  32.679  1.00  0.00     0.076 A 
HETATM    6  C12 UNK     1      29.163  -8.698  35.274  1.00  0.00     0.010 A 
HETATM    7  C13 UNK     1      28.632 -10.464  33.689  1.00  0.00     0.038 A 
HETATM    8  C14 UNK     1      28.558  -9.927  34.979  1.00  0.00     0.018 A 
HETATM    9  C15 UNK     1      29.117  -8.089  36.613  1.00  0.00    -0.007 A 
HETATM   10  C16 UNK     1      29.728  -6.906  36.793  1.00  0.00     0.095 A 
HETATM   11  C17 UNK     1      30.438  -6.190  35.718  1.00  0.00     0.289 A 
ENDROOT
BRANCH   3  12
HETATM   12  C6  UNK     1      30.639  -7.818  31.879  1.00  0.00     0.317 C 
BRANCH  12  13
HETATM   13  N1  UNK     1      29.731  -7.355  30.825  1.00  0.00     0.101 N 
HETATM   14  C1  UNK     1      28.686  -6.467  31.381  1.00  0.00     0.220 C 
HETATM   15  C3  UNK     1      29.197  -5.048  31.684  1.00  0.00     0.035 C 
HETATM   16  C7  UNK     1      27.453  -6.442  30.465  1.00  0.00     0.043 C 
HETATM   17  C5  UNK     1      29.921  -4.418  30.500  1.00  0.00     0.004 C 
HETATM   18  C4  UNK     1      30.992  -5.355  29.955  1.00  0.00     0.035 C 
HETATM   19  C2  UNK     1      30.422  -6.754  29.663  1.00  0.00     0.220 C 
HETATM   20  C8  UNK     1      31.509  -7.657  29.067  1.00  0.00     0.043 C 
ENDBRANCH  12  13
ENDBRANCH   3  12
BRANCH   5  21
HETATM   21  O2  UNK     1      29.365 -10.322  31.431  1.00  0.00    -0.360 OA
HETATM   22  H20 UNK     1      30.081  -9.893  30.931  1.00  0.00     0.217 HD
ENDBRANCH   5  21
BRANCH   9  23
HETATM   23  C18 UNK     1      28.464  -8.648  37.791  1.00  0.00    -0.025 A 
HETATM   24  C19 UNK     1      27.168  -8.256  38.116  1.00  0.00     0.012 A 
HETATM   25  C21 UNK     1      26.543  -8.790  39.243  1.00  0.00     0.001 A 
HETATM   26  C23 UNK     1      27.216  -9.714  40.041  1.00  0.00     0.000 A 
HETATM   27  C22 UNK     1      28.514 -10.104  39.713  1.00  0.00     0.001 A 
HETATM   28  C20 UNK     1      29.140  -9.570  38.586  1.00  0.00     0.012 A 
ENDBRANCH   9  23
TORSDOF 4
ENDMDL
MODEL 10
REMARK VINA RESULT:      -7.4      1.413      2.918
REMARK  4 active torsions:
REMARK  status: ('A' for Active; 'I' for Inactive)
REMARK    1  A    between atoms: C11_15  and  O2_2 
REMARK    2  A    between atoms: C6_10  and  N1_4 
REMARK    3  A    between atoms: C6_10  and  C9_13 
REMARK    4  A    between atoms: C15_19  and  C18_22 
ROOT
HETATM    1  O1  UNK     1      29.071  -8.167  34.968  1.00  0.00    -0.274 OA
HETATM    2  O3  UNK     1      27.882 -10.064  35.428  1.00  0.00    -0.260 OA
HETATM    3  C9  UNK     1      30.314  -6.187  34.475  1.00  0.00     0.038 A 
HETATM    4  C10 UNK     1      29.713  -7.355  34.013  1.00  0.00     0.101 A 
HETATM    5  C11 UNK     1      30.961  -5.346  33.581  1.00  0.00     0.076 A 
HETATM    6  C12 UNK     1      29.739  -7.712  32.666  1.00  0.00     0.010 A 
HETATM    7  C13 UNK     1      31.000  -5.680  32.227  1.00  0.00     0.038 A 
HETATM    8  C14 UNK     1      30.393  -6.855  31.771  1.00  0.00     0.018 A 
HETATM    9  C15 UNK     1      29.086  -8.960  32.241  1.00  0.00    -0.007 A 
HETATM   10  C16 UNK     1      28.484  -9.713  33.178  1.00  0.00     0.095 A 
HETATM   11  C17 UNK     1      28.445  -9.349  34.605  1.00  0.00     0.289 A 
ENDROOT
BRANCH   3  12
HETATM   12  C6  UNK     1      30.266  -5.834  35.934  1.00  0.00     0.317 C 
BRANCH  12  13
HETATM   13  N1  UNK     1      31.063  -6.756  36.747  1.00  0.00     0.101 N 
HETATM   14  C1  UNK     1      32.487  -6.717  36.348  1.00  0.00     0.220 C 
HETATM   15  C3  UNK     1      33.229  -5.476  36.875  1.00  0.00     0.035 C 
HETATM   16  C7  UNK     1      33.200  -8.017  36.753  1.00  0.00     0.043 C 
HETATM   17  C5  UNK     1      33.043  -5.271  38.374  1.00  0.00     0.004 C 
HETATM   18  C4  UNK     1      31.566  -5.313  38.751  1.00  0.00     0.035 C 
HETATM   19  C2  UNK     1      30.881  -6.578  38.206  1.00  0.00     0.220 C 
HETATM   20  C8  UNK     1      29.412  -6.618  38.644  1.00  0.00     0.043 C 
ENDBRANCH  12  13
ENDBRANCH   3  12
BRANCH   5  21
HETATM   21  O2  UNK     1      31.558  -4.196  34.001  1.00  0.00    -0.360 OA
HETATM   22  H20 UNK     1      31.453  -4.118  34.965  1.00  0.00     0.217 HD
ENDBRANCH   5  21
BRANCH   9  23
HETATM   23  C18 UNK     1      29.022  -9.477  30.879  1.00  0.00    -0.025 A 
HETATM   24  C19 UNK     1      27.982  -9.089  30.038  1.00  0.00     0.012 A 
HETATM   25  C21 UNK     1      27.920  -9.584  28.735  1.00  0.00     0.001 A 
HETATM   26  C23 UNK     1      28.899 -10.465  28.278  1.00  0.00     0.000 A 
HETATM   27  C22 UNK     1      29.939 -10.853  29.122  1.00  0.00     0.001 A 
HETATM   28  C20 UNK     1      30.000 -10.358  30.426  1.00  0.00     0.012 A 
ENDBRANCH   9  23
TORSDOF 4
ENDMDL
