MODEL 1
REMARK VINA RESULT:      -8.4      0.000      0.000
REMARK  4 active torsions:
REMARK  status: ('A' for Active; 'I' for Inactive)
REMARK    1  A    between atoms: C16_22  and  O4_4 
REMARK    2  A    between atoms: C20_26  and  O4_4 
REMARK    3  A    between atoms: C7_13  and  N1_5 
REMARK    4  A    between atoms: C1_7  and  C3_9 
ROOT
HETATM    1  O1  UNK     1      31.721  -5.040  35.982  1.00  0.00    -0.291 OA
HETATM    2  O2  UNK     1      32.546  -9.132  36.265  1.00  0.00    -0.274 OA
HETATM    3  O3  UNK     1      31.348  -9.243  38.203  1.00  0.00    -0.259 OA
HETATM    4  N2  UNK     1      29.417  -3.596  39.957  1.00  0.00    -0.191 NA
HETATM    5  C1  UNK     1      30.541  -6.479  38.168  1.00  0.00     0.108 C 
HETATM    6  C2  UNK     1      31.436  -7.124  37.126  1.00  0.00     0.066 A 
HETATM    7  C4  UNK     1      31.948  -6.398  36.121  1.00  0.00     0.104 A 
HETATM    8  C5  UNK     1      30.524  -4.958  38.050  1.00  0.00     0.086 C 
HETATM    9  C6  UNK     1      32.787  -7.013  35.096  1.00  0.00     0.033 A 
HETATM   10  C7  UNK     1      31.086  -4.325  36.995  1.00  0.00     0.159 C 
HETATM   11  C8  UNK     1      31.757  -8.569  37.262  1.00  0.00     0.298 A 
HETATM   12  C9  UNK     1      33.058  -8.374  35.196  1.00  0.00     0.092 A 
HETATM   13  C12 UNK     1      33.330  -6.310  34.013  1.00  0.00     0.017 A 
HETATM   14  C15 UNK     1      33.844  -9.045  34.259  1.00  0.00     0.038 A 
HETATM   15  C17 UNK     1      29.913  -4.206  39.104  1.00  0.00     0.100 C 
HETATM   16  C18 UNK     1      34.121  -6.967  33.065  1.00  0.00     0.001 A 
HETATM   17  C19 UNK     1      34.377  -8.333  33.188  1.00  0.00     0.003 A 
ENDROOT
BRANCH   5  18
HETATM   18  C3  UNK     1      29.145  -7.019  38.068  1.00  0.00    -0.044 A 
HETATM   19  C10 UNK     1      28.544  -7.145  36.820  1.00  0.00     0.011 A 
HETATM   20  C13 UNK     1      27.247  -7.648  36.727  1.00  0.00     0.037 A 
HETATM   21  C16 UNK     1      26.558  -8.020  37.881  1.00  0.00     0.068 A 
HETATM   22  C14 UNK     1      27.167  -7.890  39.129  1.00  0.00     0.037 A 
HETATM   23  C11 UNK     1      28.465  -7.388  39.223  1.00  0.00     0.011 A 
BRANCH  21  24
HETATM   24  O4  UNK     1      25.292  -8.509  37.789  1.00  0.00    -0.352 OA
BRANCH  24  25
HETATM   25  C20 UNK     1      24.350  -8.065  38.765  1.00  0.00     0.171 C 
HETATM   26  C21 UNK     1      22.959  -8.122  38.170  1.00  0.00     0.034 C 
ENDBRANCH  24  25
ENDBRANCH  21  24
ENDBRANCH   5  18
BRANCH  10  27
HETATM   27  N1  UNK     1      31.103  -2.970  36.806  1.00  0.00    -0.379 N 
HETATM   28  H10 UNK     1      30.242  -2.449  36.702  1.00  0.00     0.158 HD
HETATM   29  H9  UNK     1      31.995  -2.495  36.766  1.00  0.00     0.158 HD
ENDBRANCH  10  27
TORSDOF 4
ENDMDL
MODEL 2
REMARK VINA RESULT:      -7.7      3.489      7.966
REMARK  4 active torsions:
REMARK  status: ('A' for Active; 'I' for Inactive)
REMARK    1  A    between atoms: C16_22  and  O4_4 
REMARK    2  A    between atoms: C20_26  and  O4_4 
REMARK    3  A    between atoms: C7_13  and  N1_5 
REMARK    4  A    between atoms: C1_7  and  C3_9 
ROOT
HETATM    1  O1  UNK     1      25.596  -9.298  38.608  1.00  0.00    -0.291 OA
HETATM    2  O2  UNK     1      24.902  -5.184  38.908  1.00  0.00    -0.274 OA
HETATM    3  O3  UNK     1      27.149  -4.797  38.847  1.00  0.00    -0.259 OA
HETATM    4  N2  UNK     1      30.333 -10.140  38.837  1.00  0.00    -0.191 NA
HETATM    5  C1  UNK     1      27.880  -7.562  38.510  1.00  0.00     0.108 C 
HETATM    6  C2  UNK     1      26.454  -7.064  38.662  1.00  0.00     0.066 A 
HETATM    7  C4  UNK     1      25.428  -7.928  38.690  1.00  0.00     0.104 A 
HETATM    8  C5  UNK     1      27.977  -9.078  38.639  1.00  0.00     0.086 C 
HETATM    9  C6  UNK     1      24.050  -7.460  38.807  1.00  0.00     0.033 A 
HETATM   10  C7  UNK     1      26.871  -9.857  38.672  1.00  0.00     0.159 C 
HETATM   11  C8  UNK     1      26.224  -5.603  38.812  1.00  0.00     0.298 A 
HETATM   12  C9  UNK     1      23.826  -6.090  38.907  1.00  0.00     0.092 A 
HETATM   13  C12 UNK     1      22.939  -8.313  38.819  1.00  0.00     0.017 A 
HETATM   14  C15 UNK     1      22.542  -5.554  39.016  1.00  0.00     0.038 A 
HETATM   15  C17 UNK     1      29.279  -9.665  38.749  1.00  0.00     0.100 C 
HETATM   16  C18 UNK     1      21.646  -7.792  38.929  1.00  0.00     0.001 A 
HETATM   17  C19 UNK     1      21.448  -6.414  39.026  1.00  0.00     0.003 A 
ENDROOT
BRANCH   5  18
HETATM   18  C3  UNK     1      28.453  -7.119  37.196  1.00  0.00    -0.044 A 
HETATM   19  C10 UNK     1      27.795  -7.443  36.014  1.00  0.00     0.011 A 
HETATM   20  C13 UNK     1      28.327  -7.031  34.793  1.00  0.00     0.037 A 
HETATM   21  C16 UNK     1      29.513  -6.299  34.761  1.00  0.00     0.068 A 
HETATM   22  C14 UNK     1      30.167  -5.978  35.950  1.00  0.00     0.037 A 
HETATM   23  C11 UNK     1      29.636  -6.389  37.172  1.00  0.00     0.011 A 
BRANCH  21  24
HETATM   24  O4  UNK     1      30.032  -5.898  33.568  1.00  0.00    -0.352 OA
BRANCH  24  25
HETATM   25  C20 UNK     1      29.107  -5.623  32.516  1.00  0.00     0.171 C 
HETATM   26  C21 UNK     1      29.748  -4.666  31.534  1.00  0.00     0.034 C 
ENDBRANCH  24  25
ENDBRANCH  21  24
ENDBRANCH   5  18
BRANCH  10  27
HETATM   27  N1  UNK     1      26.869 -11.221  38.772  1.00  0.00    -0.379 N 
HETATM   28  H10 UNK     1      27.488 -11.785  38.203  1.00  0.00     0.158 HD
HETATM   29  H9  UNK     1      26.234 -11.661  39.423  1.00  0.00     0.158 HD
ENDBRANCH  10  27
TORSDOF 4
ENDMDL
MODEL 3
REMARK VINA RESULT:      -7.7      3.638      5.390
REMARK  4 active torsions:
REMARK  status: ('A' for Active; 'I' for Inactive)
REMARK    1  A    between atoms: C16_22  and  O4_4 
REMARK    2  A    between atoms: C20_26  and  O4_4 
REMARK    3  A    between atoms: C7_13  and  N1_5 
REMARK    4  A    between atoms: C1_7  and  C3_9 
ROOT
HETATM    1  O1  UNK     1      29.530  -7.938  35.264  1.00  0.00    -0.291 OA
HETATM    2  O2  UNK     1      29.743  -5.005  38.239  1.00  0.00    -0.274 OA
HETATM    3  O3  UNK     1      28.089  -6.059  39.402  1.00  0.00    -0.259 OA
HETATM    4  N2  UNK     1      25.850 -10.901  36.203  1.00  0.00    -0.191 NA
HETATM    5  C1  UNK     1      27.837  -8.258  37.560  1.00  0.00     0.108 C 
HETATM    6  C2  UNK     1      28.792  -7.093  37.379  1.00  0.00     0.066 A 
HETATM    7  C4  UNK     1      29.565  -7.007  36.286  1.00  0.00     0.104 A 
HETATM    8  C5  UNK     1      27.719  -9.108  36.299  1.00  0.00     0.086 C 
HETATM    9  C6  UNK     1      30.508  -5.906  36.113  1.00  0.00     0.033 A 
HETATM   10  C7  UNK     1      28.546  -8.926  35.245  1.00  0.00     0.159 C 
HETATM   11  C8  UNK     1      28.827  -6.034  38.422  1.00  0.00     0.298 A 
HETATM   12  C9  UNK     1      30.574  -4.932  37.106  1.00  0.00     0.092 A 
HETATM   13  C12 UNK     1      31.355  -5.776  35.005  1.00  0.00     0.017 A 
HETATM   14  C15 UNK     1      31.449  -3.849  37.026  1.00  0.00     0.038 A 
HETATM   15  C17 UNK     1      26.686 -10.099  36.246  1.00  0.00     0.100 C 
HETATM   16  C18 UNK     1      32.238  -4.695  34.909  1.00  0.00     0.001 A 
HETATM   17  C19 UNK     1      32.285  -3.734  35.919  1.00  0.00     0.003 A 
ENDROOT
BRANCH   5  18
HETATM   18  C3  UNK     1      28.266  -9.112  38.718  1.00  0.00    -0.044 A 
HETATM   19  C10 UNK     1      27.394  -9.317  39.781  1.00  0.00     0.011 A 
HETATM   20  C13 UNK     1      27.791 -10.110  40.857  1.00  0.00     0.037 A 
HETATM   21  C16 UNK     1      29.059 -10.693  40.863  1.00  0.00     0.068 A 
HETATM   22  C14 UNK     1      29.928 -10.482  39.793  1.00  0.00     0.037 A 
HETATM   23  C11 UNK     1      29.530  -9.689  38.716  1.00  0.00     0.011 A 
BRANCH  21  24
HETATM   24  O4  UNK     1      29.446 -11.466  41.913  1.00  0.00    -0.352 OA
BRANCH  24  25
HETATM   25  C20 UNK     1      30.681 -12.169  41.782  1.00  0.00     0.171 C 
HETATM   26  C21 UNK     1      31.382 -12.188  43.123  1.00  0.00     0.034 C 
ENDBRANCH  24  25
ENDBRANCH  21  24
ENDBRANCH   5  18
BRANCH  10  27
HETATM   27  N1  UNK     1      28.517  -9.650  34.085  1.00  0.00    -0.379 N 
HETATM   28  H10 UNK     1      27.941 -10.478  34.002  1.00  0.00     0.158 HD
HETATM   29  H9  UNK     1      29.088  -9.347  33.307  1.00  0.00     0.158 HD
ENDBRANCH  10  27
TORSDOF 4
ENDMDL
MODEL 4
REMARK VINA RESULT:      -7.6      2.175      6.793
REMARK  4 active torsions:
REMARK  status: ('A' for Active; 'I' for Inactive)
REMARK    1  A    between atoms: C16_22  and  O4_4 
REMARK    2  A    between atoms: C20_26  and  O4_4 
REMARK    3  A    between atoms: C7_13  and  N1_5 
REMARK    4  A    between atoms: C1_7  and  C3_9 
ROOT
HETATM    1  O1  UNK     1      29.324  -5.927  38.818  1.00  0.00    -0.291 OA
HETATM    2  O2  UNK     1      28.692  -8.949  35.996  1.00  0.00    -0.274 OA
HETATM    3  O3  UNK     1      29.885  -7.765  34.455  1.00  0.00    -0.259 OA
HETATM    4  N2  UNK     1      31.542  -2.208  36.706  1.00  0.00    -0.191 NA
HETATM    5  C1  UNK     1      30.561  -5.615  36.246  1.00  0.00     0.108 C 
HETATM    6  C2  UNK     1      29.703  -6.807  36.624  1.00  0.00     0.066 A 
HETATM    7  C4  UNK     1      29.161  -6.899  37.848  1.00  0.00     0.104 A 
HETATM    8  C5  UNK     1      30.508  -4.511  37.297  1.00  0.00     0.086 C 
HETATM    9  C6  UNK     1      28.357  -8.055  38.233  1.00  0.00     0.033 A 
HETATM   10  C7  UNK     1      29.921  -4.708  38.500  1.00  0.00     0.159 C 
HETATM   11  C8  UNK     1      29.449  -7.853  35.598  1.00  0.00     0.298 A 
HETATM   12  C9  UNK     1      28.149  -9.057  37.289  1.00  0.00     0.092 A 
HETATM   13  C12 UNK     1      27.786  -8.216  39.502  1.00  0.00     0.017 A 
HETATM   14  C15 UNK     1      27.399 -10.199  37.573  1.00  0.00     0.038 A 
HETATM   15  C17 UNK     1      31.079  -3.238  36.971  1.00  0.00     0.100 C 
HETATM   16  C18 UNK     1      27.030  -9.354  39.801  1.00  0.00     0.001 A 
HETATM   17  C19 UNK     1      26.838 -10.344  38.838  1.00  0.00     0.003 A 
ENDROOT
BRANCH   5  18
HETATM   18  C3  UNK     1      31.982  -6.042  36.020  1.00  0.00    -0.044 A 
HETATM   19  C10 UNK     1      32.642  -6.782  36.995  1.00  0.00     0.011 A 
HETATM   20  C13 UNK     1      33.961  -7.180  36.785  1.00  0.00     0.037 A 
HETATM   21  C16 UNK     1      34.614  -6.833  35.602  1.00  0.00     0.068 A 
HETATM   22  C14 UNK     1      33.946  -6.091  34.629  1.00  0.00     0.037 A 
HETATM   23  C11 UNK     1      32.626  -5.693  34.839  1.00  0.00     0.011 A 
BRANCH  21  24
HETATM   24  O4  UNK     1      35.902  -7.221  35.398  1.00  0.00    -0.352 OA
BRANCH  24  25
HETATM   25  C20 UNK     1      36.410  -7.118  34.068  1.00  0.00     0.171 C 
HETATM   26  C21 UNK     1      36.951  -8.466  33.641  1.00  0.00     0.034 C 
ENDBRANCH  24  25
ENDBRANCH  21  24
ENDBRANCH   5  18
BRANCH  10  27
HETATM   27  N1  UNK     1      29.841  -3.779  39.501  1.00  0.00    -0.379 N 
HETATM   28  H10 UNK     1      29.363  -2.899  39.357  1.00  0.00     0.158 HD
HETATM   29  H9  UNK     1      30.274  -3.984  40.392  1.00  0.00     0.158 HD
ENDBRANCH  10  27
TORSDOF 4
ENDMDL
MODEL 5
REMARK VINA RESULT:      -7.6     17.110     19.909
REMARK  4 active torsions:
REMARK  status: ('A' for Active; 'I' for Inactive)
REMARK    1  A    between atoms: C16_22  and  O4_4 
REMARK    2  A    between atoms: C20_26  and  O4_4 
REMARK    3  A    between atoms: C7_13  and  N1_5 
REMARK    4  A    between atoms: C1_7  and  C3_9 
ROOT
HETATM    1  O1  UNK     1      18.128   7.860  34.532  1.00  0.00    -0.291 OA
HETATM    2  O2  UNK     1      15.609   8.719  31.304  1.00  0.00    -0.274 OA
HETATM    3  O3  UNK     1      17.108   7.763  29.876  1.00  0.00    -0.259 OA
HETATM    4  N2  UNK     1      22.275   6.048  32.883  1.00  0.00    -0.191 NA
HETATM    5  C1  UNK     1      18.950   6.954  31.935  1.00  0.00     0.108 C 
HETATM    6  C2  UNK     1      17.664   7.717  32.188  1.00  0.00     0.066 A 
HETATM    7  C4  UNK     1      17.331   8.104  33.428  1.00  0.00     0.104 A 
HETATM    8  C5  UNK     1      19.851   6.920  33.165  1.00  0.00     0.086 C 
HETATM    9  C6  UNK     1      16.082   8.814  33.689  1.00  0.00     0.033 A 
HETATM   10  C7  UNK     1      19.416   7.350  34.371  1.00  0.00     0.159 C 
HETATM   11  C8  UNK     1      16.798   8.054  31.027  1.00  0.00     0.298 A 
HETATM   12  C9  UNK     1      15.248   9.098  32.611  1.00  0.00     0.092 A 
HETATM   13  C12 UNK     1      15.673   9.222  34.964  1.00  0.00     0.017 A 
HETATM   14  C15 UNK     1      14.034   9.767  32.768  1.00  0.00     0.038 A 
HETATM   15  C17 UNK     1      21.191   6.438  33.009  1.00  0.00     0.100 C 
HETATM   16  C18 UNK     1      14.459   9.895  35.139  1.00  0.00     0.001 A 
HETATM   17  C19 UNK     1      13.640  10.166  34.041  1.00  0.00     0.003 A 
ENDROOT
BRANCH   5  18
HETATM   18  C3  UNK     1      18.649   5.556  31.478  1.00  0.00    -0.044 A 
HETATM   19  C10 UNK     1      19.013   5.158  30.197  1.00  0.00     0.011 A 
HETATM   20  C13 UNK     1      18.735   3.859  29.772  1.00  0.00     0.037 A 
HETATM   21  C16 UNK     1      18.093   2.967  30.631  1.00  0.00     0.068 A 
HETATM   22  C14 UNK     1      17.731   3.374  31.915  1.00  0.00     0.037 A 
HETATM   23  C11 UNK     1      18.010   4.673  32.340  1.00  0.00     0.011 A 
BRANCH  21  24
HETATM   24  O4  UNK     1      17.821   1.700  30.216  1.00  0.00    -0.352 OA
BRANCH  24  25
HETATM   25  C20 UNK     1      18.163   1.369  28.871  1.00  0.00     0.171 C 
HETATM   26  C21 UNK     1      19.337   0.413  28.882  1.00  0.00     0.034 C 
ENDBRANCH  24  25
ENDBRANCH  21  24
ENDBRANCH   5  18
BRANCH  10  27
HETATM   27  N1  UNK     1      20.151   7.342  35.525  1.00  0.00    -0.379 N 
HETATM   28  H10 UNK     1      20.229   8.173  36.098  1.00  0.00     0.158 HD
HETATM   29  H9  UNK     1      20.623   6.490  35.797  1.00  0.00     0.158 HD
ENDBRANCH  10  27
TORSDOF 4
ENDMDL
MODEL 6
REMARK VINA RESULT:      -7.4     35.076     36.684
REMARK  4 active torsions:
REMARK  status: ('A' for Active; 'I' for Inactive)
REMARK    1  A    between atoms: C16_22  and  O4_4 
REMARK    2  A    between atoms: C20_26  and  O4_4 
REMARK    3  A    between atoms: C7_13  and  N1_5 
REMARK    4  A    between atoms: C1_7  and  C3_9 
ROOT
HETATM    1  O1  UNK     1      12.919   6.785   7.768  1.00  0.00    -0.291 OA
HETATM    2  O2  UNK     1      12.270   9.144  11.162  1.00  0.00    -0.274 OA
HETATM    3  O3  UNK     1      10.068   9.347  10.604  1.00  0.00    -0.259 OA
HETATM    4  N2  UNK     1       8.900   6.664   5.115  1.00  0.00    -0.191 NA
HETATM    5  C1  UNK     1      10.231   7.652   8.282  1.00  0.00     0.108 C 
HETATM    6  C2  UNK     1      11.409   8.004   9.171  1.00  0.00     0.066 A 
HETATM    7  C4  UNK     1      12.640   7.558   8.881  1.00  0.00     0.104 A 
HETATM    8  C5  UNK     1      10.669   6.983   6.983  1.00  0.00     0.086 C 
HETATM    9  C6  UNK     1      13.777   7.865   9.745  1.00  0.00     0.033 A 
HETATM   10  C7  UNK     1      11.946   6.584   6.790  1.00  0.00     0.159 C 
HETATM   11  C8  UNK     1      11.173   8.879  10.350  1.00  0.00     0.298 A 
HETATM   12  C9  UNK     1      13.555   8.651  10.872  1.00  0.00     0.092 A 
HETATM   13  C12 UNK     1      15.079   7.409   9.505  1.00  0.00     0.017 A 
HETATM   14  C15 UNK     1      14.581   8.989  11.754  1.00  0.00     0.038 A 
HETATM   15  C17 UNK     1       9.692   6.807   5.951  1.00  0.00     0.100 C 
HETATM   16  C18 UNK     1      16.120   7.740  10.379  1.00  0.00     0.001 A 
HETATM   17  C19 UNK     1      15.870   8.528  11.503  1.00  0.00     0.003 A 
ENDROOT
BRANCH   5  18
HETATM   18  C3  UNK     1       9.265   6.768   9.016  1.00  0.00    -0.044 A 
HETATM   19  C10 UNK     1       9.656   5.489   9.396  1.00  0.00     0.011 A 
HETATM   20  C13 UNK     1       8.760   4.667  10.078  1.00  0.00     0.037 A 
HETATM   21  C16 UNK     1       7.477   5.129  10.375  1.00  0.00     0.068 A 
HETATM   22  C14 UNK     1       7.092   6.413   9.990  1.00  0.00     0.037 A 
HETATM   23  C11 UNK     1       7.989   7.235   9.308  1.00  0.00     0.011 A 
BRANCH  21  24
HETATM   24  O4  UNK     1       6.603   4.327  11.040  1.00  0.00    -0.352 OA
BRANCH  24  25
HETATM   25  C20 UNK     1       6.147   3.158  10.360  1.00  0.00     0.171 C 
HETATM   26  C21 UNK     1       5.589   2.183  11.375  1.00  0.00     0.034 C 
ENDBRANCH  24  25
ENDBRANCH  21  24
ENDBRANCH   5  18
BRANCH  10  27
HETATM   27  N1  UNK     1      12.419   5.967   5.664  1.00  0.00    -0.379 N 
HETATM   28  H10 UNK     1      13.369   5.619   5.622  1.00  0.00     0.158 HD
HETATM   29  H9  UNK     1      11.803   5.866   4.868  1.00  0.00     0.158 HD
ENDBRANCH  10  27
TORSDOF 4
ENDMDL
MODEL 7
REMARK VINA RESULT:      -7.4      3.753      4.816
REMARK  4 active torsions:
REMARK  status: ('A' for Active; 'I' for Inactive)
REMARK    1  A    between atoms: C16_22  and  O4_4 
REMARK    2  A    between atoms: C20_26  and  O4_4 
REMARK    3  A    between atoms: C7_13  and  N1_5 
REMARK    4  A    between atoms: C1_7  and  C3_9 
ROOT
HETATM    1  O1  UNK     1      30.319  -5.887  33.385  1.00  0.00    -0.291 OA
HETATM    2  O2  UNK     1      29.114  -9.666  32.056  1.00  0.00    -0.274 OA
HETATM    3  O3  UNK     1      30.553 -10.647  33.529  1.00  0.00    -0.259 OA
HETATM    4  N2  UNK     1      33.968  -6.375  36.492  1.00  0.00    -0.191 NA
HETATM    5  C1  UNK     1      31.455  -8.174  34.697  1.00  0.00     0.108 C 
HETATM    6  C2  UNK     1      30.452  -8.271  33.562  1.00  0.00     0.066 A 
HETATM    7  C4  UNK     1      29.950  -7.162  32.997  1.00  0.00     0.104 A 
HETATM    8  C5  UNK     1      31.951  -6.747  34.907  1.00  0.00     0.086 C 
HETATM    9  C6  UNK     1      28.964  -7.242  31.923  1.00  0.00     0.033 A 
HETATM   10  C7  UNK     1      31.378  -5.699  34.272  1.00  0.00     0.159 C 
HETATM   11  C8  UNK     1      30.065  -9.619  33.069  1.00  0.00     0.298 A 
HETATM   12  C9  UNK     1      28.567  -8.502  31.485  1.00  0.00     0.092 A 
HETATM   13  C12 UNK     1      28.389  -6.120  31.313  1.00  0.00     0.017 A 
HETATM   14  C15 UNK     1      27.626  -8.672  30.470  1.00  0.00     0.038 A 
HETATM   15  C17 UNK     1      33.066  -6.541  35.782  1.00  0.00     0.100 C 
HETATM   16  C18 UNK     1      27.445  -6.274  30.292  1.00  0.00     0.001 A 
HETATM   17  C19 UNK     1      27.064  -7.549  29.872  1.00  0.00     0.003 A 
ENDROOT
BRANCH   5  18
HETATM   18  C3  UNK     1      30.860  -8.704  35.969  1.00  0.00    -0.044 A 
HETATM   19  C10 UNK     1      29.610  -8.258  36.382  1.00  0.00     0.011 A 
HETATM   20  C13 UNK     1      29.056  -8.750  37.563  1.00  0.00     0.037 A 
HETATM   21  C16 UNK     1      29.757  -9.686  38.324  1.00  0.00     0.068 A 
HETATM   22  C14 UNK     1      31.010 -10.129  37.903  1.00  0.00     0.037 A 
HETATM   23  C11 UNK     1      31.564  -9.636  36.721  1.00  0.00     0.011 A 
BRANCH  21  24
HETATM   24  O4  UNK     1      29.217 -10.166  39.477  1.00  0.00    -0.352 OA
BRANCH  24  25
HETATM   25  C20 UNK     1      28.075  -9.482  39.994  1.00  0.00     0.171 C 
HETATM   26  C21 UNK     1      26.866 -10.386  39.882  1.00  0.00     0.034 C 
ENDBRANCH  24  25
ENDBRANCH  21  24
ENDBRANCH   5  18
BRANCH  10  27
HETATM   27  N1  UNK     1      31.751  -4.391  34.413  1.00  0.00    -0.379 N 
HETATM   28  H10 UNK     1      31.449  -3.689  33.749  1.00  0.00     0.158 HD
HETATM   29  H9  UNK     1      32.341  -4.133  35.192  1.00  0.00     0.158 HD
ENDBRANCH  10  27
TORSDOF 4
ENDMDL
MODEL 8
REMARK VINA RESULT:      -7.3     34.953     36.133
REMARK  4 active torsions:
REMARK  status: ('A' for Active; 'I' for Inactive)
REMARK    1  A    between atoms: C16_22  and  O4_4 
REMARK    2  A    between atoms: C20_26  and  O4_4 
REMARK    3  A    between atoms: C7_13  and  N1_5 
REMARK    4  A    between atoms: C1_7  and  C3_9 
ROOT
HETATM    1  O1  UNK     1      14.722  12.508   8.877  1.00  0.00    -0.291 OA
HETATM    2  O2  UNK     1      18.449  10.712   8.256  1.00  0.00    -0.274 OA
HETATM    3  O3  UNK     1      17.935   9.106   9.791  1.00  0.00    -0.259 OA
HETATM    4  N2  UNK     1      12.456  10.275  12.495  1.00  0.00    -0.191 NA
HETATM    5  C1  UNK     1      15.273  10.078  10.304  1.00  0.00     0.108 C 
HETATM    6  C2  UNK     1      16.256  10.731   9.349  1.00  0.00     0.066 A 
HETATM    7  C4  UNK     1      15.933  11.862   8.704  1.00  0.00     0.104 A 
HETATM    8  C5  UNK     1      14.066  10.968  10.585  1.00  0.00     0.086 C 
HETATM    9  C6  UNK     1      16.858  12.484   7.760  1.00  0.00     0.033 A 
HETATM   10  C7  UNK     1      13.844  12.100   9.880  1.00  0.00     0.159 C 
HETATM   11  C8  UNK     1      17.593  10.107   9.170  1.00  0.00     0.298 A 
HETATM   12  C9  UNK     1      18.097  11.882   7.559  1.00  0.00     0.092 A 
HETATM   13  C12 UNK     1      16.566  13.651   7.043  1.00  0.00     0.017 A 
HETATM   14  C15 UNK     1      19.039  12.404   6.673  1.00  0.00     0.038 A 
HETATM   15  C17 UNK     1      13.177  10.585  11.640  1.00  0.00     0.100 C 
HETATM   16  C18 UNK     1      17.501  14.187   6.151  1.00  0.00     0.001 A 
HETATM   17  C19 UNK     1      18.736  13.564   5.966  1.00  0.00     0.003 A 
ENDROOT
BRANCH   5  18
HETATM   18  C3  UNK     1      14.822   8.752   9.766  1.00  0.00    -0.044 A 
HETATM   19  C10 UNK     1      15.097   7.591  10.479  1.00  0.00     0.011 A 
HETATM   20  C13 UNK     1      14.677   6.358   9.980  1.00  0.00     0.037 A 
HETATM   21  C16 UNK     1      13.985   6.295   8.771  1.00  0.00     0.068 A 
HETATM   22  C14 UNK     1      13.713   7.464   8.061  1.00  0.00     0.037 A 
HETATM   23  C11 UNK     1      14.132   8.697   8.560  1.00  0.00     0.011 A 
BRANCH  21  24
HETATM   24  O4  UNK     1      13.576   5.091   8.284  1.00  0.00    -0.352 OA
BRANCH  24  25
HETATM   25  C20 UNK     1      12.203   4.973   7.914  1.00  0.00     0.171 C 
HETATM   26  C21 UNK     1      11.354   4.945   9.167  1.00  0.00     0.034 C 
ENDBRANCH  24  25
ENDBRANCH  21  24
ENDBRANCH   5  18
BRANCH  10  27
HETATM   27  N1  UNK     1      12.783  12.945  10.058  1.00  0.00    -0.379 N 
HETATM   28  H10 UNK     1      12.782  13.629  10.804  1.00  0.00     0.158 HD
HETATM   29  H9  UNK     1      11.992  12.873   9.432  1.00  0.00     0.158 HD
ENDBRANCH  10  27
TORSDOF 4
ENDMDL
MODEL 9
REMARK VINA RESULT:      -7.3      4.129      6.177
REMARK  4 active torsions:
REMARK  status: ('A' for Active; 'I' for Inactive)
REMARK    1  A    between atoms: C16_22  and  O4_4 
REMARK    2  A    between atoms: C20_26  and  O4_4 
REMARK    3  A    between atoms: C7_13  and  N1_5 
REMARK    4  A    between atoms: C1_7  and  C3_9 
ROOT
HETATM    1  O1  UNK     1      33.883  -7.160  31.201  1.00  0.00    -0.291 OA
HETATM    2  O2  UNK     1      30.545  -9.398  32.362  1.00  0.00    -0.274 OA
HETATM    3  O3  UNK     1      31.427  -9.637  34.451  1.00  0.00    -0.259 OA
HETATM    4  N2  UNK     1      37.127  -7.165  34.762  1.00  0.00    -0.191 NA
HETATM    5  C1  UNK     1      33.758  -8.027  33.935  1.00  0.00     0.108 C 
HETATM    6  C2  UNK     1      32.685  -8.337  32.907  1.00  0.00     0.066 A 
HETATM    7  C4  UNK     1      32.798  -7.893  31.646  1.00  0.00     0.104 A 
HETATM    8  C5  UNK     1      34.998  -7.403  33.303  1.00  0.00     0.086 C 
HETATM    9  C6  UNK     1      31.759  -8.160  30.656  1.00  0.00     0.033 A 
HETATM   10  C7  UNK     1      35.006  -7.001  32.011  1.00  0.00     0.159 C 
HETATM   11  C8  UNK     1      31.525  -9.170  33.321  1.00  0.00     0.298 A 
HETATM   12  C9  UNK     1      30.651  -8.906  31.048  1.00  0.00     0.092 A 
HETATM   13  C12 UNK     1      31.812  -7.703  29.333  1.00  0.00     0.017 A 
HETATM   14  C15 UNK     1      29.609  -9.204  30.170  1.00  0.00     0.038 A 
HETATM   15  C17 UNK     1      36.174  -7.272  34.109  1.00  0.00     0.100 C 
HETATM   16  C18 UNK     1      30.776  -7.994  28.440  1.00  0.00     0.001 A 
HETATM   17  C19 UNK     1      29.675  -8.743  28.858  1.00  0.00     0.003 A 
ENDROOT
BRANCH   5  18
HETATM   18  C3  UNK     1      33.215  -7.124  35.004  1.00  0.00    -0.044 A 
HETATM   19  C10 UNK     1      32.619  -5.919  34.648  1.00  0.00     0.011 A 
HETATM   20  C13 UNK     1      32.114  -5.079  35.641  1.00  0.00     0.037 A 
HETATM   21  C16 UNK     1      32.209  -5.450  36.982  1.00  0.00     0.068 A 
HETATM   22  C14 UNK     1      32.808  -6.660  37.330  1.00  0.00     0.037 A 
HETATM   23  C11 UNK     1      33.313  -7.500  36.338  1.00  0.00     0.011 A 
BRANCH  21  24
HETATM   24  O4  UNK     1      31.717  -4.630  37.950  1.00  0.00    -0.352 OA
BRANCH  24  25
HETATM   25  C20 UNK     1      30.394  -4.127  37.765  1.00  0.00     0.171 C 
HETATM   26  C21 UNK     1      29.658  -4.176  39.087  1.00  0.00     0.034 C 
ENDBRANCH  24  25
ENDBRANCH  21  24
ENDBRANCH   5  18
BRANCH  10  27
HETATM   27  N1  UNK     1      36.068  -6.422  31.371  1.00  0.00    -0.379 N 
HETATM   28  H10 UNK     1      36.919  -6.943  31.201  1.00  0.00     0.158 HD
HETATM   29  H9  UNK     1      35.991  -5.459  31.073  1.00  0.00     0.158 HD
ENDBRANCH  10  27
TORSDOF 4
ENDMDL
MODEL 10
REMARK VINA RESULT:      -7.3      4.336      7.160
REMARK  4 active torsions:
REMARK  status: ('A' for Active; 'I' for Inactive)
REMARK    1  A    between atoms: C16_22  and  O4_4 
REMARK    2  A    between atoms: C20_26  and  O4_4 
REMARK    3  A    between atoms: C7_13  and  N1_5 
REMARK    4  A    between atoms: C1_7  and  C3_9 
ROOT
HETATM    1  O1  UNK     1      30.542  -9.922  36.476  1.00  0.00    -0.291 OA
HETATM    2  O2  UNK     1      29.691  -5.829  36.335  1.00  0.00    -0.274 OA
HETATM    3  O3  UNK     1      30.974  -5.623  34.460  1.00  0.00    -0.259 OA
HETATM    4  N2  UNK     1      33.783 -10.998  33.078  1.00  0.00    -0.191 NA
HETATM    5  C1  UNK     1      31.604  -8.426  34.268  1.00  0.00     0.108 C 
HETATM    6  C2  UNK     1      30.761  -7.811  35.369  1.00  0.00     0.066 A 
HETATM    7  C4  UNK     1      30.285  -8.568  36.369  1.00  0.00     0.104 A 
HETATM    8  C5  UNK     1      32.004  -9.864  34.584  1.00  0.00     0.086 C 
HETATM    9  C6  UNK     1      29.448  -7.993  37.419  1.00  0.00     0.033 A 
HETATM   10  C7  UNK     1      31.469 -10.531  35.632  1.00  0.00     0.159 C 
HETATM   11  C8  UNK     1      30.502  -6.347  35.331  1.00  0.00     0.298 A 
HETATM   12  C9  UNK     1      29.169  -6.630  37.367  1.00  0.00     0.092 A 
HETATM   13  C12 UNK     1      28.905  -8.737  38.473  1.00  0.00     0.017 A 
HETATM   14  C15 UNK     1      28.374  -5.999  38.323  1.00  0.00     0.038 A 
HETATM   15  C17 UNK     1      32.987 -10.490  33.752  1.00  0.00     0.100 C 
HETATM   16  C18 UNK     1      28.107  -8.119  39.441  1.00  0.00     0.001 A 
HETATM   17  C19 UNK     1      27.841  -6.752  39.366  1.00  0.00     0.003 A 
ENDROOT
BRANCH   5  18
HETATM   18  C3  UNK     1      30.877  -8.370  32.956  1.00  0.00    -0.044 A 
HETATM   19  C10 UNK     1      31.487  -7.779  31.856  1.00  0.00     0.011 A 
HETATM   20  C13 UNK     1      30.812  -7.728  30.637  1.00  0.00     0.037 A 
HETATM   21  C16 UNK     1      29.530  -8.267  30.527  1.00  0.00     0.068 A 
HETATM   22  C14 UNK     1      28.925  -8.858  31.635  1.00  0.00     0.037 A 
HETATM   23  C11 UNK     1      29.600  -8.910  32.854  1.00  0.00     0.011 A 
BRANCH  21  24
HETATM   24  O4  UNK     1      28.872  -8.215  29.337  1.00  0.00    -0.352 OA
BRANCH  24  25
HETATM   25  C20 UNK     1      27.943  -9.264  29.062  1.00  0.00     0.171 C 
HETATM   26  C21 UNK     1      28.628 -10.321  28.222  1.00  0.00     0.034 C 
ENDBRANCH  24  25
ENDBRANCH  21  24
ENDBRANCH   5  18
BRANCH  10  27
HETATM   27  N1  UNK     1      31.761 -11.822  35.977  1.00  0.00    -0.379 N 
HETATM   28  H10 UNK     1      32.648 -12.240  35.725  1.00  0.00     0.158 HD
HETATM   29  H9  UNK     1      31.072 -12.359  36.487  1.00  0.00     0.158 HD
ENDBRANCH  10  27
TORSDOF 4
ENDMDL
