MODEL 1
REMARK VINA RESULT:      -8.4      0.000      0.000
REMARK  7 active torsions:
REMARK  status: ('A' for Active; 'I' for Inactive)
REMARK    1  A    between atoms: C14_22  and  O3_4 
REMARK    2  A    between atoms: C20_28  and  O3_4 
REMARK    3  A    between atoms: C24_32  and  O6_7 
REMARK    4  A    between atoms: C25_33  and  O6_7 
REMARK    5  A    between atoms: C12_20  and  C6_14 
REMARK    6  A    between atoms: C10_18  and  C14_22 
REMARK    7  A    between atoms: C20_28  and  C24_32 
ROOT
HETATM    1  O1  UNK     1      32.192  -9.655  35.298  1.00  0.00    -0.293 OA
HETATM    2  N1  UNK     1      29.008 -10.268  31.847  1.00  0.00    -0.362 N 
HETATM    3  C1  UNK     1      31.563 -12.622  33.308  1.00  0.00    -0.036 C 
HETATM    4  C2  UNK     1      30.185 -12.230  32.741  1.00  0.00     0.067 C 
HETATM    5  C3  UNK     1      31.775 -11.918  34.656  1.00  0.00     0.092 C 
HETATM    6  C4  UNK     1      29.911 -10.747  32.776  1.00  0.00     0.021 C 
HETATM    7  C5  UNK     1      30.525  -9.898  33.626  1.00  0.00     0.024 C 
HETATM    8  C6  UNK     1      30.205  -8.404  33.622  1.00  0.00     0.104 C 
HETATM    9  C7  UNK     1      31.559 -10.421  34.571  1.00  0.00     0.159 C 
HETATM   10  C8  UNK     1      32.687 -12.242  32.320  1.00  0.00     0.015 C 
HETATM   11  C9  UNK     1      31.609 -14.146  33.520  1.00  0.00     0.015 C 
HETATM   12  C10 UNK     1      29.348  -7.996  32.420  1.00  0.00     0.052 C 
HETATM   13  C11 UNK     1      28.769  -8.922  31.620  1.00  0.00     0.018 C 
HETATM   14  C13 UNK     1      27.863  -8.625  30.455  1.00  0.00     0.069 C 
HETATM   15  H12 UNK     1      28.566 -10.937  31.227  1.00  0.00     0.165 HD
ENDROOT
BRANCH   8  16
HETATM   16  C12 UNK     1      29.522  -8.005  34.907  1.00  0.00     0.029 A 
HETATM   17  C15 UNK     1      30.024  -6.814  35.636  1.00  0.00     0.194 A 
HETATM   18  O5  UNK     1      30.970  -6.152  35.230  1.00  0.00    -0.287 OA
HETATM   19  C17 UNK     1      29.321  -6.468  36.886  1.00  0.00     0.050 A 
HETATM   20  C18 UNK     1      28.248  -7.257  37.301  1.00  0.00     0.089 A 
HETATM   21  C19 UNK     1      29.718  -5.365  37.645  1.00  0.00     0.042 A 
HETATM   22  O2  UNK     1      27.815  -8.351  36.595  1.00  0.00    -0.321 OA
HETATM   23  C21 UNK     1      27.568  -6.949  38.480  1.00  0.00     0.040 A 
HETATM   24  C16 UNK     1      28.480  -8.661  35.434  1.00  0.00     0.154 A 
HETATM   25  C23 UNK     1      27.964  -5.847  39.240  1.00  0.00     0.026 A 
HETATM   26  C22 UNK     1      29.036  -5.058  38.824  1.00  0.00     0.035 A 
HETATM   27 Cl1  UNK     1      29.518  -3.701  39.767  1.00  0.00    -0.084 Cl
ENDBRANCH   8  16
BRANCH  12  28
HETATM   28  C14 UNK     1      29.236  -6.554  32.145  1.00  0.00     0.292 C 
HETATM   29  O4  UNK     1      28.245  -5.900  32.407  1.00  0.00    -0.259 OA
BRANCH  28  30
HETATM   30  O3  UNK     1      30.394  -6.137  31.578  1.00  0.00    -0.316 OA
BRANCH  30  31
HETATM   31  C20 UNK     1      30.270  -5.651  30.237  1.00  0.00     0.205 C 
BRANCH  31  32
HETATM   32  C24 UNK     1      31.485  -6.084  29.440  1.00  0.00     0.202 C 
BRANCH  32  33
HETATM   33  O6  UNK     1      31.073  -6.978  28.413  1.00  0.00    -0.349 OA
BRANCH  33  34
HETATM   34  C25 UNK     1      31.134  -8.316  28.700  1.00  0.00     0.068 A 
HETATM   35  C26 UNK     1      30.238  -9.192  28.095  1.00  0.00     0.037 A 
HETATM   36  C28 UNK     1      30.300 -10.554  28.388  1.00  0.00     0.003 A 
HETATM   37  C30 UNK     1      31.255 -11.032  29.284  1.00  0.00     0.000 A 
HETATM   38  C29 UNK     1      32.150 -10.148  29.887  1.00  0.00     0.003 A 
HETATM   39  C27 UNK     1      32.089  -8.786  29.594  1.00  0.00     0.037 A 
ENDBRANCH  33  34
ENDBRANCH  32  33
ENDBRANCH  31  32
ENDBRANCH  30  31
ENDBRANCH  28  30
ENDBRANCH  12  28
TORSDOF 7
ENDMDL
MODEL 2
REMARK VINA RESULT:      -8.3      4.055      8.694
REMARK  7 active torsions:
REMARK  status: ('A' for Active; 'I' for Inactive)
REMARK    1  A    between atoms: C14_22  and  O3_4 
REMARK    2  A    between atoms: C20_28  and  O3_4 
REMARK    3  A    between atoms: C24_32  and  O6_7 
REMARK    4  A    between atoms: C25_33  and  O6_7 
REMARK    5  A    between atoms: C12_20  and  C6_14 
REMARK    6  A    between atoms: C10_18  and  C14_22 
REMARK    7  A    between atoms: C20_28  and  C24_32 
ROOT
HETATM    1  O1  UNK     1      32.225  -8.411  34.338  1.00  0.00    -0.293 OA
HETATM    2  N1  UNK     1      30.337  -5.968  37.929  1.00  0.00    -0.362 N 
HETATM    3  C1  UNK     1      33.868  -6.115  36.617  1.00  0.00    -0.036 C 
HETATM    4  C2  UNK     1      32.614  -5.422  37.187  1.00  0.00     0.067 C 
HETATM    5  C3  UNK     1      33.562  -6.630  35.203  1.00  0.00     0.092 C 
HETATM    6  C4  UNK     1      31.347  -6.223  37.021  1.00  0.00     0.021 C 
HETATM    7  C5  UNK     1      31.187  -7.173  36.076  1.00  0.00     0.024 C 
HETATM    8  C6  UNK     1      29.878  -7.950  35.950  1.00  0.00     0.104 C 
HETATM    9  C7  UNK     1      32.318  -7.493  35.153  1.00  0.00     0.159 C 
HETATM   10  C8  UNK     1      34.310  -7.279  37.530  1.00  0.00     0.015 C 
HETATM   11  C9  UNK     1      35.022  -5.099  36.548  1.00  0.00     0.015 C 
HETATM   12  C10 UNK     1      28.938  -7.705  37.135  1.00  0.00     0.052 C 
HETATM   13  C11 UNK     1      29.181  -6.724  38.036  1.00  0.00     0.018 C 
HETATM   14  C13 UNK     1      28.291  -6.364  39.195  1.00  0.00     0.069 C 
HETATM   15  H12 UNK     1      30.495  -5.246  38.622  1.00  0.00     0.165 HD
ENDROOT
BRANCH   8  16
HETATM   16  C12 UNK     1      29.181  -7.611  34.656  1.00  0.00     0.029 A 
HETATM   17  C15 UNK     1      29.161  -8.626  33.574  1.00  0.00     0.194 A 
HETATM   18  O5  UNK     1      29.689  -9.723  33.700  1.00  0.00    -0.287 OA
HETATM   19  C17 UNK     1      28.467  -8.242  32.330  1.00  0.00     0.050 A 
HETATM   20  C18 UNK     1      27.882  -6.979  32.242  1.00  0.00     0.089 A 
HETATM   21  C19 UNK     1      28.393  -9.129  31.252  1.00  0.00     0.042 A 
HETATM   22  O2  UNK     1      27.924  -6.069  33.268  1.00  0.00    -0.321 OA
HETATM   23  C21 UNK     1      27.221  -6.594  31.075  1.00  0.00     0.040 A 
HETATM   24  C16 UNK     1      28.573  -6.440  34.420  1.00  0.00     0.154 A 
HETATM   25  C23 UNK     1      27.146  -7.478  29.998  1.00  0.00     0.026 A 
HETATM   26  C22 UNK     1      27.731  -8.742  30.086  1.00  0.00     0.035 A 
HETATM   27 Cl1  UNK     1      27.634  -9.826  28.753  1.00  0.00    -0.084 Cl
ENDBRANCH   8  16
BRANCH  12  28
HETATM   28  C14 UNK     1      27.796  -8.623  37.276  1.00  0.00     0.292 C 
HETATM   29  O4  UNK     1      27.918  -9.807  37.524  1.00  0.00    -0.259 OA
BRANCH  28  30
HETATM   30  O3  UNK     1      26.656  -7.917  37.086  1.00  0.00    -0.316 OA
BRANCH  30  31
HETATM   31  C20 UNK     1      25.454  -8.593  37.469  1.00  0.00     0.205 C 
BRANCH  31  32
HETATM   32  C24 UNK     1      25.037  -8.118  38.848  1.00  0.00     0.202 C 
BRANCH  32  33
HETATM   33  O6  UNK     1      24.263  -6.931  38.716  1.00  0.00    -0.349 OA
BRANCH  33  34
HETATM   34  C25 UNK     1      22.912  -7.052  38.901  1.00  0.00     0.068 A 
HETATM   35  C26 UNK     1      22.067  -6.022  38.503  1.00  0.00     0.037 A 
HETATM   36  C28 UNK     1      20.691  -6.145  38.693  1.00  0.00     0.003 A 
HETATM   37  C30 UNK     1      20.168  -7.296  39.280  1.00  0.00     0.000 A 
HETATM   38  C29 UNK     1      21.021  -8.326  39.677  1.00  0.00     0.003 A 
HETATM   39  C27 UNK     1      22.397  -8.203  39.487  1.00  0.00     0.037 A 
ENDBRANCH  33  34
ENDBRANCH  32  33
ENDBRANCH  31  32
ENDBRANCH  30  31
ENDBRANCH  28  30
ENDBRANCH  12  28
TORSDOF 7
ENDMDL
MODEL 3
REMARK VINA RESULT:      -8.1      3.276      5.286
REMARK  7 active torsions:
REMARK  status: ('A' for Active; 'I' for Inactive)
REMARK    1  A    between atoms: C14_22  and  O3_4 
REMARK    2  A    between atoms: C20_28  and  O3_4 
REMARK    3  A    between atoms: C24_32  and  O6_7 
REMARK    4  A    between atoms: C25_33  and  O6_7 
REMARK    5  A    between atoms: C12_20  and  C6_14 
REMARK    6  A    between atoms: C10_18  and  C14_22 
REMARK    7  A    between atoms: C20_28  and  C24_32 
ROOT
HETATM    1  O1  UNK     1      31.289  -9.707  34.051  1.00  0.00    -0.293 OA
HETATM    2  N1  UNK     1      31.151  -4.993  34.477  1.00  0.00    -0.362 N 
HETATM    3  C1  UNK     1      30.539  -7.233  31.507  1.00  0.00    -0.036 C 
HETATM    4  C2  UNK     1      30.269  -6.029  32.431  1.00  0.00     0.067 C 
HETATM    5  C3  UNK     1      30.226  -8.531  32.264  1.00  0.00     0.092 C 
HETATM    6  C4  UNK     1      30.873  -6.169  33.807  1.00  0.00     0.021 C 
HETATM    7  C5  UNK     1      31.177  -7.358  34.367  1.00  0.00     0.024 C 
HETATM    8  C6  UNK     1      31.782  -7.441  35.767  1.00  0.00     0.104 C 
HETATM    9  C7  UNK     1      30.944  -8.617  33.595  1.00  0.00     0.159 C 
HETATM   10  C8  UNK     1      32.005  -7.231  31.024  1.00  0.00     0.015 C 
HETATM   11  C9  UNK     1      29.629  -7.135  30.269  1.00  0.00     0.015 C 
HETATM   12  C10 UNK     1      32.214  -6.071  36.296  1.00  0.00     0.052 C 
HETATM   13  C11 UNK     1      31.861  -4.927  35.665  1.00  0.00     0.018 C 
HETATM   14  C13 UNK     1      32.182  -3.534  36.136  1.00  0.00     0.069 C 
HETATM   15  H12 UNK     1      30.907  -4.120  34.024  1.00  0.00     0.165 HD
ENDROOT
BRANCH   8  16
HETATM   16  C12 UNK     1      30.813  -8.087  36.726  1.00  0.00     0.029 A 
HETATM   17  C15 UNK     1      29.430  -7.555  36.805  1.00  0.00     0.194 A 
HETATM   18  O5  UNK     1      29.056  -6.613  36.119  1.00  0.00    -0.287 OA
HETATM   19  C17 UNK     1      28.526  -8.223  37.759  1.00  0.00     0.050 A 
HETATM   20  C18 UNK     1      29.006  -9.292  38.515  1.00  0.00     0.089 A 
HETATM   21  C19 UNK     1      27.204  -7.795  37.906  1.00  0.00     0.042 A 
HETATM   22  O2  UNK     1      30.294  -9.754  38.410  1.00  0.00    -0.321 OA
HETATM   23  C21 UNK     1      28.168  -9.939  39.423  1.00  0.00     0.040 A 
HETATM   24  C16 UNK     1      31.125  -9.122  37.518  1.00  0.00     0.154 A 
HETATM   25  C23 UNK     1      26.848  -9.513  39.572  1.00  0.00     0.026 A 
HETATM   26  C22 UNK     1      26.367  -8.444  38.816  1.00  0.00     0.035 A 
HETATM   27 Cl1  UNK     1      24.737  -7.924  39.005  1.00  0.00    -0.084 Cl
ENDBRANCH   8  16
BRANCH  12  28
HETATM   28  C14 UNK     1      33.079  -6.064  37.488  1.00  0.00     0.292 C 
HETATM   29  O4  UNK     1      32.729  -5.621  38.565  1.00  0.00    -0.259 OA
BRANCH  28  30
HETATM   30  O3  UNK     1      34.269  -6.619  37.154  1.00  0.00    -0.316 OA
BRANCH  30  31
HETATM   31  C20 UNK     1      35.206  -5.724  36.545  1.00  0.00     0.205 C 
BRANCH  31  32
HETATM   32  C24 UNK     1      35.892  -6.435  35.394  1.00  0.00     0.202 C 
BRANCH  32  33
HETATM   33  O6  UNK     1      35.075  -6.338  34.234  1.00  0.00    -0.349 OA
BRANCH  33  34
HETATM   34  C25 UNK     1      35.079  -7.413  33.385  1.00  0.00     0.068 A 
HETATM   35  C26 UNK     1      35.517  -7.254  32.074  1.00  0.00     0.037 A 
HETATM   36  C28 UNK     1      35.520  -8.349  31.210  1.00  0.00     0.003 A 
HETATM   37  C30 UNK     1      35.085  -9.594  31.661  1.00  0.00     0.000 A 
HETATM   38  C29 UNK     1      34.647  -9.746  32.977  1.00  0.00     0.003 A 
HETATM   39  C27 UNK     1      34.644  -8.652  33.841  1.00  0.00     0.037 A 
ENDBRANCH  33  34
ENDBRANCH  32  33
ENDBRANCH  31  32
ENDBRANCH  30  31
ENDBRANCH  28  30
ENDBRANCH  12  28
TORSDOF 7
ENDMDL
MODEL 4
REMARK VINA RESULT:      -8.1      1.206      1.630
REMARK  7 active torsions:
REMARK  status: ('A' for Active; 'I' for Inactive)
REMARK    1  A    between atoms: C14_22  and  O3_4 
REMARK    2  A    between atoms: C20_28  and  O3_4 
REMARK    3  A    between atoms: C24_32  and  O6_7 
REMARK    4  A    between atoms: C25_33  and  O6_7 
REMARK    5  A    between atoms: C12_20  and  C6_14 
REMARK    6  A    between atoms: C10_18  and  C14_22 
REMARK    7  A    between atoms: C20_28  and  C24_32 
ROOT
HETATM    1  O1  UNK     1      32.116  -9.494  35.015  1.00  0.00    -0.293 OA
HETATM    2  N1  UNK     1      28.877 -10.001  31.597  1.00  0.00    -0.362 N 
HETATM    3  C1  UNK     1      31.467 -12.392  32.932  1.00  0.00    -0.036 C 
HETATM    4  C2  UNK     1      30.078 -11.987  32.402  1.00  0.00     0.067 C 
HETATM    5  C3  UNK     1      31.698 -11.735  34.300  1.00  0.00     0.092 C 
HETATM    6  C4  UNK     1      29.798 -10.508  32.494  1.00  0.00     0.021 C 
HETATM    7  C5  UNK     1      30.423  -9.687  33.364  1.00  0.00     0.024 C 
HETATM    8  C6  UNK     1      30.096  -8.196  33.418  1.00  0.00     0.104 C 
HETATM    9  C7  UNK     1      31.474 -10.237  34.272  1.00  0.00     0.159 C 
HETATM   10  C8  UNK     1      32.573 -11.973  31.940  1.00  0.00     0.015 C 
HETATM   11  C9  UNK     1      31.523 -13.923  33.089  1.00  0.00     0.015 C 
HETATM   12  C10 UNK     1      29.217  -7.750  32.245  1.00  0.00     0.052 C 
HETATM   13  C11 UNK     1      28.629  -8.649  31.423  1.00  0.00     0.018 C 
HETATM   14  C13 UNK     1      27.702  -8.316  30.284  1.00  0.00     0.069 C 
HETATM   15  H12 UNK     1      28.428 -10.650  30.962  1.00  0.00     0.165 HD
ENDROOT
BRANCH   8  16
HETATM   16  C12 UNK     1      29.433  -7.844  34.727  1.00  0.00     0.029 A 
HETATM   17  C15 UNK     1      29.947  -6.682  35.493  1.00  0.00     0.194 A 
HETATM   18  O5  UNK     1      30.887  -6.006  35.097  1.00  0.00    -0.287 OA
HETATM   19  C17 UNK     1      29.263  -6.384  36.765  1.00  0.00     0.050 A 
HETATM   20  C18 UNK     1      28.196  -7.189  37.167  1.00  0.00     0.089 A 
HETATM   21  C19 UNK     1      29.673  -5.310  37.560  1.00  0.00     0.042 A 
HETATM   22  O2  UNK     1      27.752  -8.255  36.426  1.00  0.00    -0.321 OA
HETATM   23  C21 UNK     1      27.534  -6.925  38.367  1.00  0.00     0.040 A 
HETATM   24  C16 UNK     1      28.398  -8.521  35.245  1.00  0.00     0.154 A 
HETATM   25  C23 UNK     1      27.942  -5.853  39.161  1.00  0.00     0.026 A 
HETATM   26  C22 UNK     1      29.008  -5.048  38.760  1.00  0.00     0.035 A 
HETATM   27 Cl1  UNK     1      29.506  -3.728  39.746  1.00  0.00    -0.084 Cl
ENDBRANCH   8  16
BRANCH  12  28
HETATM   28  C14 UNK     1      29.094  -6.299  32.023  1.00  0.00     0.292 C 
HETATM   29  O4  UNK     1      28.103  -5.660  32.320  1.00  0.00    -0.259 OA
BRANCH  28  30
HETATM   30  O3  UNK     1      30.243  -5.856  31.458  1.00  0.00    -0.316 OA
BRANCH  30  31
HETATM   31  C20 UNK     1      30.131  -5.472  30.083  1.00  0.00     0.205 C 
BRANCH  31  32
HETATM   32  C24 UNK     1      31.311  -6.037  29.315  1.00  0.00     0.202 C 
BRANCH  32  33
HETATM   33  O6  UNK     1      31.523  -7.386  29.715  1.00  0.00    -0.349 OA
BRANCH  33  34
HETATM   34  C25 UNK     1      32.793  -7.721  30.103  1.00  0.00     0.068 A 
HETATM   35  C26 UNK     1      33.862  -7.478  29.247  1.00  0.00     0.037 A 
HETATM   36  C28 UNK     1      35.154  -7.821  29.642  1.00  0.00     0.003 A 
HETATM   37  C30 UNK     1      35.370  -8.406  30.889  1.00  0.00     0.000 A 
HETATM   38  C29 UNK     1      34.293  -8.647  31.743  1.00  0.00     0.003 A 
HETATM   39  C27 UNK     1      33.001  -8.304  31.348  1.00  0.00     0.037 A 
ENDBRANCH  33  34
ENDBRANCH  32  33
ENDBRANCH  31  32
ENDBRANCH  30  31
ENDBRANCH  28  30
ENDBRANCH  12  28
TORSDOF 7
ENDMDL
MODEL 5
REMARK VINA RESULT:      -8.0      4.024      6.957
REMARK  7 active torsions:
REMARK  status: ('A' for Active; 'I' for Inactive)
REMARK    1  A    between atoms: C14_22  and  O3_4 
REMARK    2  A    between atoms: C20_28  and  O3_4 
REMARK    3  A    between atoms: C24_32  and  O6_7 
REMARK    4  A    between atoms: C25_33  and  O6_7 
REMARK    5  A    between atoms: C12_20  and  C6_14 
REMARK    6  A    between atoms: C10_18  and  C14_22 
REMARK    7  A    between atoms: C20_28  and  C24_32 
ROOT
HETATM    1  O1  UNK     1      34.663 -11.899  32.013  1.00  0.00    -0.293 OA
HETATM    2  N1  UNK     1      36.476  -8.141  34.255  1.00  0.00    -0.362 N 
HETATM    3  C1  UNK     1      38.129 -11.221  32.844  1.00  0.00    -0.036 C 
HETATM    4  C2  UNK     1      38.001  -9.715  33.146  1.00  0.00     0.067 C 
HETATM    5  C3  UNK     1      37.032 -11.632  31.852  1.00  0.00     0.092 C 
HETATM    6  C4  UNK     1      36.596  -9.276  33.476  1.00  0.00     0.021 C 
HETATM    7  C5  UNK     1      35.496  -9.952  33.084  1.00  0.00     0.024 C 
HETATM    8  C6  UNK     1      34.096  -9.458  33.442  1.00  0.00     0.104 C 
HETATM    9  C7  UNK     1      35.648 -11.222  32.310  1.00  0.00     0.159 C 
HETATM   10  C8  UNK     1      38.018 -12.049  34.142  1.00  0.00     0.015 C 
HETATM   11  C9  UNK     1      39.508 -11.498  32.218  1.00  0.00     0.015 C 
HETATM   12  C10 UNK     1      34.124  -8.317  34.464  1.00  0.00     0.052 C 
HETATM   13  C11 UNK     1      35.280  -7.696  34.795  1.00  0.00     0.018 C 
HETATM   14  C13 UNK     1      35.405  -6.530  35.738  1.00  0.00     0.069 C 
HETATM   15  H12 UNK     1      37.325  -7.660  34.527  1.00  0.00     0.165 HD
ENDROOT
BRANCH   8  16
HETATM   16  C12 UNK     1      33.352  -9.026  32.202  1.00  0.00     0.029 A 
HETATM   17  C15 UNK     1      32.043  -9.658  31.903  1.00  0.00     0.194 A 
HETATM   18  O5  UNK     1      31.553 -10.514  32.628  1.00  0.00    -0.287 OA
HETATM   19  C17 UNK     1      31.360  -9.200  30.679  1.00  0.00     0.050 A 
HETATM   20  C18 UNK     1      31.965  -8.221  29.891  1.00  0.00     0.089 A 
HETATM   21  C19 UNK     1      30.123  -9.735  30.311  1.00  0.00     0.042 A 
HETATM   22  O2  UNK     1      33.178  -7.661  30.204  1.00  0.00    -0.321 OA
HETATM   23  C21 UNK     1      31.336  -7.772  28.729  1.00  0.00     0.040 A 
HETATM   24  C16 UNK     1      33.802  -8.098  31.347  1.00  0.00     0.154 A 
HETATM   25  C23 UNK     1      30.101  -8.305  28.360  1.00  0.00     0.026 A 
HETATM   26  C22 UNK     1      29.496  -9.284  29.148  1.00  0.00     0.035 A 
HETATM   27 Cl1  UNK     1      27.972  -9.936  28.686  1.00  0.00    -0.084 Cl
ENDBRANCH   8  16
BRANCH  12  28
HETATM   28  C14 UNK     1      32.846  -7.973  35.108  1.00  0.00     0.292 C 
HETATM   29  O4  UNK     1      32.438  -8.517  36.116  1.00  0.00    -0.259 OA
BRANCH  28  30
HETATM   30  O3  UNK     1      32.258  -6.987  34.388  1.00  0.00    -0.316 OA
BRANCH  30  31
HETATM   31  C20 UNK     1      31.451  -6.081  35.148  1.00  0.00     0.205 C 
BRANCH  31  32
HETATM   32  C24 UNK     1      30.005  -6.225  34.716  1.00  0.00     0.202 C 
BRANCH  32  33
HETATM   33  O6  UNK     1      29.923  -7.200  33.683  1.00  0.00    -0.349 OA
BRANCH  33  34
HETATM   34  C25 UNK     1      29.228  -6.847  32.557  1.00  0.00     0.068 A 
HETATM   35  C26 UNK     1      28.015  -7.465  32.274  1.00  0.00     0.037 A 
HETATM   36  C28 UNK     1      27.309  -7.107  31.126  1.00  0.00     0.003 A 
HETATM   37  C30 UNK     1      27.820  -6.135  30.268  1.00  0.00     0.000 A 
HETATM   38  C29 UNK     1      29.038  -5.519  30.557  1.00  0.00     0.003 A 
HETATM   39  C27 UNK     1      29.744  -5.877  31.705  1.00  0.00     0.037 A 
ENDBRANCH  33  34
ENDBRANCH  32  33
ENDBRANCH  31  32
ENDBRANCH  30  31
ENDBRANCH  28  30
ENDBRANCH  12  28
TORSDOF 7
ENDMDL
MODEL 6
REMARK VINA RESULT:      -8.0      3.845      7.151
REMARK  7 active torsions:
REMARK  status: ('A' for Active; 'I' for Inactive)
REMARK    1  A    between atoms: C14_22  and  O3_4 
REMARK    2  A    between atoms: C20_28  and  O3_4 
REMARK    3  A    between atoms: C24_32  and  O6_7 
REMARK    4  A    between atoms: C25_33  and  O6_7 
REMARK    5  A    between atoms: C12_20  and  C6_14 
REMARK    6  A    between atoms: C10_18  and  C14_22 
REMARK    7  A    between atoms: C20_28  and  C24_32 
ROOT
HETATM    1  O1  UNK     1      32.627  -9.384  35.307  1.00  0.00    -0.293 OA
HETATM    2  N1  UNK     1      31.569  -6.371  31.810  1.00  0.00    -0.362 N 
HETATM    3  C1  UNK     1      31.071  -6.115  35.538  1.00  0.00    -0.036 C 
HETATM    4  C2  UNK     1      31.434  -5.589  34.135  1.00  0.00     0.067 C 
HETATM    5  C3  UNK     1      32.118  -7.148  35.978  1.00  0.00     0.092 C 
HETATM    6  C4  UNK     1      31.765  -6.677  33.143  1.00  0.00     0.021 C 
HETATM    7  C5  UNK     1      32.191  -7.905  33.503  1.00  0.00     0.024 C 
HETATM    8  C6  UNK     1      32.517  -8.968  32.455  1.00  0.00     0.104 C 
HETATM    9  C7  UNK     1      32.320  -8.245  34.953  1.00  0.00     0.159 C 
HETATM   10  C8  UNK     1      29.662  -6.745  35.536  1.00  0.00     0.015 C 
HETATM   11  C9  UNK     1      31.068  -4.941  36.534  1.00  0.00     0.015 C 
HETATM   12  C10 UNK     1      32.066  -8.557  31.050  1.00  0.00     0.052 C 
HETATM   13  C11 UNK     1      31.653  -7.296  30.782  1.00  0.00     0.018 C 
HETATM   14  C13 UNK     1      31.249  -6.779  29.428  1.00  0.00     0.069 C 
HETATM   15  H12 UNK     1      31.250  -5.437  31.580  1.00  0.00     0.165 HD
ENDROOT
BRANCH   8  16
HETATM   16  C12 UNK     1      33.994  -9.279  32.457  1.00  0.00     0.029 A 
HETATM   17  C15 UNK     1      34.425 -10.674  32.722  1.00  0.00     0.194 A 
HETATM   18  O5  UNK     1      33.623 -11.573  32.939  1.00  0.00    -0.287 OA
HETATM   19  C17 UNK     1      35.878 -10.922  32.712  1.00  0.00     0.050 A 
HETATM   20  C18 UNK     1      36.746  -9.860  32.458  1.00  0.00     0.089 A 
HETATM   21  C19 UNK     1      36.384 -12.202  32.951  1.00  0.00     0.042 A 
HETATM   22  O2  UNK     1      36.305  -8.583  32.217  1.00  0.00    -0.321 OA
HETATM   23  C21 UNK     1      38.125 -10.072  32.444  1.00  0.00     0.040 A 
HETATM   24  C16 UNK     1      34.949  -8.367  32.230  1.00  0.00     0.154 A 
HETATM   25  C23 UNK     1      38.632 -11.349  32.682  1.00  0.00     0.026 A 
HETATM   26  C22 UNK     1      37.764 -12.412  32.936  1.00  0.00     0.035 A 
HETATM   27 Cl1  UNK     1      38.398 -13.985  33.229  1.00  0.00    -0.084 Cl
ENDBRANCH   8  16
BRANCH  12  28
HETATM   28  C14 UNK     1      32.048  -9.614  30.025  1.00  0.00     0.292 C 
HETATM   29  O4  UNK     1      32.883  -9.705  29.145  1.00  0.00    -0.259 OA
BRANCH  28  30
HETATM   30  O3  UNK     1      30.977 -10.412  30.254  1.00  0.00    -0.316 OA
BRANCH  30  31
HETATM   31  C20 UNK     1      30.264 -10.819  29.081  1.00  0.00     0.205 C 
BRANCH  31  32
HETATM   32  C24 UNK     1      29.374  -9.679  28.623  1.00  0.00     0.202 C 
BRANCH  32  33
HETATM   33  O6  UNK     1      28.199  -9.656  29.426  1.00  0.00    -0.349 OA
BRANCH  33  34
HETATM   34  C25 UNK     1      28.103  -8.648  30.348  1.00  0.00     0.068 A 
HETATM   35  C26 UNK     1      27.709  -7.377  29.941  1.00  0.00     0.037 A 
HETATM   36  C28 UNK     1      27.612  -6.351  30.880  1.00  0.00     0.003 A 
HETATM   37  C30 UNK     1      27.909  -6.600  32.219  1.00  0.00     0.000 A 
HETATM   38  C29 UNK     1      28.304  -7.876  32.620  1.00  0.00     0.003 A 
HETATM   39  C27 UNK     1      28.401  -8.903  31.681  1.00  0.00     0.037 A 
ENDBRANCH  33  34
ENDBRANCH  32  33
ENDBRANCH  31  32
ENDBRANCH  30  31
ENDBRANCH  28  30
ENDBRANCH  12  28
TORSDOF 7
ENDMDL
MODEL 7
REMARK VINA RESULT:      -8.0      3.572      6.849
REMARK  7 active torsions:
REMARK  status: ('A' for Active; 'I' for Inactive)
REMARK    1  A    between atoms: C14_22  and  O3_4 
REMARK    2  A    between atoms: C20_28  and  O3_4 
REMARK    3  A    between atoms: C24_32  and  O6_7 
REMARK    4  A    between atoms: C25_33  and  O6_7 
REMARK    5  A    between atoms: C12_20  and  C6_14 
REMARK    6  A    between atoms: C10_18  and  C14_22 
REMARK    7  A    between atoms: C20_28  and  C24_32 
ROOT
HETATM    1  O1  UNK     1      27.747  -6.962  34.909  1.00  0.00    -0.293 OA
HETATM    2  N1  UNK     1      30.913  -6.666  38.419  1.00  0.00    -0.362 N 
HETATM    3  C1  UNK     1      27.269  -7.633  38.442  1.00  0.00    -0.036 C 
HETATM    4  C2  UNK     1      28.750  -7.746  38.856  1.00  0.00     0.067 C 
HETATM    5  C3  UNK     1      27.127  -8.015  36.962  1.00  0.00     0.092 C 
HETATM    6  C4  UNK     1      29.704  -7.082  37.895  1.00  0.00     0.021 C 
HETATM    7  C5  UNK     1      29.411  -6.852  36.598  1.00  0.00     0.024 C 
HETATM    8  C6  UNK     1      30.419  -6.181  35.667  1.00  0.00     0.104 C 
HETATM    9  C7  UNK     1      28.068  -7.236  36.066  1.00  0.00     0.159 C 
HETATM   10  C8  UNK     1      26.744  -6.201  38.681  1.00  0.00     0.015 C 
HETATM   11  C9  UNK     1      26.428  -8.598  39.298  1.00  0.00     0.015 C 
HETATM   12  C10 UNK     1      31.617  -5.602  36.425  1.00  0.00     0.052 C 
HETATM   13  C11 UNK     1      31.830  -5.890  37.731  1.00  0.00     0.018 C 
HETATM   14  C13 UNK     1      33.006  -5.423  38.546  1.00  0.00     0.069 C 
HETATM   15  H12 UNK     1      31.096  -6.858  39.397  1.00  0.00     0.165 HD
ENDROOT
BRANCH   8  16
HETATM   16  C12 UNK     1      30.891  -7.147  34.609  1.00  0.00     0.029 A 
HETATM   17  C15 UNK     1      30.753  -6.762  33.183  1.00  0.00     0.194 A 
HETATM   18  O5  UNK     1      30.271  -5.689  32.842  1.00  0.00    -0.287 OA
HETATM   19  C17 UNK     1      31.230  -7.743  32.191  1.00  0.00     0.050 A 
HETATM   20  C18 UNK     1      31.771  -8.949  32.636  1.00  0.00     0.089 A 
HETATM   21  C19 UNK     1      31.144  -7.474  30.823  1.00  0.00     0.042 A 
HETATM   22  O2  UNK     1      31.881  -9.267  33.967  1.00  0.00    -0.321 OA
HETATM   23  C21 UNK     1      32.229  -9.893  31.716  1.00  0.00     0.040 A 
HETATM   24  C16 UNK     1      31.432  -8.343  34.879  1.00  0.00     0.154 A 
HETATM   25  C23 UNK     1      32.144  -9.625  30.349  1.00  0.00     0.026 A 
HETATM   26  C22 UNK     1      31.602  -8.419  29.904  1.00  0.00     0.035 A 
HETATM   27 Cl1  UNK     1      31.501  -8.096  28.216  1.00  0.00    -0.084 Cl
ENDBRANCH   8  16
BRANCH  12  28
HETATM   28  C14 UNK     1      32.487  -4.676  35.682  1.00  0.00     0.292 C 
HETATM   29  O4  UNK     1      32.343  -3.468  35.697  1.00  0.00    -0.259 OA
BRANCH  28  30
HETATM   30  O3  UNK     1      33.420  -5.404  35.023  1.00  0.00    -0.316 OA
BRANCH  30  31
HETATM   31  C20 UNK     1      34.778  -5.075  35.337  1.00  0.00     0.205 C 
BRANCH  31  32
HETATM   32  C24 UNK     1      35.641  -6.307  35.148  1.00  0.00     0.202 C 
BRANCH  32  33
HETATM   33  O6  UNK     1      34.830  -7.375  34.671  1.00  0.00    -0.349 OA
BRANCH  33  34
HETATM   34  C25 UNK     1      35.127  -7.866  33.428  1.00  0.00     0.068 A 
HETATM   35  C26 UNK     1      35.662  -9.143  33.301  1.00  0.00     0.037 A 
HETATM   36  C28 UNK     1      35.965  -9.642  32.035  1.00  0.00     0.003 A 
HETATM   37  C30 UNK     1      35.731  -8.862  30.903  1.00  0.00     0.000 A 
HETATM   38  C29 UNK     1      35.194  -7.582  31.037  1.00  0.00     0.003 A 
HETATM   39  C27 UNK     1      34.891  -7.083  32.304  1.00  0.00     0.037 A 
ENDBRANCH  33  34
ENDBRANCH  32  33
ENDBRANCH  31  32
ENDBRANCH  30  31
ENDBRANCH  28  30
ENDBRANCH  12  28
TORSDOF 7
ENDMDL
MODEL 8
REMARK VINA RESULT:      -8.0      3.270      6.215
REMARK  7 active torsions:
REMARK  status: ('A' for Active; 'I' for Inactive)
REMARK    1  A    between atoms: C14_22  and  O3_4 
REMARK    2  A    between atoms: C20_28  and  O3_4 
REMARK    3  A    between atoms: C24_32  and  O6_7 
REMARK    4  A    between atoms: C25_33  and  O6_7 
REMARK    5  A    between atoms: C12_20  and  C6_14 
REMARK    6  A    between atoms: C10_18  and  C14_22 
REMARK    7  A    between atoms: C20_28  and  C24_32 
ROOT
HETATM    1  O1  UNK     1      27.628  -8.618  35.393  1.00  0.00    -0.293 OA
HETATM    2  N1  UNK     1      31.675  -8.610  37.853  1.00  0.00    -0.362 N 
HETATM    3  C1  UNK     1      28.129  -9.316  38.917  1.00  0.00    -0.036 C 
HETATM    4  C2  UNK     1      29.654  -9.541  38.892  1.00  0.00     0.067 C 
HETATM    5  C3  UNK     1      27.544  -9.661  37.541  1.00  0.00     0.092 C 
HETATM    6  C4  UNK     1      30.340  -8.929  37.697  1.00  0.00     0.021 C 
HETATM    7  C5  UNK     1      29.708  -8.656  36.537  1.00  0.00     0.024 C 
HETATM    8  C6  UNK     1      30.454  -8.041  35.355  1.00  0.00     0.104 C 
HETATM    9  C7  UNK     1      28.244  -8.934  36.411  1.00  0.00     0.159 C 
HETATM   10  C8  UNK     1      27.799  -7.855  39.292  1.00  0.00     0.015 C 
HETATM   11  C9  UNK     1      27.499 -10.235  39.981  1.00  0.00     0.015 C 
HETATM   12  C10 UNK     1      31.858  -7.562  35.738  1.00  0.00     0.052 C 
HETATM   13  C11 UNK     1      32.413  -7.887  36.929  1.00  0.00     0.018 C 
HETATM   14  C13 UNK     1      33.803  -7.520  37.374  1.00  0.00     0.069 C 
HETATM   15  H12 UNK     1      32.115  -8.832  38.739  1.00  0.00     0.165 HD
ENDROOT
BRANCH   8  16
HETATM   16  C12 UNK     1      30.534  -9.019  34.209  1.00  0.00     0.029 A 
HETATM   17  C15 UNK     1      29.812  -8.701  32.952  1.00  0.00     0.194 A 
HETATM   18  O5  UNK     1      29.157  -7.675  32.819  1.00  0.00    -0.287 OA
HETATM   19  C17 UNK     1      29.923  -9.691  31.866  1.00  0.00     0.050 A 
HETATM   20  C18 UNK     1      30.682 -10.843  32.072  1.00  0.00     0.089 A 
HETATM   21  C19 UNK     1      29.279  -9.483  30.643  1.00  0.00     0.042 A 
HETATM   22  O2  UNK     1      31.336 -11.098  33.251  1.00  0.00    -0.321 OA
HETATM   23  C21 UNK     1      30.801 -11.794  31.058  1.00  0.00     0.040 A 
HETATM   24  C16 UNK     1      31.223 -10.167  34.254  1.00  0.00     0.154 A 
HETATM   25  C23 UNK     1      30.159 -11.587  29.836  1.00  0.00     0.026 A 
HETATM   26  C22 UNK     1      29.400 -10.436  29.630  1.00  0.00     0.035 A 
HETATM   27 Cl1  UNK     1      28.610 -10.189  28.120  1.00  0.00    -0.084 Cl
ENDBRANCH   8  16
BRANCH  12  28
HETATM   28  C14 UNK     1      32.545  -6.686  34.775  1.00  0.00     0.292 C 
HETATM   29  O4  UNK     1      32.243  -5.522  34.598  1.00  0.00    -0.259 OA
BRANCH  28  30
HETATM   30  O3  UNK     1      33.522  -7.403  34.168  1.00  0.00    -0.316 OA
BRANCH  30  31
HETATM   31  C20 UNK     1      34.446  -6.632  33.393  1.00  0.00     0.205 C 
BRANCH  31  32
HETATM   32  C24 UNK     1      34.654  -7.312  32.053  1.00  0.00     0.202 C 
BRANCH  32  33
HETATM   33  O6  UNK     1      33.570  -8.199  31.808  1.00  0.00    -0.349 OA
BRANCH  33  34
HETATM   34  C25 UNK     1      32.833  -7.976  30.676  1.00  0.00     0.068 A 
HETATM   35  C26 UNK     1      32.977  -8.822  29.581  1.00  0.00     0.037 A 
HETATM   36  C28 UNK     1      32.228  -8.592  28.428  1.00  0.00     0.003 A 
HETATM   37  C30 UNK     1      31.339  -7.519  28.375  1.00  0.00     0.000 A 
HETATM   38  C29 UNK     1      31.199  -6.674  29.477  1.00  0.00     0.003 A 
HETATM   39  C27 UNK     1      31.949  -6.903  30.630  1.00  0.00     0.037 A 
ENDBRANCH  33  34
ENDBRANCH  32  33
ENDBRANCH  31  32
ENDBRANCH  30  31
ENDBRANCH  28  30
ENDBRANCH  12  28
TORSDOF 7
ENDMDL
MODEL 9
REMARK VINA RESULT:      -8.0      3.601      8.048
REMARK  7 active torsions:
REMARK  status: ('A' for Active; 'I' for Inactive)
REMARK    1  A    between atoms: C14_22  and  O3_4 
REMARK    2  A    between atoms: C20_28  and  O3_4 
REMARK    3  A    between atoms: C24_32  and  O6_7 
REMARK    4  A    between atoms: C25_33  and  O6_7 
REMARK    5  A    between atoms: C12_20  and  C6_14 
REMARK    6  A    between atoms: C10_18  and  C14_22 
REMARK    7  A    between atoms: C20_28  and  C24_32 
ROOT
HETATM    1  O1  UNK     1      33.667  -9.300  34.756  1.00  0.00    -0.293 OA
HETATM    2  N1  UNK     1      30.059  -6.232  34.827  1.00  0.00    -0.362 N 
HETATM    3  C1  UNK     1      33.786  -5.675  34.732  1.00  0.00    -0.036 C 
HETATM    4  C2  UNK     1      32.320  -5.400  34.346  1.00  0.00     0.067 C 
HETATM    5  C3  UNK     1      34.206  -7.045  34.182  1.00  0.00     0.092 C 
HETATM    6  C4  UNK     1      31.389  -6.553  34.627  1.00  0.00     0.021 C 
HETATM    7  C5  UNK     1      31.802  -7.833  34.727  1.00  0.00     0.024 C 
HETATM    8  C6  UNK     1      30.813  -8.963  35.008  1.00  0.00     0.104 C 
HETATM    9  C7  UNK     1      33.255  -8.152  34.587  1.00  0.00     0.159 C 
HETATM   10  C8  UNK     1      33.963  -5.634  36.265  1.00  0.00     0.015 C 
HETATM   11  C9  UNK     1      34.685  -4.585  34.119  1.00  0.00     0.015 C 
HETATM   12  C10 UNK     1      29.428  -8.440  35.402  1.00  0.00     0.052 C 
HETATM   13  C11 UNK     1      29.103  -7.134  35.266  1.00  0.00     0.018 C 
HETATM   14  C13 UNK     1      27.755  -6.534  35.565  1.00  0.00     0.069 C 
HETATM   15  H12 UNK     1      29.788  -5.260  34.743  1.00  0.00     0.165 HD
ENDROOT
BRANCH   8  16
HETATM   16  C12 UNK     1      30.703  -9.881  33.816  1.00  0.00     0.029 A 
HETATM   17  C15 UNK     1      31.021 -11.320  33.997  1.00  0.00     0.194 A 
HETATM   18  O5  UNK     1      31.368 -11.779  35.077  1.00  0.00    -0.287 OA
HETATM   19  C17 UNK     1      30.897 -12.172  32.799  1.00  0.00     0.050 A 
HETATM   20  C18 UNK     1      30.496 -11.594  31.594  1.00  0.00     0.089 A 
HETATM   21  C19 UNK     1      31.175 -13.539  32.866  1.00  0.00     0.042 A 
HETATM   22  O2  UNK     1      30.211 -10.258  31.471  1.00  0.00    -0.321 OA
HETATM   23  C21 UNK     1      30.373 -12.381  30.449  1.00  0.00     0.040 A 
HETATM   24  C16 UNK     1      30.331  -9.477  32.594  1.00  0.00     0.154 A 
HETATM   25  C23 UNK     1      30.649 -13.747  30.514  1.00  0.00     0.026 A 
HETATM   26  C22 UNK     1      31.050 -14.325  31.719  1.00  0.00     0.035 A 
HETATM   27 Cl1  UNK     1      31.390 -16.011  31.791  1.00  0.00    -0.084 Cl
ENDBRANCH   8  16
BRANCH  12  28
HETATM   28  C14 UNK     1      28.494  -9.416  35.987  1.00  0.00     0.292 C 
HETATM   29  O4  UNK     1      27.666 -10.023  35.334  1.00  0.00    -0.259 OA
BRANCH  28  30
HETATM   30  O3  UNK     1      28.734  -9.491  37.318  1.00  0.00    -0.316 OA
BRANCH  30  31
HETATM   31  C20 UNK     1      27.614  -9.181  38.154  1.00  0.00     0.205 C 
BRANCH  31  32
HETATM   32  C24 UNK     1      28.110  -8.489  39.409  1.00  0.00     0.202 C 
BRANCH  32  33
HETATM   33  O6  UNK     1      27.830  -7.097  39.314  1.00  0.00    -0.349 OA
BRANCH  33  34
HETATM   34  C25 UNK     1      28.858  -6.287  38.910  1.00  0.00     0.068 A 
HETATM   35  C26 UNK     1      30.125  -6.827  38.717  1.00  0.00     0.037 A 
HETATM   36  C28 UNK     1      31.172  -6.002  38.307  1.00  0.00     0.003 A 
HETATM   37  C30 UNK     1      30.947  -4.643  38.094  1.00  0.00     0.000 A 
HETATM   38  C29 UNK     1      29.673  -4.108  38.290  1.00  0.00     0.003 A 
HETATM   39  C27 UNK     1      28.626  -4.933  38.700  1.00  0.00     0.037 A 
ENDBRANCH  33  34
ENDBRANCH  32  33
ENDBRANCH  31  32
ENDBRANCH  30  31
ENDBRANCH  28  30
ENDBRANCH  12  28
TORSDOF 7
ENDMDL
MODEL 10
REMARK VINA RESULT:      -7.9      3.402      7.553
REMARK  7 active torsions:
REMARK  status: ('A' for Active; 'I' for Inactive)
REMARK    1  A    between atoms: C14_22  and  O3_4 
REMARK    2  A    between atoms: C20_28  and  O3_4 
REMARK    3  A    between atoms: C24_32  and  O6_7 
REMARK    4  A    between atoms: C25_33  and  O6_7 
REMARK    5  A    between atoms: C12_20  and  C6_14 
REMARK    6  A    between atoms: C10_18  and  C14_22 
REMARK    7  A    between atoms: C20_28  and  C24_32 
ROOT
HETATM    1  O1  UNK     1      27.750  -8.586  35.209  1.00  0.00    -0.293 OA
HETATM    2  N1  UNK     1      31.927  -8.776  37.433  1.00  0.00    -0.362 N 
HETATM    3  C1  UNK     1      28.412  -9.234  38.716  1.00  0.00    -0.036 C 
HETATM    4  C2  UNK     1      29.916  -9.555  38.610  1.00  0.00     0.067 C 
HETATM    5  C3  UNK     1      27.727  -9.572  37.385  1.00  0.00     0.092 C 
HETATM    6  C4  UNK     1      30.567  -9.015  37.361  1.00  0.00     0.021 C 
HETATM    7  C5  UNK     1      29.886  -8.729  36.232  1.00  0.00     0.024 C 
HETATM    8  C6  UNK     1      30.599  -8.189  34.993  1.00  0.00     0.104 C 
HETATM    9  C7  UNK     1      28.403  -8.917  36.198  1.00  0.00     0.159 C 
HETATM   10  C8  UNK     1      28.195  -7.746  39.070  1.00  0.00     0.015 C 
HETATM   11  C9  UNK     1      27.790 -10.086  39.837  1.00  0.00     0.015 C 
HETATM   12  C10 UNK     1      32.049  -7.791  35.284  1.00  0.00     0.052 C 
HETATM   13  C11 UNK     1      32.652  -8.123  36.449  1.00  0.00     0.018 C 
HETATM   14  C13 UNK     1      34.086  -7.834  36.804  1.00  0.00     0.069 C 
HETATM   15  H12 UNK     1      32.403  -9.006  38.297  1.00  0.00     0.165 HD
ENDROOT
BRANCH   8  16
HETATM   16  C12 UNK     1      30.550  -9.196  33.872  1.00  0.00     0.029 A 
HETATM   17  C15 UNK     1      30.020  -8.766  32.554  1.00  0.00     0.194 A 
HETATM   18  O5  UNK     1      29.623  -7.626  32.352  1.00  0.00    -0.287 OA
HETATM   19  C17 UNK     1      29.995  -9.791  31.493  1.00  0.00     0.050 A 
HETATM   20  C18 UNK     1      30.461 -11.074  31.779  1.00  0.00     0.089 A 
HETATM   21  C19 UNK     1      29.514  -9.484  30.218  1.00  0.00     0.042 A 
HETATM   22  O2  UNK     1      30.945 -11.430  33.013  1.00  0.00    -0.321 OA
HETATM   23  C21 UNK     1      30.447 -12.059  30.791  1.00  0.00     0.040 A 
HETATM   24  C16 UNK     1      30.961 -10.466  33.990  1.00  0.00     0.154 A 
HETATM   25  C23 UNK     1      29.967 -11.755  29.516  1.00  0.00     0.026 A 
HETATM   26  C22 UNK     1      29.501 -10.472  29.231  1.00  0.00     0.035 A 
HETATM   27 Cl1  UNK     1      28.910 -10.104  27.656  1.00  0.00    -0.084 Cl
ENDBRANCH   8  16
BRANCH  12  28
HETATM   28  C14 UNK     1      32.732  -6.983  34.260  1.00  0.00     0.292 C 
HETATM   29  O4  UNK     1      33.471  -7.456  33.419  1.00  0.00    -0.259 OA
BRANCH  28  30
HETATM   30  O3  UNK     1      32.385  -5.685  34.440  1.00  0.00    -0.316 OA
BRANCH  30  31
HETATM   31  C20 UNK     1      33.460  -4.748  34.315  1.00  0.00     0.205 C 
BRANCH  31  32
HETATM   32  C24 UNK     1      33.828  -4.231  35.692  1.00  0.00     0.202 C 
BRANCH  32  33
HETATM   33  O6  UNK     1      32.783  -3.390  36.167  1.00  0.00    -0.349 OA
BRANCH  33  34
HETATM   34  C25 UNK     1      31.917  -3.936  37.077  1.00  0.00     0.068 A 
HETATM   35  C26 UNK     1      30.616  -3.453  37.166  1.00  0.00     0.037 A 
HETATM   36  C28 UNK     1      29.736  -4.009  38.094  1.00  0.00     0.003 A 
HETATM   37  C30 UNK     1      30.161  -5.042  38.927  1.00  0.00     0.000 A 
HETATM   38  C29 UNK     1      31.468  -5.522  38.833  1.00  0.00     0.003 A 
HETATM   39  C27 UNK     1      32.348  -4.966  37.905  1.00  0.00     0.037 A 
ENDBRANCH  33  34
ENDBRANCH  32  33
ENDBRANCH  31  32
ENDBRANCH  30  31
ENDBRANCH  28  30
ENDBRANCH  12  28
TORSDOF 7
ENDMDL
