MODEL 1
REMARK VINA RESULT:      -8.8      0.000      0.000
REMARK  6 active torsions:
REMARK  status: ('A' for Active; 'I' for Inactive)
REMARK    1  A    between atoms: C17_23  and  O2_3 
REMARK    2  A    between atoms: C22_28  and  O2_3 
REMARK    3  A    between atoms: C5_11  and  N1_5 
REMARK    4  A    between atoms: C6_12  and  N2_6 
REMARK    5  A    between atoms: C5_11  and  C7_13 
REMARK    6  A    between atoms: C6_12  and  C8_14 
ROOT
HETATM    1  C5  UNK     1      18.126   2.214  30.600  1.00  0.00     0.312 C 
ENDROOT
BRANCH   1   2
HETATM    2  N1  UNK     1      18.770   3.304  31.331  1.00  0.00     0.096 N 
HETATM    3  C1  UNK     1      19.015   4.451  30.450  1.00  0.00     0.303 C 
HETATM    4  C3  UNK     1      19.689   5.594  31.216  1.00  0.00     0.303 C 
HETATM    5  N2  UNK     1      18.878   5.999  32.371  1.00  0.00     0.096 N 
HETATM    6  C4  UNK     1      18.632   4.851  33.253  1.00  0.00     0.303 C 
HETATM    7  C2  UNK     1      17.957   3.709  32.485  1.00  0.00     0.303 C 
BRANCH   5   8
HETATM    8  C6  UNK     1      19.524   7.086  33.104  1.00  0.00     0.312 C 
BRANCH   8   9
HETATM    9  C8  UNK     1      18.567   8.212  33.394  1.00  0.00    -0.008 A 
HETATM   10  C12 UNK     1      18.988   9.389  34.013  1.00  0.00     0.042 A 
HETATM   11 Cl1  UNK     1      20.633   9.618  34.482  1.00  0.00    -0.084 Cl
HETATM   12  C18 UNK     1      18.072  10.410  34.266  1.00  0.00     0.024 A 
HETATM   13  C21 UNK     1      16.735  10.255  33.898  1.00  0.00     0.002 A 
HETATM   14  C19 UNK     1      16.315   9.079  33.279  1.00  0.00     0.001 A 
HETATM   15  C13 UNK     1      17.230   8.057  33.027  1.00  0.00     0.011 A 
ENDBRANCH   8   9
ENDBRANCH   5   8
ENDBRANCH   1   2
BRANCH   1  16
HETATM   16  C7  UNK     1      19.000   1.011  30.500  1.00  0.00    -0.011 A 
HETATM   17  C10 UNK     1      19.682   0.743  29.378  1.00  0.00     0.092 A 
HETATM   18  C15 UNK     1      20.557  -0.433  29.231  1.00  0.00     0.288 A 
HETATM   19  O1  UNK     1      20.653  -1.277  30.326  1.00  0.00    -0.275 OA
HETATM   20  O3  UNK     1      21.166  -0.646  28.189  1.00  0.00    -0.260 OA
HETATM   21  C11 UNK     1      19.947  -1.022  31.519  1.00  0.00     0.090 A 
HETATM   22  C9  UNK     1      19.122   0.096  31.643  1.00  0.00     0.009 A 
HETATM   23  C16 UNK     1      20.119  -1.940  32.557  1.00  0.00     0.041 A 
HETATM   24  C14 UNK     1      18.453   0.279  32.861  1.00  0.00     0.051 A 
HETATM   25  C17 UNK     1      18.616  -0.633  33.909  1.00  0.00     0.069 A 
HETATM   26  C20 UNK     1      19.448  -1.741  33.758  1.00  0.00     0.039 A 
BRANCH  25  27
HETATM   27  O2  UNK     1      17.957  -0.437  35.086  1.00  0.00    -0.351 OA
BRANCH  27  28
HETATM   28  C22 UNK     1      17.066   0.675  35.152  1.00  0.00     0.171 C 
HETATM   29  C23 UNK     1      15.666   0.168  35.427  1.00  0.00     0.034 C 
ENDBRANCH  27  28
ENDBRANCH  25  27
ENDBRANCH   1  16
TORSDOF 6
ENDMDL
MODEL 2
REMARK VINA RESULT:      -8.4     15.244     17.001
REMARK  6 active torsions:
REMARK  status: ('A' for Active; 'I' for Inactive)
REMARK    1  A    between atoms: C17_23  and  O2_3 
REMARK    2  A    between atoms: C22_28  and  O2_3 
REMARK    3  A    between atoms: C5_11  and  N1_5 
REMARK    4  A    between atoms: C6_12  and  N2_6 
REMARK    5  A    between atoms: C5_11  and  C7_13 
REMARK    6  A    between atoms: C6_12  and  C8_14 
ROOT
HETATM    1  C5  UNK     1      32.136  -6.599  35.259  1.00  0.00     0.312 C 
ENDROOT
BRANCH   1   2
HETATM    2  N1  UNK     1      31.828  -6.377  33.847  1.00  0.00     0.096 N 
HETATM    3  C1  UNK     1      32.281  -7.509  33.030  1.00  0.00     0.303 C 
HETATM    4  C3  UNK     1      31.957  -7.278  31.549  1.00  0.00     0.303 C 
HETATM    5  N2  UNK     1      30.519  -7.049  31.359  1.00  0.00     0.096 N 
HETATM    6  C4  UNK     1      30.066  -5.918  32.177  1.00  0.00     0.303 C 
HETATM    7  C2  UNK     1      30.390  -6.151  33.657  1.00  0.00     0.303 C 
BRANCH   5   8
HETATM    8  C6  UNK     1      30.213  -6.825  29.947  1.00  0.00     0.312 C 
BRANCH   8   9
HETATM    9  C8  UNK     1      29.659  -8.061  29.290  1.00  0.00    -0.008 A 
HETATM   10  C12 UNK     1      28.345  -8.478  29.505  1.00  0.00     0.042 A 
HETATM   11 Cl1  UNK     1      27.282  -7.596  30.540  1.00  0.00    -0.084 Cl
HETATM   12  C18 UNK     1      27.868  -9.630  28.878  1.00  0.00     0.024 A 
HETATM   13  C21 UNK     1      28.704 -10.363  28.035  1.00  0.00     0.002 A 
HETATM   14  C19 UNK     1      30.017  -9.945  27.821  1.00  0.00     0.001 A 
HETATM   15  C13 UNK     1      30.495  -8.795  28.448  1.00  0.00     0.011 A 
ENDBRANCH   8   9
ENDBRANCH   5   8
ENDBRANCH   1   2
BRANCH   1  16
HETATM   16  C7  UNK     1      31.604  -5.511  36.127  1.00  0.00    -0.011 A 
HETATM   17  C10 UNK     1      32.022  -4.245  35.984  1.00  0.00     0.092 A 
HETATM   18  C15 UNK     1      31.526  -3.138  36.819  1.00  0.00     0.288 A 
HETATM   19  O1  UNK     1      30.585  -3.459  37.785  1.00  0.00    -0.275 OA
HETATM   20  O3  UNK     1      31.931  -1.992  36.660  1.00  0.00    -0.260 OA
HETATM   21  C11 UNK     1      30.128  -4.781  37.959  1.00  0.00     0.090 A 
HETATM   22  C9  UNK     1      30.608  -5.820  37.161  1.00  0.00     0.009 A 
HETATM   23  C16 UNK     1      29.180  -4.988  38.963  1.00  0.00     0.041 A 
HETATM   24  C14 UNK     1      30.104  -7.107  37.397  1.00  0.00     0.051 A 
HETATM   25  C17 UNK     1      29.154  -7.329  38.400  1.00  0.00     0.069 A 
HETATM   26  C20 UNK     1      28.692  -6.272  39.181  1.00  0.00     0.039 A 
BRANCH  25  27
HETATM   27  O2  UNK     1      28.677  -8.587  38.614  1.00  0.00    -0.351 OA
BRANCH  27  28
HETATM   28  C22 UNK     1      27.461  -8.703  39.350  1.00  0.00     0.171 C 
HETATM   29  C23 UNK     1      27.439 -10.043  40.056  1.00  0.00     0.034 C 
ENDBRANCH  27  28
ENDBRANCH  25  27
ENDBRANCH   1  16
TORSDOF 6
ENDMDL
MODEL 3
REMARK VINA RESULT:      -8.1     14.509     17.522
REMARK  6 active torsions:
REMARK  status: ('A' for Active; 'I' for Inactive)
REMARK    1  A    between atoms: C17_23  and  O2_3 
REMARK    2  A    between atoms: C22_28  and  O2_3 
REMARK    3  A    between atoms: C5_11  and  N1_5 
REMARK    4  A    between atoms: C6_12  and  N2_6 
REMARK    5  A    between atoms: C5_11  and  C7_13 
REMARK    6  A    between atoms: C6_12  and  C8_14 
ROOT
HETATM    1  C5  UNK     1      29.240  -7.540  36.200  1.00  0.00     0.312 C 
ENDROOT
BRANCH   1   2
HETATM    2  N1  UNK     1      29.306  -7.085  34.813  1.00  0.00     0.096 N 
HETATM    3  C1  UNK     1      29.828  -8.143  33.940  1.00  0.00     0.303 C 
HETATM    4  C3  UNK     1      29.897  -7.667  32.485  1.00  0.00     0.303 C 
HETATM    5  N2  UNK     1      28.577  -7.222  32.019  1.00  0.00     0.096 N 
HETATM    6  C4  UNK     1      28.055  -6.164  32.892  1.00  0.00     0.303 C 
HETATM    7  C2  UNK     1      27.985  -6.642  34.346  1.00  0.00     0.303 C 
BRANCH   5   8
HETATM    8  C6  UNK     1      28.645  -6.764  30.632  1.00  0.00     0.312 C 
BRANCH   8   9
HETATM    9  C8  UNK     1      28.928  -7.897  29.681  1.00  0.00    -0.008 A 
HETATM   10  C12 UNK     1      30.132  -7.983  28.982  1.00  0.00     0.042 A 
HETATM   11 Cl1  UNK     1      31.365  -6.790  29.170  1.00  0.00    -0.084 Cl
HETATM   12  C18 UNK     1      30.357  -9.048  28.110  1.00  0.00     0.024 A 
HETATM   13  C21 UNK     1      29.379 -10.028  27.937  1.00  0.00     0.002 A 
HETATM   14  C19 UNK     1      28.176  -9.942  28.637  1.00  0.00     0.001 A 
HETATM   15  C13 UNK     1      27.950  -8.877  29.509  1.00  0.00     0.011 A 
ENDBRANCH   8   9
ENDBRANCH   5   8
ENDBRANCH   1   2
BRANCH   1  16
HETATM   16  C7  UNK     1      29.770  -6.523  37.151  1.00  0.00    -0.011 A 
HETATM   17  C10 UNK     1      28.944  -5.765  37.885  1.00  0.00     0.092 A 
HETATM   18  C15 UNK     1      29.421  -4.747  38.836  1.00  0.00     0.288 A 
HETATM   19  O1  UNK     1      30.794  -4.596  38.950  1.00  0.00    -0.275 OA
HETATM   20  O3  UNK     1      28.635  -4.071  39.491  1.00  0.00    -0.260 OA
HETATM   21  C11 UNK     1      31.688  -5.379  38.191  1.00  0.00     0.090 A 
HETATM   22  C9  UNK     1      31.220  -6.339  37.293  1.00  0.00     0.009 A 
HETATM   23  C16 UNK     1      33.049  -5.141  38.387  1.00  0.00     0.041 A 
HETATM   24  C14 UNK     1      32.173  -7.075  36.575  1.00  0.00     0.051 A 
HETATM   25  C17 UNK     1      33.541  -6.848  36.761  1.00  0.00     0.069 A 
HETATM   26  C20 UNK     1      33.978  -5.882  37.666  1.00  0.00     0.039 A 
BRANCH  25  27
HETATM   27  O2  UNK     1      34.450  -7.574  36.053  1.00  0.00    -0.351 OA
BRANCH  27  28
HETATM   28  C22 UNK     1      35.481  -6.848  35.385  1.00  0.00     0.171 C 
HETATM   29  C23 UNK     1      34.914  -6.244  34.117  1.00  0.00     0.034 C 
ENDBRANCH  27  28
ENDBRANCH  25  27
ENDBRANCH   1  16
TORSDOF 6
ENDMDL
MODEL 4
REMARK VINA RESULT:      -8.1     13.108     16.584
REMARK  6 active torsions:
REMARK  status: ('A' for Active; 'I' for Inactive)
REMARK    1  A    between atoms: C17_23  and  O2_3 
REMARK    2  A    between atoms: C22_28  and  O2_3 
REMARK    3  A    between atoms: C5_11  and  N1_5 
REMARK    4  A    between atoms: C6_12  and  N2_6 
REMARK    5  A    between atoms: C5_11  and  C7_13 
REMARK    6  A    between atoms: C6_12  and  C8_14 
ROOT
HETATM    1  C5  UNK     1      25.502  -8.965  37.502  1.00  0.00     0.312 C 
ENDROOT
BRANCH   1   2
HETATM    2  N1  UNK     1      26.885  -9.438  37.491  1.00  0.00     0.096 N 
HETATM    3  C1  UNK     1      27.684  -8.694  36.512  1.00  0.00     0.303 C 
HETATM    4  C3  UNK     1      29.135  -9.188  36.501  1.00  0.00     0.303 C 
HETATM    5  N2  UNK     1      29.733  -9.082  37.838  1.00  0.00     0.096 N 
HETATM    6  C4  UNK     1      28.933  -9.826  38.818  1.00  0.00     0.303 C 
HETATM    7  C2  UNK     1      27.483  -9.330  38.829  1.00  0.00     0.303 C 
BRANCH   5   8
HETATM    8  C6  UNK     1      31.115  -9.558  37.827  1.00  0.00     0.312 C 
BRANCH   8   9
HETATM    9  C8  UNK     1      32.073  -8.486  37.380  1.00  0.00    -0.008 A 
HETATM   10  C12 UNK     1      32.756  -8.574  36.166  1.00  0.00     0.042 A 
HETATM   11 Cl1  UNK     1      32.538  -9.922  35.110  1.00  0.00    -0.084 Cl
HETATM   12  C18 UNK     1      33.635  -7.561  35.786  1.00  0.00     0.024 A 
HETATM   13  C21 UNK     1      33.832  -6.459  36.618  1.00  0.00     0.002 A 
HETATM   14  C19 UNK     1      33.149  -6.371  37.831  1.00  0.00     0.001 A 
HETATM   15  C13 UNK     1      32.270  -7.384  38.212  1.00  0.00     0.011 A 
ENDBRANCH   8   9
ENDBRANCH   5   8
ENDBRANCH   1   2
BRANCH   1  16
HETATM   16  C7  UNK     1      24.591  -9.878  36.756  1.00  0.00    -0.011 A 
HETATM   17  C10 UNK     1      25.018 -11.064  36.303  1.00  0.00     0.092 A 
HETATM   18  C15 UNK     1      24.154 -11.998  35.560  1.00  0.00     0.288 A 
HETATM   19  O1  UNK     1      22.846 -11.597  35.341  1.00  0.00    -0.275 OA
HETATM   20  O3  UNK     1      24.580 -13.076  35.160  1.00  0.00    -0.260 OA
HETATM   21  C11 UNK     1      22.368 -10.354  35.805  1.00  0.00     0.090 A 
HETATM   22  C9  UNK     1      23.199  -9.479  36.507  1.00  0.00     0.009 A 
HETATM   23  C16 UNK     1      21.033 -10.054  35.526  1.00  0.00     0.041 A 
HETATM   24  C14 UNK     1      22.649  -8.263  36.934  1.00  0.00     0.051 A 
HETATM   25  C17 UNK     1      21.313  -7.948  36.661  1.00  0.00     0.069 A 
HETATM   26  C20 UNK     1      20.506  -8.842  35.959  1.00  0.00     0.039 A 
BRANCH  25  27
HETATM   27  O2  UNK     1      20.797  -6.760  37.085  1.00  0.00    -0.351 OA
BRANCH  27  28
HETATM   28  C22 UNK     1      19.641  -6.816  37.919  1.00  0.00     0.171 C 
HETATM   29  C23 UNK     1      20.082  -6.909  39.365  1.00  0.00     0.034 C 
ENDBRANCH  27  28
ENDBRANCH  25  27
ENDBRANCH   1  16
TORSDOF 6
ENDMDL
MODEL 5
REMARK VINA RESULT:      -8.1     23.208     25.367
REMARK  6 active torsions:
REMARK  status: ('A' for Active; 'I' for Inactive)
REMARK    1  A    between atoms: C17_23  and  O2_3 
REMARK    2  A    between atoms: C22_28  and  O2_3 
REMARK    3  A    between atoms: C5_11  and  N1_5 
REMARK    4  A    between atoms: C6_12  and  N2_6 
REMARK    5  A    between atoms: C5_11  and  C7_13 
REMARK    6  A    between atoms: C6_12  and  C8_14 
ROOT
HETATM    1  C5  UNK     1      13.177   6.953   7.184  1.00  0.00     0.312 C 
ENDROOT
BRANCH   1   2
HETATM    2  N1  UNK     1      11.887   6.314   7.440  1.00  0.00     0.096 N 
HETATM    3  C1  UNK     1      11.445   6.561   8.817  1.00  0.00     0.303 C 
HETATM    4  C3  UNK     1      10.092   5.893   9.085  1.00  0.00     0.303 C 
HETATM    5  N2  UNK     1       9.080   6.361   8.129  1.00  0.00     0.096 N 
HETATM    6  C4  UNK     1       9.523   6.114   6.751  1.00  0.00     0.303 C 
HETATM    7  C2  UNK     1      10.875   6.784   6.484  1.00  0.00     0.303 C 
BRANCH   5   8
HETATM    8  C6  UNK     1       7.792   5.719   8.383  1.00  0.00     0.312 C 
BRANCH   8   9
HETATM    9  C8  UNK     1       7.205   6.144   9.703  1.00  0.00    -0.008 A 
HETATM   10  C12 UNK     1       6.759   5.212  10.640  1.00  0.00     0.042 A 
HETATM   11 Cl1  UNK     1       6.856   3.516  10.335  1.00  0.00    -0.084 Cl
HETATM   12  C18 UNK     1       6.221   5.645  11.852  1.00  0.00     0.024 A 
HETATM   13  C21 UNK     1       6.129   7.010  12.127  1.00  0.00     0.002 A 
HETATM   14  C19 UNK     1       6.575   7.941  11.190  1.00  0.00     0.001 A 
HETATM   15  C13 UNK     1       7.113   7.509   9.978  1.00  0.00     0.011 A 
ENDBRANCH   8   9
ENDBRANCH   5   8
ENDBRANCH   1   2
BRANCH   1  16
HETATM   16  C7  UNK     1      14.163   6.681   8.267  1.00  0.00    -0.011 A 
HETATM   17  C10 UNK     1      14.583   5.435   8.525  1.00  0.00     0.092 A 
HETATM   18  C15 UNK     1      15.555   5.117   9.585  1.00  0.00     0.288 A 
HETATM   19  O1  UNK     1      16.035   6.184  10.329  1.00  0.00    -0.275 OA
HETATM   20  O3  UNK     1      15.915   3.964   9.792  1.00  0.00    -0.260 OA
HETATM   21  C11 UNK     1      15.612   7.506  10.082  1.00  0.00     0.090 A 
HETATM   22  C9  UNK     1      14.690   7.790   9.074  1.00  0.00     0.009 A 
HETATM   23  C16 UNK     1      16.162   8.500  10.893  1.00  0.00     0.041 A 
HETATM   24  C14 UNK     1      14.319   9.130   8.892  1.00  0.00     0.051 A 
HETATM   25  C17 UNK     1      14.861  10.137   9.698  1.00  0.00     0.069 A 
HETATM   26  C20 UNK     1      15.781   9.823  10.696  1.00  0.00     0.039 A 
BRANCH  25  27
HETATM   27  O2  UNK     1      14.488  11.433   9.505  1.00  0.00    -0.351 OA
BRANCH  27  28
HETATM   28  C22 UNK     1      15.515  12.359   9.153  1.00  0.00     0.171 C 
HETATM   29  C23 UNK     1      15.894  12.144   7.702  1.00  0.00     0.034 C 
ENDBRANCH  27  28
ENDBRANCH  25  27
ENDBRANCH   1  16
TORSDOF 6
ENDMDL
MODEL 6
REMARK VINA RESULT:      -8.1     15.061     16.560
REMARK  6 active torsions:
REMARK  status: ('A' for Active; 'I' for Inactive)
REMARK    1  A    between atoms: C17_23  and  O2_3 
REMARK    2  A    between atoms: C22_28  and  O2_3 
REMARK    3  A    between atoms: C5_11  and  N1_5 
REMARK    4  A    between atoms: C6_12  and  N2_6 
REMARK    5  A    between atoms: C5_11  and  C7_13 
REMARK    6  A    between atoms: C6_12  and  C8_14 
ROOT
HETATM    1  C5  UNK     1      30.669  -6.720  36.199  1.00  0.00     0.312 C 
ENDROOT
BRANCH   1   2
HETATM    2  N1  UNK     1      29.981  -6.465  34.935  1.00  0.00     0.096 N 
HETATM    3  C1  UNK     1      30.864  -5.772  33.990  1.00  0.00     0.303 C 
HETATM    4  C3  UNK     1      30.145  -5.506  32.663  1.00  0.00     0.303 C 
HETATM    5  N2  UNK     1      29.649  -6.758  32.078  1.00  0.00     0.096 N 
HETATM    6  C4  UNK     1      28.767  -7.453  33.023  1.00  0.00     0.303 C 
HETATM    7  C2  UNK     1      29.488  -7.719  34.349  1.00  0.00     0.303 C 
BRANCH   5   8
HETATM    8  C6  UNK     1      28.960  -6.503  30.815  1.00  0.00     0.312 C 
BRANCH   8   9
HETATM    9  C8  UNK     1      29.076  -7.667  29.867  1.00  0.00    -0.008 A 
HETATM   10  C12 UNK     1      30.223  -7.876  29.101  1.00  0.00     0.042 A 
HETATM   11 Cl1  UNK     1      31.574  -6.806  29.199  1.00  0.00    -0.084 Cl
HETATM   12  C18 UNK     1      30.293  -8.966  28.234  1.00  0.00     0.024 A 
HETATM   13  C21 UNK     1      29.218  -9.849  28.134  1.00  0.00     0.002 A 
HETATM   14  C19 UNK     1      28.071  -9.640  28.900  1.00  0.00     0.001 A 
HETATM   15  C13 UNK     1      28.000  -8.550  29.767  1.00  0.00     0.011 A 
ENDBRANCH   8   9
ENDBRANCH   5   8
ENDBRANCH   1   2
BRANCH   1  16
HETATM   16  C7  UNK     1      29.852  -6.309  37.375  1.00  0.00    -0.011 A 
HETATM   17  C10 UNK     1      30.104  -5.167  38.029  1.00  0.00     0.092 A 
HETATM   18  C15 UNK     1      29.325  -4.720  39.196  1.00  0.00     0.288 A 
HETATM   19  O1  UNK     1      28.290  -5.546  39.607  1.00  0.00    -0.275 OA
HETATM   20  O3  UNK     1      29.585  -3.668  39.770  1.00  0.00    -0.260 OA
HETATM   21  C11 UNK     1      28.001  -6.754  38.940  1.00  0.00     0.090 A 
HETATM   22  C9  UNK     1      28.749  -7.164  37.836  1.00  0.00     0.009 A 
HETATM   23  C16 UNK     1      26.937  -7.506  39.442  1.00  0.00     0.041 A 
HETATM   24  C14 UNK     1      28.399  -8.378  37.229  1.00  0.00     0.051 A 
HETATM   25  C17 UNK     1      27.336  -9.143  37.720  1.00  0.00     0.069 A 
HETATM   26  C20 UNK     1      26.606  -8.707  38.825  1.00  0.00     0.039 A 
BRANCH  25  27
HETATM   27  O2  UNK     1      27.012 -10.320  37.116  1.00  0.00    -0.351 OA
BRANCH  27  28
HETATM   28  C22 UNK     1      25.723 -10.404  36.509  1.00  0.00     0.171 C 
HETATM   29  C23 UNK     1      25.324 -11.861  36.403  1.00  0.00     0.034 C 
ENDBRANCH  27  28
ENDBRANCH  25  27
ENDBRANCH   1  16
TORSDOF 6
ENDMDL
MODEL 7
REMARK VINA RESULT:      -7.9     14.415     16.757
REMARK  6 active torsions:
REMARK  status: ('A' for Active; 'I' for Inactive)
REMARK    1  A    between atoms: C17_23  and  O2_3 
REMARK    2  A    between atoms: C22_28  and  O2_3 
REMARK    3  A    between atoms: C5_11  and  N1_5 
REMARK    4  A    between atoms: C6_12  and  N2_6 
REMARK    5  A    between atoms: C5_11  and  C7_13 
REMARK    6  A    between atoms: C6_12  and  C8_14 
ROOT
HETATM    1  C5  UNK     1      29.086  -8.257  36.043  1.00  0.00     0.312 C 
ENDROOT
BRANCH   1   2
HETATM    2  N1  UNK     1      28.506  -8.119  34.708  1.00  0.00     0.096 N 
HETATM    3  C1  UNK     1      28.601  -6.733  34.238  1.00  0.00     0.303 C 
HETATM    4  C3  UNK     1      27.995  -6.587  32.838  1.00  0.00     0.303 C 
HETATM    5  N2  UNK     1      28.648  -7.498  31.889  1.00  0.00     0.096 N 
HETATM    6  C4  UNK     1      28.553  -8.885  32.360  1.00  0.00     0.303 C 
HETATM    7  C2  UNK     1      29.161  -9.029  33.759  1.00  0.00     0.303 C 
BRANCH   5   8
HETATM    8  C6  UNK     1      28.066  -7.362  30.555  1.00  0.00     0.312 C 
BRANCH   8   9
HETATM    9  C8  UNK     1      28.745  -8.257  29.553  1.00  0.00    -0.008 A 
HETATM   10  C12 UNK     1      30.043  -8.006  29.108  1.00  0.00     0.042 A 
HETATM   11 Cl1  UNK     1      30.942  -6.650  29.685  1.00  0.00    -0.084 Cl
HETATM   12  C18 UNK     1      30.639  -8.859  28.179  1.00  0.00     0.024 A 
HETATM   13  C21 UNK     1      29.937  -9.963  27.695  1.00  0.00     0.002 A 
HETATM   14  C19 UNK     1      28.639 -10.214  28.140  1.00  0.00     0.001 A 
HETATM   15  C13 UNK     1      28.043  -9.361  29.069  1.00  0.00     0.011 A 
ENDBRANCH   8   9
ENDBRANCH   5   8
ENDBRANCH   1   2
BRANCH   1  16
HETATM   16  C7  UNK     1      28.391  -7.405  37.048  1.00  0.00    -0.011 A 
HETATM   17  C10 UNK     1      27.147  -7.691  37.458  1.00  0.00     0.092 A 
HETATM   18  C15 UNK     1      26.421  -6.877  38.448  1.00  0.00     0.288 A 
HETATM   19  O1  UNK     1      27.087  -5.774  38.957  1.00  0.00    -0.275 OA
HETATM   20  O3  UNK     1      25.283  -7.170  38.798  1.00  0.00    -0.260 OA
HETATM   21  C11 UNK     1      28.395  -5.448  38.545  1.00  0.00     0.090 A 
HETATM   22  C9  UNK     1      29.070  -6.227  37.606  1.00  0.00     0.009 A 
HETATM   23  C16 UNK     1      28.968  -4.314  39.124  1.00  0.00     0.041 A 
HETATM   24  C14 UNK     1      30.368  -5.836  37.248  1.00  0.00     0.051 A 
HETATM   25  C17 UNK     1      30.955  -4.701  37.820  1.00  0.00     0.069 A 
HETATM   26  C20 UNK     1      30.257  -3.942  38.757  1.00  0.00     0.039 A 
BRANCH  25  27
HETATM   27  O2  UNK     1      32.217  -4.338  37.459  1.00  0.00    -0.351 OA
BRANCH  27  28
HETATM   28  C22 UNK     1      32.368  -3.678  36.203  1.00  0.00     0.171 C 
HETATM   29  C23 UNK     1      33.295  -4.494  35.327  1.00  0.00     0.034 C 
ENDBRANCH  27  28
ENDBRANCH  25  27
ENDBRANCH   1  16
TORSDOF 6
ENDMDL
MODEL 8
REMARK VINA RESULT:      -7.9     13.134     15.832
REMARK  6 active torsions:
REMARK  status: ('A' for Active; 'I' for Inactive)
REMARK    1  A    between atoms: C17_23  and  O2_3 
REMARK    2  A    between atoms: C22_28  and  O2_3 
REMARK    3  A    between atoms: C5_11  and  N1_5 
REMARK    4  A    between atoms: C6_12  and  N2_6 
REMARK    5  A    between atoms: C5_11  and  C7_13 
REMARK    6  A    between atoms: C6_12  and  C8_14 
ROOT
HETATM    1  C5  UNK     1      25.932  -9.617  37.706  1.00  0.00     0.312 C 
ENDROOT
BRANCH   1   2
HETATM    2  N1  UNK     1      26.854  -8.810  36.910  1.00  0.00     0.096 N 
HETATM    3  C1  UNK     1      27.224  -7.583  37.624  1.00  0.00     0.303 C 
HETATM    4  C3  UNK     1      28.192  -6.736  36.790  1.00  0.00     0.303 C 
HETATM    5  N2  UNK     1      29.391  -7.508  36.439  1.00  0.00     0.096 N 
HETATM    6  C4  UNK     1      29.021  -8.736  35.726  1.00  0.00     0.303 C 
HETATM    7  C2  UNK     1      28.054  -9.582  36.561  1.00  0.00     0.303 C 
BRANCH   5   8
HETATM    8  C6  UNK     1      30.312  -6.700  35.640  1.00  0.00     0.312 C 
BRANCH   8   9
HETATM    9  C8  UNK     1      31.645  -6.534  36.319  1.00  0.00    -0.008 A 
HETATM   10  C12 UNK     1      31.925  -5.429  37.124  1.00  0.00     0.042 A 
HETATM   11 Cl1  UNK     1      30.753  -4.189  37.383  1.00  0.00    -0.084 Cl
HETATM   12  C18 UNK     1      33.172  -5.311  37.736  1.00  0.00     0.024 A 
HETATM   13  C21 UNK     1      34.140  -6.297  37.546  1.00  0.00     0.002 A 
HETATM   14  C19 UNK     1      33.860  -7.402  36.742  1.00  0.00     0.001 A 
HETATM   15  C13 UNK     1      32.613  -7.521  36.129  1.00  0.00     0.011 A 
ENDBRANCH   8   9
ENDBRANCH   5   8
ENDBRANCH   1   2
BRANCH   1  16
HETATM   16  C7  UNK     1      24.924 -10.317  36.860  1.00  0.00    -0.011 A 
HETATM   17  C10 UNK     1      25.191 -11.510  36.309  1.00  0.00     0.092 A 
HETATM   18  C15 UNK     1      24.228 -12.238  35.466  1.00  0.00     0.288 A 
HETATM   19  O1  UNK     1      22.999 -11.631  35.257  1.00  0.00    -0.275 OA
HETATM   20  O3  UNK     1      24.507 -13.328  34.978  1.00  0.00    -0.260 OA
HETATM   21  C11 UNK     1      22.690 -10.378  35.823  1.00  0.00     0.090 A 
HETATM   22  C9  UNK     1      23.614  -9.699  36.619  1.00  0.00     0.009 A 
HETATM   23  C16 UNK     1      21.423  -9.862  35.544  1.00  0.00     0.041 A 
HETATM   24  C14 UNK     1      23.230  -8.457  37.144  1.00  0.00     0.051 A 
HETATM   25  C17 UNK     1      21.964  -7.927  36.873  1.00  0.00     0.069 A 
HETATM   26  C20 UNK     1      21.062  -8.628  36.075  1.00  0.00     0.039 A 
BRANCH  25  27
HETATM   27  O2  UNK     1      21.610  -6.718  37.393  1.00  0.00    -0.351 OA
BRANCH  27  28
HETATM   28  C22 UNK     1      21.599  -6.602  38.815  1.00  0.00     0.171 C 
HETATM   29  C23 UNK     1      20.237  -7.013  39.331  1.00  0.00     0.034 C 
ENDBRANCH  27  28
ENDBRANCH  25  27
ENDBRANCH   1  16
TORSDOF 6
ENDMDL
MODEL 9
REMARK VINA RESULT:      -7.9      6.728     12.220
REMARK  6 active torsions:
REMARK  status: ('A' for Active; 'I' for Inactive)
REMARK    1  A    between atoms: C17_23  and  O2_3 
REMARK    2  A    between atoms: C22_28  and  O2_3 
REMARK    3  A    between atoms: C5_11  and  N1_5 
REMARK    4  A    between atoms: C6_12  and  N2_6 
REMARK    5  A    between atoms: C5_11  and  C7_13 
REMARK    6  A    between atoms: C6_12  and  C8_14 
ROOT
HETATM    1  C5  UNK     1      19.498  -3.045  35.308  1.00  0.00     0.312 C 
ENDROOT
BRANCH   1   2
HETATM    2  N1  UNK     1      19.717  -3.963  36.424  1.00  0.00     0.096 N 
HETATM    3  C1  UNK     1      19.290  -5.322  36.073  1.00  0.00     0.303 C 
HETATM    4  C3  UNK     1      19.521  -6.286  37.242  1.00  0.00     0.303 C 
HETATM    5  N2  UNK     1      20.931  -6.280  37.653  1.00  0.00     0.096 N 
HETATM    6  C4  UNK     1      21.358  -4.921  38.003  1.00  0.00     0.303 C 
HETATM    7  C2  UNK     1      21.128  -3.958  36.832  1.00  0.00     0.303 C 
BRANCH   5   8
HETATM    8  C6  UNK     1      21.149  -7.197  38.771  1.00  0.00     0.312 C 
BRANCH   8   9
HETATM    9  C8  UNK     1      20.752  -8.608  38.425  1.00  0.00    -0.008 A 
HETATM   10  C12 UNK     1      21.504  -9.384  37.542  1.00  0.00     0.042 A 
HETATM   11 Cl1  UNK     1      22.933  -8.766  36.797  1.00  0.00    -0.084 Cl
HETATM   12  C18 UNK     1      21.104 -10.687  37.247  1.00  0.00     0.024 A 
HETATM   13  C21 UNK     1      19.954 -11.215  37.834  1.00  0.00     0.002 A 
HETATM   14  C19 UNK     1      19.203 -10.439  38.716  1.00  0.00     0.001 A 
HETATM   15  C13 UNK     1      19.602  -9.135  39.012  1.00  0.00     0.011 A 
ENDBRANCH   8   9
ENDBRANCH   5   8
ENDBRANCH   1   2
BRANCH   1  16
HETATM   16  C7  UNK     1      18.981  -1.723  35.761  1.00  0.00    -0.011 A 
HETATM   17  C10 UNK     1      18.721  -1.488  37.055  1.00  0.00     0.092 A 
HETATM   18  C15 UNK     1      18.209  -0.199  37.550  1.00  0.00     0.288 A 
HETATM   19  O1  UNK     1      17.998   0.792  36.604  1.00  0.00    -0.275 OA
HETATM   20  O3  UNK     1      17.983  -0.020  38.742  1.00  0.00    -0.260 OA
HETATM   21  C11 UNK     1      18.261   0.574  35.236  1.00  0.00     0.090 A 
HETATM   22  C9  UNK     1      18.745  -0.653  34.782  1.00  0.00     0.009 A 
HETATM   23  C16 UNK     1      18.011   1.643  34.373  1.00  0.00     0.041 A 
HETATM   24  C14 UNK     1      18.981  -0.791  33.407  1.00  0.00     0.051 A 
HETATM   25  C17 UNK     1      18.734   0.272  32.530  1.00  0.00     0.069 A 
HETATM   26  C20 UNK     1      18.251   1.486  33.012  1.00  0.00     0.039 A 
BRANCH  25  27
HETATM   27  O2  UNK     1      18.969   0.117  31.197  1.00  0.00    -0.351 OA
BRANCH  27  28
HETATM   28  C22 UNK     1      20.332   0.096  30.777  1.00  0.00     0.171 C 
HETATM   29  C23 UNK     1      20.388  -0.259  29.306  1.00  0.00     0.034 C 
ENDBRANCH  27  28
ENDBRANCH  25  27
ENDBRANCH   1  16
TORSDOF 6
ENDMDL
MODEL 10
REMARK VINA RESULT:      -7.9     14.055     17.121
REMARK  6 active torsions:
REMARK  status: ('A' for Active; 'I' for Inactive)
REMARK    1  A    between atoms: C17_23  and  O2_3 
REMARK    2  A    between atoms: C22_28  and  O2_3 
REMARK    3  A    between atoms: C5_11  and  N1_5 
REMARK    4  A    between atoms: C6_12  and  N2_6 
REMARK    5  A    between atoms: C5_11  and  C7_13 
REMARK    6  A    between atoms: C6_12  and  C8_14 
ROOT
HETATM    1  C5  UNK     1      31.540  -6.445  31.883  1.00  0.00     0.312 C 
ENDROOT
BRANCH   1   2
HETATM    2  N1  UNK     1      31.774  -6.914  33.248  1.00  0.00     0.096 N 
HETATM    3  C1  UNK     1      31.798  -5.789  34.189  1.00  0.00     0.303 C 
HETATM    4  C3  UNK     1      32.042  -6.280  35.621  1.00  0.00     0.303 C 
HETATM    5  N2  UNK     1      31.023  -7.260  36.017  1.00  0.00     0.096 N 
HETATM    6  C4  UNK     1      30.998  -8.385  35.075  1.00  0.00     0.303 C 
HETATM    7  C2  UNK     1      30.753  -7.893  33.644  1.00  0.00     0.303 C 
BRANCH   5   8
HETATM    8  C6  UNK     1      31.259  -7.731  37.381  1.00  0.00     0.312 C 
BRANCH   8   9
HETATM    9  C8  UNK     1      29.975  -7.881  38.153  1.00  0.00    -0.008 A 
HETATM   10  C12 UNK     1      29.344  -6.787  38.745  1.00  0.00     0.042 A 
HETATM   11 Cl1  UNK     1      30.006  -5.198  38.627  1.00  0.00    -0.084 Cl
HETATM   12  C18 UNK     1      28.155  -6.967  39.452  1.00  0.00     0.024 A 
HETATM   13  C21 UNK     1      27.595  -8.240  39.565  1.00  0.00     0.002 A 
HETATM   14  C19 UNK     1      28.226  -9.333  38.971  1.00  0.00     0.001 A 
HETATM   15  C13 UNK     1      29.416  -9.154  38.265  1.00  0.00     0.011 A 
ENDBRANCH   8   9
ENDBRANCH   5   8
ENDBRANCH   1   2
BRANCH   1  16
HETATM   16  C7  UNK     1      32.041  -7.410  30.864  1.00  0.00    -0.011 A 
HETATM   17  C10 UNK     1      33.354  -7.604  30.680  1.00  0.00     0.092 A 
HETATM   18  C15 UNK     1      33.895  -8.546  29.685  1.00  0.00     0.288 A 
HETATM   19  O1  UNK     1      32.972  -9.246  28.924  1.00  0.00    -0.275 OA
HETATM   20  O3  UNK     1      35.104  -8.697  29.545  1.00  0.00    -0.260 OA
HETATM   21  C11 UNK     1      31.585  -9.063  29.095  1.00  0.00     0.090 A 
HETATM   22  C9  UNK     1      31.087  -8.166  30.041  1.00  0.00     0.009 A 
HETATM   23  C16 UNK     1      30.749  -9.821  28.272  1.00  0.00     0.041 A 
HETATM   24  C14 UNK     1      29.695  -8.041  30.148  1.00  0.00     0.051 A 
HETATM   25  C17 UNK     1      28.845  -8.794  29.331  1.00  0.00     0.069 A 
HETATM   26  C20 UNK     1      29.370  -9.683  28.395  1.00  0.00     0.039 A 
BRANCH  25  27
HETATM   27  O2  UNK     1      27.495  -8.657  29.451  1.00  0.00    -0.351 OA
BRANCH  27  28
HETATM   28  C22 UNK     1      27.015  -7.924  30.577  1.00  0.00     0.171 C 
HETATM   29  C23 UNK     1      26.256  -6.710  30.086  1.00  0.00     0.034 C 
ENDBRANCH  27  28
ENDBRANCH  25  27
ENDBRANCH   1  16
TORSDOF 6
ENDMDL
