MODEL 1
REMARK VINA RESULT:      -8.0      0.000      0.000
REMARK  4 active torsions:
REMARK  status: ('A' for Active; 'I' for Inactive)
REMARK    1  A    between atoms: C7_12  and  O2_2 
REMARK    2  A    between atoms: C11_16  and  O4_4 
REMARK    3  A    between atoms: C15_20  and  O5_5 
REMARK    4  A    between atoms: C1_6  and  C5_10 
ROOT
HETATM    1  O1  UNK     1      18.157   4.110  34.354  1.00  0.00    -0.340 OA
HETATM    2  O3  UNK     1      18.301   2.076  30.794  1.00  0.00    -0.292 OA
HETATM    3  C1  UNK     1      18.710   4.725  33.181  1.00  0.00     0.169 C 
HETATM    4  C2  UNK     1      18.048   4.182  31.915  1.00  0.00     0.121 C 
HETATM    5  C3  UNK     1      18.317   1.994  33.154  1.00  0.00     0.077 A 
HETATM    6  C4  UNK     1      18.252   2.691  31.853  1.00  0.00     0.167 C 
HETATM    7  C6  UNK     1      18.243   2.742  34.332  1.00  0.00     0.089 A 
HETATM    8  C7  UNK     1      18.407   0.601  33.208  1.00  0.00     0.087 A 
HETATM    9  C8  UNK     1      18.226   2.093  35.567  1.00  0.00     0.074 A 
HETATM   10  C11 UNK     1      18.313   0.700  35.623  1.00  0.00     0.073 A 
HETATM   11  C12 UNK     1      18.408  -0.042  34.446  1.00  0.00     0.074 A 
ENDROOT
BRANCH   3  12
HETATM   12  C5  UNK     1      18.528   6.224  33.293  1.00  0.00    -0.028 A 
HETATM   13  C10 UNK     1      17.472   6.848  32.628  1.00  0.00     0.012 A 
HETATM   14  C14 UNK     1      17.304   8.229  32.731  1.00  0.00     0.037 A 
HETATM   15  C15 UNK     1      18.191   8.984  33.500  1.00  0.00     0.065 A 
HETATM   16  C13 UNK     1      19.246   8.359  34.163  1.00  0.00     0.037 A 
HETATM   17  C9  UNK     1      19.414   6.978  34.060  1.00  0.00     0.012 A 
BRANCH  15  18
HETATM   18  O5  UNK     1      18.027  10.331  33.601  1.00  0.00    -0.361 OA
HETATM   19  H16 UNK     1      18.097  10.725  32.713  1.00  0.00     0.217 HD
ENDBRANCH  15  18
ENDBRANCH   3  12
BRANCH   8  20
HETATM   20  O2  UNK     1      18.483  -0.175  32.090  1.00  0.00    -0.355 OA
HETATM   21  C16 UNK     1      19.261  -1.367  32.181  1.00  0.00     0.210 C 
ENDBRANCH   8  20
BRANCH  10  22
HETATM   22  O4  UNK     1      18.306   0.068  36.828  1.00  0.00    -0.356 OA
HETATM   23  C17 UNK     1      17.618   0.717  37.897  1.00  0.00     0.210 C 
ENDBRANCH  10  22
TORSDOF 4
ENDMDL
MODEL 2
REMARK VINA RESULT:      -7.9      1.799      2.124
REMARK  4 active torsions:
REMARK  status: ('A' for Active; 'I' for Inactive)
REMARK    1  A    between atoms: C7_12  and  O2_2 
REMARK    2  A    between atoms: C11_16  and  O4_4 
REMARK    3  A    between atoms: C15_20  and  O5_5 
REMARK    4  A    between atoms: C1_6  and  C5_10 
ROOT
HETATM    1  O1  UNK     1      17.936   2.858  32.929  1.00  0.00    -0.340 OA
HETATM    2  O3  UNK     1      19.414   1.227  29.467  1.00  0.00    -0.292 OA
HETATM    3  C1  UNK     1      18.624   3.674  31.970  1.00  0.00     0.169 C 
HETATM    4  C2  UNK     1      18.439   3.131  30.554  1.00  0.00     0.121 C 
HETATM    5  C3  UNK     1      18.845   0.934  31.739  1.00  0.00     0.077 A 
HETATM    6  C4  UNK     1      18.966   1.720  30.495  1.00  0.00     0.167 C 
HETATM    7  C6  UNK     1      18.315   1.541  32.880  1.00  0.00     0.089 A 
HETATM    8  C7  UNK     1      19.214  -0.413  31.764  1.00  0.00     0.087 A 
HETATM    9  C8  UNK     1      18.123   0.791  34.041  1.00  0.00     0.074 A 
HETATM   10  C11 UNK     1      18.489  -0.556  34.068  1.00  0.00     0.073 A 
HETATM   11  C12 UNK     1      19.038  -1.155  32.933  1.00  0.00     0.074 A 
ENDROOT
BRANCH   3  12
HETATM   12  C5  UNK     1      18.103   5.092  32.083  1.00  0.00    -0.028 A 
HETATM   13  C10 UNK     1      18.183   5.952  30.988  1.00  0.00     0.012 A 
HETATM   14  C14 UNK     1      17.702   7.257  31.092  1.00  0.00     0.037 A 
HETATM   15  C15 UNK     1      17.142   7.701  32.291  1.00  0.00     0.065 A 
HETATM   16  C13 UNK     1      17.063   6.839  33.384  1.00  0.00     0.037 A 
HETATM   17  C9  UNK     1      17.544   5.534  33.280  1.00  0.00     0.012 A 
BRANCH  15  18
HETATM   18  O5  UNK     1      16.673   8.974  32.392  1.00  0.00    -0.361 OA
HETATM   19  H16 UNK     1      17.401   9.557  32.672  1.00  0.00     0.217 HD
ENDBRANCH  15  18
ENDBRANCH   3  12
BRANCH   8  20
HETATM   20  O2  UNK     1      19.738  -1.053  30.681  1.00  0.00    -0.355 OA
HETATM   21  C16 UNK     1      20.447  -2.266  30.925  1.00  0.00     0.210 C 
ENDBRANCH   8  20
BRANCH  10  22
HETATM   22  O4  UNK     1      18.311  -1.285  35.203  1.00  0.00    -0.356 OA
HETATM   23  C17 UNK     1      19.486  -1.741  35.872  1.00  0.00     0.210 C 
ENDBRANCH  10  22
TORSDOF 4
ENDMDL
MODEL 3
REMARK VINA RESULT:      -7.7      4.278      5.739
REMARK  4 active torsions:
REMARK  status: ('A' for Active; 'I' for Inactive)
REMARK    1  A    between atoms: C7_12  and  O2_2 
REMARK    2  A    between atoms: C11_16  and  O4_4 
REMARK    3  A    between atoms: C15_20  and  O5_5 
REMARK    4  A    between atoms: C1_6  and  C5_10 
ROOT
HETATM    1  O1  UNK     1      18.488  -0.088  33.397  1.00  0.00    -0.340 OA
HETATM    2  O3  UNK     1      20.956  -3.366  33.372  1.00  0.00    -0.292 OA
HETATM    3  C1  UNK     1      19.525  -0.218  32.412  1.00  0.00     0.169 C 
HETATM    4  C2  UNK     1      19.804  -1.688  32.102  1.00  0.00     0.121 C 
HETATM    5  C3  UNK     1      19.613  -1.875  34.617  1.00  0.00     0.077 A 
HETATM    6  C4  UNK     1      20.216  -2.389  33.370  1.00  0.00     0.167 C 
HETATM    7  C6  UNK     1      18.765  -0.766  34.556  1.00  0.00     0.089 A 
HETATM    8  C7  UNK     1      19.852  -2.514  35.836  1.00  0.00     0.087 A 
HETATM    9  C8  UNK     1      18.127  -0.316  35.713  1.00  0.00     0.074 A 
HETATM   10  C11 UNK     1      18.363  -0.955  36.932  1.00  0.00     0.073 A 
HETATM   11  C12 UNK     1      19.227  -2.048  36.993  1.00  0.00     0.074 A 
ENDROOT
BRANCH   3  12
HETATM   12  C5  UNK     1      19.100   0.532  31.167  1.00  0.00    -0.028 A 
HETATM   13  C10 UNK     1      18.476   1.774  31.282  1.00  0.00     0.012 A 
HETATM   14  C14 UNK     1      18.085   2.464  30.135  1.00  0.00     0.037 A 
HETATM   15  C15 UNK     1      18.319   1.913  28.874  1.00  0.00     0.065 A 
HETATM   16  C13 UNK     1      18.943   0.671  28.762  1.00  0.00     0.037 A 
HETATM   17  C9  UNK     1      19.334  -0.020  29.909  1.00  0.00     0.012 A 
BRANCH  15  18
HETATM   18  O5  UNK     1      17.938   2.587  27.755  1.00  0.00    -0.361 OA
HETATM   19  H16 UNK     1      18.711   3.053  27.389  1.00  0.00     0.217 HD
ENDBRANCH  15  18
ENDBRANCH   3  12
BRANCH   8  20
HETATM   20  O2  UNK     1      20.672  -3.597  35.950  1.00  0.00    -0.355 OA
HETATM   21  C16 UNK     1      20.625  -4.318  37.180  1.00  0.00     0.210 C 
ENDBRANCH   8  20
BRANCH  10  22
HETATM   22  O4  UNK     1      17.749  -0.509  38.061  1.00  0.00    -0.356 OA
HETATM   23  C17 UNK     1      17.592   0.903  38.200  1.00  0.00     0.210 C 
ENDBRANCH  10  22
TORSDOF 4
ENDMDL
MODEL 4
REMARK VINA RESULT:      -7.5      1.768      3.842
REMARK  4 active torsions:
REMARK  status: ('A' for Active; 'I' for Inactive)
REMARK    1  A    between atoms: C7_12  and  O2_2 
REMARK    2  A    between atoms: C11_16  and  O4_4 
REMARK    3  A    between atoms: C15_20  and  O5_5 
REMARK    4  A    between atoms: C1_6  and  C5_10 
ROOT
HETATM    1  O1  UNK     1      18.394   4.647  31.630  1.00  0.00    -0.340 OA
HETATM    2  O3  UNK     1      18.445   1.940  34.712  1.00  0.00    -0.292 OA
HETATM    3  C1  UNK     1      17.705   4.922  32.859  1.00  0.00     0.169 C 
HETATM    4  C2  UNK     1      18.397   4.242  34.039  1.00  0.00     0.121 C 
HETATM    5  C3  UNK     1      18.533   2.333  32.386  1.00  0.00     0.077 A 
HETATM    6  C4  UNK     1      18.435   2.755  33.797  1.00  0.00     0.167 C 
HETATM    7  C6  UNK     1      18.530   3.305  31.382  1.00  0.00     0.089 A 
HETATM    8  C7  UNK     1      18.672   0.982  32.058  1.00  0.00     0.087 A 
HETATM    9  C8  UNK     1      18.699   2.929  30.049  1.00  0.00     0.074 A 
HETATM   10  C11 UNK     1      18.840   1.579  29.720  1.00  0.00     0.073 A 
HETATM   11  C12 UNK     1      18.821   0.609  30.722  1.00  0.00     0.074 A 
ENDROOT
BRANCH   3  12
HETATM   12  C5  UNK     1      17.646   6.423  33.051  1.00  0.00    -0.028 A 
HETATM   13  C10 UNK     1      18.731   7.095  33.614  1.00  0.00     0.012 A 
HETATM   14  C14 UNK     1      18.678   8.477  33.790  1.00  0.00     0.037 A 
HETATM   15  C15 UNK     1      17.540   9.187  33.404  1.00  0.00     0.065 A 
HETATM   16  C13 UNK     1      16.456   8.513  32.842  1.00  0.00     0.037 A 
HETATM   17  C9  UNK     1      16.510   7.131  32.665  1.00  0.00     0.012 A 
BRANCH  15  18
HETATM   18  O5  UNK     1      17.488  10.536  33.576  1.00  0.00    -0.361 OA
HETATM   19  H16 UNK     1      18.152  10.953  32.999  1.00  0.00     0.217 HD
ENDBRANCH  15  18
ENDBRANCH   3  12
BRANCH   8  20
HETATM   20  O2  UNK     1      18.679  -0.005  32.997  1.00  0.00    -0.355 OA
HETATM   21  C16 UNK     1      19.015  -1.319  32.553  1.00  0.00     0.210 C 
ENDBRANCH   8  20
BRANCH  10  22
HETATM   22  O4  UNK     1      18.995   1.211  28.419  1.00  0.00    -0.356 OA
HETATM   23  C17 UNK     1      19.080  -0.187  28.146  1.00  0.00     0.210 C 
ENDBRANCH  10  22
TORSDOF 4
ENDMDL
MODEL 5
REMARK VINA RESULT:      -7.5      2.653      7.687
REMARK  4 active torsions:
REMARK  status: ('A' for Active; 'I' for Inactive)
REMARK    1  A    between atoms: C7_12  and  O2_2 
REMARK    2  A    between atoms: C11_16  and  O4_4 
REMARK    3  A    between atoms: C15_20  and  O5_5 
REMARK    4  A    between atoms: C1_6  and  C5_10 
ROOT
HETATM    1  O1  UNK     1      17.030   5.853  32.341  1.00  0.00    -0.340 OA
HETATM    2  O3  UNK     1      20.181   8.062  33.764  1.00  0.00    -0.292 OA
HETATM    3  C1  UNK     1      18.367   5.602  31.883  1.00  0.00     0.169 C 
HETATM    4  C2  UNK     1      19.390   5.942  32.966  1.00  0.00     0.121 C 
HETATM    5  C3  UNK     1      17.881   7.953  33.244  1.00  0.00     0.077 A 
HETATM    6  C4  UNK     1      19.244   7.394  33.342  1.00  0.00     0.167 C 
HETATM    7  C6  UNK     1      16.845   7.143  32.770  1.00  0.00     0.089 A 
HETATM    8  C7  UNK     1      17.619   9.260  33.661  1.00  0.00     0.087 A 
HETATM    9  C8  UNK     1      15.538   7.631  32.744  1.00  0.00     0.074 A 
HETATM   10  C11 UNK     1      15.274   8.936  33.162  1.00  0.00     0.073 A 
HETATM   11  C12 UNK     1      16.313   9.750  33.615  1.00  0.00     0.074 A 
ENDROOT
BRANCH   3  12
HETATM   12  C5  UNK     1      18.468   4.147  31.474  1.00  0.00    -0.028 A 
HETATM   13  C10 UNK     1      18.744   3.816  30.147  1.00  0.00     0.012 A 
HETATM   14  C14 UNK     1      18.837   2.477  29.770  1.00  0.00     0.037 A 
HETATM   15  C15 UNK     1      18.656   1.470  30.719  1.00  0.00     0.065 A 
HETATM   16  C13 UNK     1      18.381   1.803  32.045  1.00  0.00     0.037 A 
HETATM   17  C9  UNK     1      18.287   3.143  32.422  1.00  0.00     0.012 A 
BRANCH  15  18
HETATM   18  O5  UNK     1      18.748   0.163  30.351  1.00  0.00    -0.361 OA
HETATM   19  H16 UNK     1      19.378   0.087  29.612  1.00  0.00     0.217 HD
ENDBRANCH  15  18
ENDBRANCH   3  12
BRANCH   8  20
HETATM   20  O2  UNK     1      18.591  10.091  34.129  1.00  0.00    -0.355 OA
HETATM   21  C16 UNK     1      18.335  11.492  34.059  1.00  0.00     0.210 C 
ENDBRANCH   8  20
BRANCH  10  22
HETATM   22  O4  UNK     1      14.001   9.415  33.127  1.00  0.00    -0.356 OA
HETATM   23  C17 UNK     1      13.760  10.666  33.771  1.00  0.00     0.210 C 
ENDBRANCH  10  22
TORSDOF 4
ENDMDL
MODEL 6
REMARK VINA RESULT:      -7.5      3.319      7.304
REMARK  4 active torsions:
REMARK  status: ('A' for Active; 'I' for Inactive)
REMARK    1  A    between atoms: C7_12  and  O2_2 
REMARK    2  A    between atoms: C11_16  and  O4_4 
REMARK    3  A    between atoms: C15_20  and  O5_5 
REMARK    4  A    between atoms: C1_6  and  C5_10 
ROOT
HETATM    1  O1  UNK     1      18.944   0.545  33.016  1.00  0.00    -0.340 OA
HETATM    2  O3  UNK     1      20.154  -2.136  30.157  1.00  0.00    -0.292 OA
HETATM    3  C1  UNK     1      18.733  -0.863  33.196  1.00  0.00     0.169 C 
HETATM    4  C2  UNK     1      19.816  -1.675  32.487  1.00  0.00     0.121 C 
HETATM    5  C3  UNK     1      19.396   0.039  30.674  1.00  0.00     0.077 A 
HETATM    6  C4  UNK     1      19.799  -1.340  31.018  1.00  0.00     0.167 C 
HETATM    7  C6  UNK     1      19.012   0.911  31.696  1.00  0.00     0.089 A 
HETATM    8  C7  UNK     1      19.439   0.480  29.350  1.00  0.00     0.087 A 
HETATM    9  C8  UNK     1      18.703   2.238  31.397  1.00  0.00     0.074 A 
HETATM   10  C11 UNK     1      18.748   2.682  30.074  1.00  0.00     0.073 A 
HETATM   11  C12 UNK     1      19.110   1.804  29.053  1.00  0.00     0.074 A 
ENDROOT
BRANCH   3  12
HETATM   12  C5  UNK     1      18.713  -1.160  34.681  1.00  0.00    -0.028 A 
HETATM   13  C10 UNK     1      19.676  -2.003  35.235  1.00  0.00     0.012 A 
HETATM   14  C14 UNK     1      19.658  -2.276  36.603  1.00  0.00     0.037 A 
HETATM   15  C15 UNK     1      18.678  -1.705  37.415  1.00  0.00     0.065 A 
HETATM   16  C13 UNK     1      17.716  -0.862  36.860  1.00  0.00     0.037 A 
HETATM   17  C9  UNK     1      17.734  -0.589  35.492  1.00  0.00     0.012 A 
BRANCH  15  18
HETATM   18  O5  UNK     1      18.660  -1.971  38.750  1.00  0.00    -0.361 OA
HETATM   19  H16 UNK     1      18.545  -2.929  38.879  1.00  0.00     0.217 HD
ENDBRANCH  15  18
ENDBRANCH   3  12
BRANCH   8  20
HETATM   20  O2  UNK     1      19.803  -0.329  28.316  1.00  0.00    -0.355 OA
HETATM   21  C16 UNK     1      18.781  -0.703  27.394  1.00  0.00     0.210 C 
ENDBRANCH   8  20
BRANCH  10  22
HETATM   22  O4  UNK     1      18.436   3.974  29.782  1.00  0.00    -0.356 OA
HETATM   23  C17 UNK     1      19.286   4.985  30.324  1.00  0.00     0.210 C 
ENDBRANCH  10  22
TORSDOF 4
ENDMDL
MODEL 7
REMARK VINA RESULT:      -7.5      1.631      1.991
REMARK  4 active torsions:
REMARK  status: ('A' for Active; 'I' for Inactive)
REMARK    1  A    between atoms: C7_12  and  O2_2 
REMARK    2  A    between atoms: C11_16  and  O4_4 
REMARK    3  A    between atoms: C15_20  and  O5_5 
REMARK    4  A    between atoms: C1_6  and  C5_10 
ROOT
HETATM    1  O1  UNK     1      17.908   3.500  33.352  1.00  0.00    -0.340 OA
HETATM    2  O3  UNK     1      18.846   3.155  29.373  1.00  0.00    -0.292 OA
HETATM    3  C1  UNK     1      18.417   4.624  32.619  1.00  0.00     0.169 C 
HETATM    4  C2  UNK     1      18.019   4.544  31.146  1.00  0.00     0.121 C 
HETATM    5  C3  UNK     1      18.655   2.119  31.486  1.00  0.00     0.077 A 
HETATM    6  C4  UNK     1      18.559   3.265  30.559  1.00  0.00     0.167 C 
HETATM    7  C6  UNK     1      18.302   2.296  32.826  1.00  0.00     0.089 A 
HETATM    8  C7  UNK     1      19.051   0.863  31.021  1.00  0.00     0.087 A 
HETATM    9  C8  UNK     1      18.313   1.206  33.697  1.00  0.00     0.074 A 
HETATM   10  C11 UNK     1      18.706  -0.051  33.234  1.00  0.00     0.073 A 
HETATM   11  C12 UNK     1      19.079  -0.220  31.900  1.00  0.00     0.074 A 
ENDROOT
BRANCH   3  12
HETATM   12  C5  UNK     1      17.892   5.892  33.258  1.00  0.00    -0.028 A 
HETATM   13  C10 UNK     1      16.639   6.387  32.895  1.00  0.00     0.012 A 
HETATM   14  C14 UNK     1      16.155   7.555  33.484  1.00  0.00     0.037 A 
HETATM   15  C15 UNK     1      16.923   8.226  34.436  1.00  0.00     0.065 A 
HETATM   16  C13 UNK     1      18.175   7.730  34.798  1.00  0.00     0.037 A 
HETATM   17  C9  UNK     1      18.660   6.562  34.209  1.00  0.00     0.012 A 
BRANCH  15  18
HETATM   18  O5  UNK     1      16.450   9.366  35.011  1.00  0.00    -0.361 OA
HETATM   19  H16 UNK     1      15.608   9.168  35.457  1.00  0.00     0.217 HD
ENDBRANCH  15  18
ENDBRANCH   3  12
BRANCH   8  20
HETATM   20  O2  UNK     1      19.407   0.637  29.725  1.00  0.00    -0.355 OA
HETATM   21  C16 UNK     1      20.502  -0.248  29.499  1.00  0.00     0.210 C 
ENDBRANCH   8  20
BRANCH  10  22
HETATM   22  O4  UNK     1      18.727  -1.112  34.086  1.00  0.00    -0.356 OA
HETATM   23  C17 UNK     1      18.070  -0.948  35.342  1.00  0.00     0.210 C 
ENDBRANCH  10  22
TORSDOF 4
ENDMDL
MODEL 8
REMARK VINA RESULT:      -7.4      2.584      6.885
REMARK  4 active torsions:
REMARK  status: ('A' for Active; 'I' for Inactive)
REMARK    1  A    between atoms: C7_12  and  O2_2 
REMARK    2  A    between atoms: C11_16  and  O4_4 
REMARK    3  A    between atoms: C15_20  and  O5_5 
REMARK    4  A    between atoms: C1_6  and  C5_10 
ROOT
HETATM    1  O1  UNK     1      18.193   1.170  32.915  1.00  0.00    -0.340 OA
HETATM    2  O3  UNK     1      18.342   5.254  33.263  1.00  0.00    -0.292 OA
HETATM    3  C1  UNK     1      18.680   1.786  34.116  1.00  0.00     0.169 C 
HETATM    4  C2  UNK     1      18.012   3.140  34.347  1.00  0.00     0.121 C 
HETATM    5  C3  UNK     1      18.428   3.356  31.862  1.00  0.00     0.077 A 
HETATM    6  C4  UNK     1      18.291   4.034  33.167  1.00  0.00     0.167 C 
HETATM    7  C6  UNK     1      18.349   1.962  31.807  1.00  0.00     0.089 A 
HETATM    8  C7  UNK     1      18.591   4.100  30.691  1.00  0.00     0.087 A 
HETATM    9  C8  UNK     1      18.399   1.312  30.573  1.00  0.00     0.074 A 
HETATM   10  C11 UNK     1      18.560   2.053  29.401  1.00  0.00     0.073 A 
HETATM   11  C12 UNK     1      18.660   3.443  29.461  1.00  0.00     0.074 A 
ENDROOT
BRANCH   3  12
HETATM   12  C5  UNK     1      18.424   0.845  35.276  1.00  0.00    -0.028 A 
HETATM   13  C10 UNK     1      18.659  -0.521  35.128  1.00  0.00     0.012 A 
HETATM   14  C14 UNK     1      18.424  -1.387  36.196  1.00  0.00     0.037 A 
HETATM   15  C15 UNK     1      17.953  -0.886  37.410  1.00  0.00     0.065 A 
HETATM   16  C13 UNK     1      17.719   0.481  37.556  1.00  0.00     0.037 A 
HETATM   17  C9  UNK     1      17.954   1.347  36.488  1.00  0.00     0.012 A 
BRANCH  15  18
HETATM   18  O5  UNK     1      17.724  -1.730  38.452  1.00  0.00    -0.361 OA
HETATM   19  H16 UNK     1      17.712  -1.216  39.279  1.00  0.00     0.217 HD
ENDBRANCH  15  18
ENDBRANCH   3  12
BRANCH   8  20
HETATM   20  O2  UNK     1      18.676   5.460  30.689  1.00  0.00    -0.355 OA
HETATM   21  C16 UNK     1      19.830   6.036  30.079  1.00  0.00     0.210 C 
ENDBRANCH   8  20
BRANCH  10  22
HETATM   22  O4  UNK     1      18.619   1.418  28.199  1.00  0.00    -0.356 OA
HETATM   23  C17 UNK     1      18.943   0.028  28.216  1.00  0.00     0.210 C 
ENDBRANCH  10  22
TORSDOF 4
ENDMDL
MODEL 9
REMARK VINA RESULT:      -7.4      1.415      2.021
REMARK  4 active torsions:
REMARK  status: ('A' for Active; 'I' for Inactive)
REMARK    1  A    between atoms: C7_12  and  O2_2 
REMARK    2  A    between atoms: C11_16  and  O4_4 
REMARK    3  A    between atoms: C15_20  and  O5_5 
REMARK    4  A    between atoms: C1_6  and  C5_10 
ROOT
HETATM    1  O1  UNK     1      18.433   5.561  33.878  1.00  0.00    -0.340 OA
HETATM    2  O3  UNK     1      18.719   4.443  29.942  1.00  0.00    -0.292 OA
HETATM    3  C1  UNK     1      19.176   6.357  32.942  1.00  0.00     0.169 C 
HETATM    4  C2  UNK     1      18.595   6.232  31.535  1.00  0.00     0.121 C 
HETATM    5  C3  UNK     1      18.474   3.794  32.198  1.00  0.00     0.077 A 
HETATM    6  C4  UNK     1      18.629   4.785  31.115  1.00  0.00     0.167 C 
HETATM    7  C6  UNK     1      18.361   4.240  33.518  1.00  0.00     0.089 A 
HETATM    8  C7  UNK     1      18.394   2.431  31.906  1.00  0.00     0.087 A 
HETATM    9  C8  UNK     1      18.137   3.322  34.545  1.00  0.00     0.074 A 
HETATM   10  C11 UNK     1      18.055   1.959  34.254  1.00  0.00     0.073 A 
HETATM   11  C12 UNK     1      18.189   1.515  32.938  1.00  0.00     0.074 A 
ENDROOT
BRANCH   3  12
HETATM   12  C5  UNK     1      19.158   7.795  33.415  1.00  0.00    -0.028 A 
HETATM   13  C10 UNK     1      18.000   8.559  33.273  1.00  0.00     0.012 A 
HETATM   14  C14 UNK     1      17.984   9.884  33.709  1.00  0.00     0.037 A 
HETATM   15  C15 UNK     1      19.125  10.444  34.286  1.00  0.00     0.065 A 
HETATM   16  C13 UNK     1      20.282   9.678  34.426  1.00  0.00     0.037 A 
HETATM   17  C9  UNK     1      20.298   8.353  33.991  1.00  0.00     0.012 A 
BRANCH  15  18
HETATM   18  O5  UNK     1      19.108  11.737  34.711  1.00  0.00    -0.361 OA
HETATM   19  H16 UNK     1      19.735  11.833  35.450  1.00  0.00     0.217 HD
ENDBRANCH  15  18
ENDBRANCH   3  12
BRANCH   8  20
HETATM   20  O2  UNK     1      18.499   1.943  30.638  1.00  0.00    -0.355 OA
HETATM   21  C16 UNK     1      19.374   0.834  30.440  1.00  0.00     0.210 C 
ENDBRANCH   8  20
BRANCH  10  22
HETATM   22  O4  UNK     1      17.846   1.063  35.256  1.00  0.00    -0.356 OA
HETATM   23  C17 UNK     1      18.389   1.384  36.537  1.00  0.00     0.210 C 
ENDBRANCH  10  22
TORSDOF 4
ENDMDL
MODEL 10
REMARK VINA RESULT:      -7.3      3.363      8.569
REMARK  4 active torsions:
REMARK  status: ('A' for Active; 'I' for Inactive)
REMARK    1  A    between atoms: C7_12  and  O2_2 
REMARK    2  A    between atoms: C11_16  and  O4_4 
REMARK    3  A    between atoms: C15_20  and  O5_5 
REMARK    4  A    between atoms: C1_6  and  C5_10 
ROOT
HETATM    1  O1  UNK     1      16.537   7.738  32.590  1.00  0.00    -0.340 OA
HETATM    2  O3  UNK     1      19.268  10.194  34.416  1.00  0.00    -0.292 OA
HETATM    3  C1  UNK     1      17.925   7.688  32.227  1.00  0.00     0.169 C 
HETATM    4  C2  UNK     1      18.814   8.064  33.412  1.00  0.00     0.121 C 
HETATM    5  C3  UNK     1      17.045   9.847  33.703  1.00  0.00     0.077 A 
HETATM    6  C4  UNK     1      18.457   9.452  33.874  1.00  0.00     0.167 C 
HETATM    7  C6  UNK     1      16.158   8.958  33.090  1.00  0.00     0.089 A 
HETATM    8  C7  UNK     1      16.589  11.076  34.186  1.00  0.00     0.087 A 
HETATM    9  C8  UNK     1      14.805   9.283  32.990  1.00  0.00     0.074 A 
HETATM   10  C11 UNK     1      14.347  10.510  33.474  1.00  0.00     0.073 A 
HETATM   11  C12 UNK     1      15.238  11.405  34.066  1.00  0.00     0.074 A 
ENDROOT
BRANCH   3  12
HETATM   12  C5  UNK     1      18.240   6.294  31.727  1.00  0.00    -0.028 A 
HETATM   13  C10 UNK     1      18.909   6.124  30.515  1.00  0.00     0.012 A 
HETATM   14  C14 UNK     1      19.200   4.840  30.055  1.00  0.00     0.037 A 
HETATM   15  C15 UNK     1      18.823   3.727  30.807  1.00  0.00     0.065 A 
HETATM   16  C13 UNK     1      18.154   3.899  32.019  1.00  0.00     0.037 A 
HETATM   17  C9  UNK     1      17.863   5.183  32.479  1.00  0.00     0.012 A 
BRANCH  15  18
HETATM   18  O5  UNK     1      19.107   2.474  30.359  1.00  0.00    -0.361 OA
HETATM   19  H16 UNK     1      19.956   2.187  30.740  1.00  0.00     0.217 HD
ENDBRANCH  15  18
ENDBRANCH   3  12
BRANCH   8  20
HETATM   20  O2  UNK     1      17.410  11.980  34.789  1.00  0.00    -0.355 OA
HETATM   21  C16 UNK     1      16.795  12.958  35.625  1.00  0.00     0.210 C 
ENDBRANCH   8  20
BRANCH  10  22
HETATM   22  O4  UNK     1      13.029  10.832  33.367  1.00  0.00    -0.356 OA
HETATM   23  C17 UNK     1      12.706  12.004  32.619  1.00  0.00     0.210 C 
ENDBRANCH  10  22
TORSDOF 4
ENDMDL
