MODEL 1
REMARK VINA RESULT:      -9.3      0.000      0.000
REMARK  3 active torsions:
REMARK  status: ('A' for Active; 'I' for Inactive)
REMARK    1  A    between atoms: C5_9  and  C9_13 
REMARK    2  A    between atoms: C10_14  and  C9_13 
REMARK    3  A    between atoms: C11_15  and  C12_16 
ROOT
HETATM    1  O3  UNK     1      17.991   2.408  28.164  1.00  0.00    -0.288 OA
HETATM    2  C9  UNK     1      18.379   2.261  29.334  1.00  0.00     0.182 C 
ENDROOT
BRANCH   2   3
HETATM    3  C10 UNK     1      18.251   3.382  30.327  1.00  0.00     0.056 C 
HETATM    4  C12 UNK     1      19.206   4.319  30.425  1.00  0.00     0.015 C 
BRANCH   4   5
HETATM    5  C11 UNK     1      19.176   5.445  31.375  1.00  0.00    -0.036 A 
HETATM    6  C14 UNK     1      17.987   6.124  31.585  1.00  0.00     0.012 A 
HETATM    7  C16 UNK     1      17.958   7.190  32.485  1.00  0.00     0.020 A 
HETATM    8  C17 UNK     1      19.119   7.562  33.161  1.00  0.00     0.011 A 
HETATM    9 Br1  UNK     1      19.081   9.007  34.379  1.00  0.00    -0.051 Br
HETATM   10  C15 UNK     1      20.310   6.869  32.938  1.00  0.00     0.020 A 
HETATM   11  C13 UNK     1      20.338   5.803  32.039  1.00  0.00     0.012 A 
ENDBRANCH   4   5
ENDBRANCH   2   3
BRANCH   2  12
HETATM   12  C5  UNK     1      18.994   1.016  29.765  1.00  0.00     0.017 A 
HETATM   13  C6  UNK     1      19.034   0.691  31.122  1.00  0.00     0.055 A 
HETATM   14  C1  UNK     1      19.616  -0.508  31.532  1.00  0.00     0.103 A 
HETATM   15  O1  UNK     1      19.605  -0.780  32.875  1.00  0.00    -0.346 OA
HETATM   16  C2  UNK     1      20.185  -1.367  30.589  1.00  0.00     0.102 A 
HETATM   17  C3  UNK     1      19.901  -2.153  33.143  1.00  0.00     0.202 C 
HETATM   18  C4  UNK     1      21.100  -2.601  32.329  1.00  0.00     0.202 C 
HETATM   19  O2  UNK     1      20.801  -2.543  30.931  1.00  0.00    -0.346 OA
HETATM   20  C7  UNK     1      20.133  -1.049  29.233  1.00  0.00     0.040 A 
HETATM   21  C8  UNK     1      19.538   0.144  28.822  1.00  0.00     0.018 A 
ENDBRANCH   2  12
TORSDOF 3
ENDMDL
MODEL 2
REMARK VINA RESULT:      -8.0      4.129      8.270
REMARK  3 active torsions:
REMARK  status: ('A' for Active; 'I' for Inactive)
REMARK    1  A    between atoms: C5_9  and  C9_13 
REMARK    2  A    between atoms: C10_14  and  C9_13 
REMARK    3  A    between atoms: C11_15  and  C12_16 
ROOT
HETATM    1  O3  UNK     1      18.678   6.170  29.323  1.00  0.00    -0.288 OA
HETATM    2  C9  UNK     1      18.653   5.589  30.418  1.00  0.00     0.182 C 
ENDROOT
BRANCH   2   3
HETATM    3  C10 UNK     1      19.229   4.207  30.563  1.00  0.00     0.056 C 
HETATM    4  C12 UNK     1      18.553   3.137  30.121  1.00  0.00     0.015 C 
BRANCH   4   5
HETATM    5  C11 UNK     1      19.028   1.746  30.230  1.00  0.00    -0.036 A 
HETATM    6  C14 UNK     1      19.029   1.125  31.469  1.00  0.00     0.012 A 
HETATM    7  C16 UNK     1      19.478  -0.192  31.573  1.00  0.00     0.020 A 
HETATM    8  C17 UNK     1      19.920  -0.869  30.437  1.00  0.00     0.011 A 
HETATM    9 Br1  UNK     1      20.529  -2.652  30.578  1.00  0.00    -0.051 Br
HETATM   10  C15 UNK     1      19.913  -0.230  29.197  1.00  0.00     0.020 A 
HETATM   11  C13 UNK     1      19.463   1.086  29.093  1.00  0.00     0.012 A 
ENDBRANCH   4   5
ENDBRANCH   2   3
BRANCH   2  12
HETATM   12  C5  UNK     1      18.041   6.212  31.581  1.00  0.00     0.017 A 
HETATM   13  C6  UNK     1      17.289   7.378  31.431  1.00  0.00     0.055 A 
HETATM   14  C1  UNK     1      16.695   7.969  32.546  1.00  0.00     0.103 A 
HETATM   15  O1  UNK     1      15.951   9.100  32.331  1.00  0.00    -0.346 OA
HETATM   16  C2  UNK     1      16.877   7.411  33.813  1.00  0.00     0.102 A 
HETATM   17  C3  UNK     1      15.122   9.413  33.454  1.00  0.00     0.202 C 
HETATM   18  C4  UNK     1      15.917   9.310  34.741  1.00  0.00     0.202 C 
HETATM   19  O2  UNK     1      16.347   7.962  34.951  1.00  0.00    -0.346 OA
HETATM   20  C7  UNK     1      17.617   6.238  33.961  1.00  0.00     0.040 A 
HETATM   21  C8  UNK     1      18.199   5.640  32.843  1.00  0.00     0.018 A 
ENDBRANCH   2  12
TORSDOF 3
ENDMDL
MODEL 3
REMARK VINA RESULT:      -7.8      5.499      9.398
REMARK  3 active torsions:
REMARK  status: ('A' for Active; 'I' for Inactive)
REMARK    1  A    between atoms: C5_9  and  C9_13 
REMARK    2  A    between atoms: C10_14  and  C9_13 
REMARK    3  A    between atoms: C11_15  and  C12_16 
ROOT
HETATM    1  O3  UNK     1      18.449  -1.080  35.376  1.00  0.00    -0.288 OA
HETATM    2  C9  UNK     1      19.309  -1.796  34.842  1.00  0.00     0.182 C 
ENDROOT
BRANCH   2   3
HETATM    3  C10 UNK     1      20.062  -2.817  35.649  1.00  0.00     0.056 C 
HETATM    4  C12 UNK     1      19.412  -3.826  36.250  1.00  0.00     0.015 C 
BRANCH   4   5
HETATM    5  C11 UNK     1      20.059  -4.864  37.071  1.00  0.00    -0.036 A 
HETATM    6  C14 UNK     1      19.404  -6.065  37.286  1.00  0.00     0.012 A 
HETATM    7  C16 UNK     1      20.016  -7.048  38.064  1.00  0.00     0.020 A 
HETATM    8  C17 UNK     1      21.276  -6.816  38.615  1.00  0.00     0.011 A 
HETATM    9 Br1  UNK     1      22.106  -8.148  39.668  1.00  0.00    -0.051 Br
HETATM   10  C15 UNK     1      21.923  -5.601  38.389  1.00  0.00     0.020 A 
HETATM   11  C13 UNK     1      21.311  -4.618  37.611  1.00  0.00     0.012 A 
ENDBRANCH   4   5
ENDBRANCH   2   3
BRANCH   2  12
HETATM   12  C5  UNK     1      19.634  -1.647  33.432  1.00  0.00     0.017 A 
HETATM   13  C6  UNK     1      19.061  -0.614  32.690  1.00  0.00     0.055 A 
HETATM   14  C1  UNK     1      19.383  -0.467  31.341  1.00  0.00     0.103 A 
HETATM   15  O1  UNK     1      18.804   0.580  30.672  1.00  0.00    -0.346 OA
HETATM   16  C2  UNK     1      20.252  -1.371  30.727  1.00  0.00     0.102 A 
HETATM   17  C3  UNK     1      19.455   0.840  29.425  1.00  0.00     0.202 C 
HETATM   18  C4  UNK     1      19.685  -0.455  28.671  1.00  0.00     0.202 C 
HETATM   19  O2  UNK     1      20.582  -1.300  29.398  1.00  0.00    -0.346 OA
HETATM   20  C7  UNK     1      20.835  -2.395  31.472  1.00  0.00     0.040 A 
HETATM   21  C8  UNK     1      20.524  -2.533  32.825  1.00  0.00     0.018 A 
ENDBRANCH   2  12
TORSDOF 3
ENDMDL
MODEL 4
REMARK VINA RESULT:      -7.8      6.152     10.720
REMARK  3 active torsions:
REMARK  status: ('A' for Active; 'I' for Inactive)
REMARK    1  A    between atoms: C5_9  and  C9_13 
REMARK    2  A    between atoms: C10_14  and  C9_13 
REMARK    3  A    between atoms: C11_15  and  C12_16 
ROOT
HETATM    1  O3  UNK     1      19.391  -2.387  37.901  1.00  0.00    -0.288 OA
HETATM    2  C9  UNK     1      19.739  -2.874  36.815  1.00  0.00     0.182 C 
ENDROOT
BRANCH   2   3
HETATM    3  C10 UNK     1      20.509  -4.165  36.769  1.00  0.00     0.056 C 
HETATM    4  C12 UNK     1      19.938  -5.283  36.296  1.00  0.00     0.015 C 
BRANCH   4   5
HETATM    5  C11 UNK     1      20.605  -6.595  36.225  1.00  0.00    -0.036 A 
HETATM    6  C14 UNK     1      21.357  -7.033  37.303  1.00  0.00     0.012 A 
HETATM    7  C16 UNK     1      21.989  -8.275  37.236  1.00  0.00     0.020 A 
HETATM    8  C17 UNK     1      21.859  -9.062  36.092  1.00  0.00     0.011 A 
HETATM    9 Br1  UNK     1      22.715 -10.744  36.001  1.00  0.00    -0.051 Br
HETATM   10  C15 UNK     1      21.098  -8.607  35.014  1.00  0.00     0.020 A 
HETATM   11  C13 UNK     1      20.466  -7.365  35.082  1.00  0.00     0.012 A 
ENDBRANCH   4   5
ENDBRANCH   2   3
BRANCH   2  12
HETATM   12  C5  UNK     1      19.442  -2.197  35.563  1.00  0.00     0.017 A 
HETATM   13  C6  UNK     1      20.197  -2.475  34.423  1.00  0.00     0.055 A 
HETATM   14  C1  UNK     1      19.903  -1.831  33.221  1.00  0.00     0.103 A 
HETATM   15  O1  UNK     1      20.667  -2.162  32.133  1.00  0.00    -0.346 OA
HETATM   16  C2  UNK     1      18.875  -0.887  33.167  1.00  0.00     0.102 A 
HETATM   17  C3  UNK     1      20.071  -1.720  30.910  1.00  0.00     0.202 C 
HETATM   18  C4  UNK     1      19.597  -0.286  31.045  1.00  0.00     0.202 C 
HETATM   19  O2  UNK     1      18.559  -0.197  32.026  1.00  0.00    -0.346 OA
HETATM   20  C7  UNK     1      18.111  -0.620  34.303  1.00  0.00     0.040 A 
HETATM   21  C8  UNK     1      18.397  -1.275  35.501  1.00  0.00     0.018 A 
ENDBRANCH   2  12
TORSDOF 3
ENDMDL
MODEL 5
REMARK VINA RESULT:      -7.6     22.647     24.778
REMARK  3 active torsions:
REMARK  status: ('A' for Active; 'I' for Inactive)
REMARK    1  A    between atoms: C5_9  and  C9_13 
REMARK    2  A    between atoms: C10_14  and  C9_13 
REMARK    3  A    between atoms: C11_15  and  C12_16 
ROOT
HETATM    1  O3  UNK     1       7.694   6.879   7.046  1.00  0.00    -0.288 OA
HETATM    2  C9  UNK     1       8.343   6.373   7.974  1.00  0.00     0.182 C 
ENDROOT
BRANCH   2   3
HETATM    3  C10 UNK     1       7.652   5.913   9.227  1.00  0.00     0.056 C 
HETATM    4  C12 UNK     1       7.231   4.645   9.347  1.00  0.00     0.015 C 
BRANCH   4   5
HETATM    5  C11 UNK     1       6.534   4.106  10.528  1.00  0.00    -0.036 A 
HETATM    6  C14 UNK     1       6.011   2.823  10.480  1.00  0.00     0.012 A 
HETATM    7  C16 UNK     1       5.351   2.312  11.598  1.00  0.00     0.020 A 
HETATM    8  C17 UNK     1       5.223   3.091  12.748  1.00  0.00     0.011 A 
HETATM    9 Br1  UNK     1       4.328   2.399  14.262  1.00  0.00    -0.051 Br
HETATM   10  C15 UNK     1       5.754   4.381  12.780  1.00  0.00     0.020 A 
HETATM   11  C13 UNK     1       6.415   4.891  11.663  1.00  0.00     0.012 A 
ENDBRANCH   4   5
ENDBRANCH   2   3
BRANCH   2  12
HETATM   12  C5  UNK     1       9.789   6.241   7.887  1.00  0.00     0.017 A 
HETATM   13  C6  UNK     1      10.550   6.138   9.052  1.00  0.00     0.055 A 
HETATM   14  C1  UNK     1      11.936   6.002   8.966  1.00  0.00     0.103 A 
HETATM   15  O1  UNK     1      12.625   5.884  10.145  1.00  0.00    -0.346 OA
HETATM   16  C2  UNK     1      12.561   6.000   7.718  1.00  0.00     0.102 A 
HETATM   17  C3  UNK     1      13.958   5.409   9.936  1.00  0.00     0.202 C 
HETATM   18  C4  UNK     1      14.612   6.163   8.794  1.00  0.00     0.202 C 
HETATM   19  O2  UNK     1      13.921   5.902   7.568  1.00  0.00    -0.346 OA
HETATM   20  C7  UNK     1      11.799   6.089   6.554  1.00  0.00     0.040 A 
HETATM   21  C8  UNK     1      10.412   6.211   6.640  1.00  0.00     0.018 A 
ENDBRANCH   2  12
TORSDOF 3
ENDMDL
MODEL 6
REMARK VINA RESULT:      -7.6      4.761      8.773
REMARK  3 active torsions:
REMARK  status: ('A' for Active; 'I' for Inactive)
REMARK    1  A    between atoms: C5_9  and  C9_13 
REMARK    2  A    between atoms: C10_14  and  C9_13 
REMARK    3  A    between atoms: C11_15  and  C12_16 
ROOT
HETATM    1  O3  UNK     1      18.691   4.721  31.288  1.00  0.00    -0.288 OA
HETATM    2  C9  UNK     1      18.284   5.060  32.410  1.00  0.00     0.182 C 
ENDROOT
BRANCH   2   3
HETATM    3  C10 UNK     1      18.279   4.079  33.549  1.00  0.00     0.056 C 
HETATM    4  C12 UNK     1      18.223   2.759  33.313  1.00  0.00     0.015 C 
BRANCH   4   5
HETATM    5  C11 UNK     1      18.200   1.724  34.361  1.00  0.00    -0.036 A 
HETATM    6  C14 UNK     1      18.221   2.107  35.693  1.00  0.00     0.012 A 
HETATM    7  C16 UNK     1      18.199   1.127  36.686  1.00  0.00     0.020 A 
HETATM    8  C17 UNK     1      18.156  -0.221  36.333  1.00  0.00     0.011 A 
HETATM    9 Br1  UNK     1      18.126  -1.548  37.679  1.00  0.00    -0.051 Br
HETATM   10  C15 UNK     1      18.135  -0.591  34.988  1.00  0.00     0.020 A 
HETATM   11  C13 UNK     1      18.157   0.389  33.995  1.00  0.00     0.012 A 
ENDBRANCH   4   5
ENDBRANCH   2   3
BRANCH   2  12
HETATM   12  C5  UNK     1      17.773   6.401  32.644  1.00  0.00     0.017 A 
HETATM   13  C6  UNK     1      18.585   7.360  33.249  1.00  0.00     0.055 A 
HETATM   14  C1  UNK     1      18.095   8.649  33.464  1.00  0.00     0.103 A 
HETATM   15  O1  UNK     1      18.948   9.552  34.044  1.00  0.00    -0.346 OA
HETATM   16  C2  UNK     1      16.785   8.968  33.102  1.00  0.00     0.102 A 
HETATM   17  C3  UNK     1      18.478  10.896  33.899  1.00  0.00     0.202 C 
HETATM   18  C4  UNK     1      17.004  10.977  34.243  1.00  0.00     0.202 C 
HETATM   19  O2  UNK     1      16.235  10.205  33.316  1.00  0.00    -0.346 OA
HETATM   20  C7  UNK     1      15.978   8.013  32.484  1.00  0.00     0.040 A 
HETATM   21  C8  UNK     1      16.473   6.729  32.257  1.00  0.00     0.018 A 
ENDBRANCH   2  12
TORSDOF 3
ENDMDL
MODEL 7
REMARK VINA RESULT:      -7.5      4.539      8.210
REMARK  3 active torsions:
REMARK  status: ('A' for Active; 'I' for Inactive)
REMARK    1  A    between atoms: C5_9  and  C9_13 
REMARK    2  A    between atoms: C10_14  and  C9_13 
REMARK    3  A    between atoms: C11_15  and  C12_16 
ROOT
HETATM    1  O3  UNK     1      18.676   4.470  30.349  1.00  0.00    -0.288 OA
HETATM    2  C9  UNK     1      18.418   4.495  31.562  1.00  0.00     0.182 C 
ENDROOT
BRANCH   2   3
HETATM    3  C10 UNK     1      18.298   3.216  32.343  1.00  0.00     0.056 C 
HETATM    4  C12 UNK     1      18.339   3.230  33.684  1.00  0.00     0.015 C 
BRANCH   4   5
HETATM    5  C11 UNK     1      18.244   2.030  34.534  1.00  0.00    -0.036 A 
HETATM    6  C14 UNK     1      18.175   0.781  33.939  1.00  0.00     0.012 A 
HETATM    7  C16 UNK     1      18.085  -0.355  34.744  1.00  0.00     0.020 A 
HETATM    8  C17 UNK     1      18.065  -0.226  36.132  1.00  0.00     0.011 A 
HETATM    9 Br1  UNK     1      17.942  -1.765  37.222  1.00  0.00    -0.051 Br
HETATM   10  C15 UNK     1      18.134   1.039  36.716  1.00  0.00     0.020 A 
HETATM   11  C13 UNK     1      18.225   2.175  35.912  1.00  0.00     0.012 A 
ENDBRANCH   4   5
ENDBRANCH   2   3
BRANCH   2  12
HETATM   12  C5  UNK     1      18.195   5.756  32.252  1.00  0.00     0.017 A 
HETATM   13  C6  UNK     1      16.895   6.230  32.433  1.00  0.00     0.055 A 
HETATM   14  C1  UNK     1      16.684   7.435  33.103  1.00  0.00     0.103 A 
HETATM   15  O1  UNK     1      15.384   7.837  33.268  1.00  0.00    -0.346 OA
HETATM   16  C2  UNK     1      17.772   8.179  33.565  1.00  0.00     0.102 A 
HETATM   17  C3  UNK     1      15.267   8.874  34.247  1.00  0.00     0.202 C 
HETATM   18  C4  UNK     1      16.324   9.936  34.016  1.00  0.00     0.202 C 
HETATM   19  O2  UNK     1      17.631   9.385  34.202  1.00  0.00    -0.346 OA
HETATM   20  C7  UNK     1      19.069   7.697  33.396  1.00  0.00     0.040 A 
HETATM   21  C8  UNK     1      19.279   6.486  32.738  1.00  0.00     0.018 A 
ENDBRANCH   2  12
TORSDOF 3
ENDMDL
MODEL 8
REMARK VINA RESULT:      -7.5     22.203     23.834
REMARK  3 active torsions:
REMARK  status: ('A' for Active; 'I' for Inactive)
REMARK    1  A    between atoms: C5_9  and  C9_13 
REMARK    2  A    between atoms: C10_14  and  C9_13 
REMARK    3  A    between atoms: C11_15  and  C12_16 
ROOT
HETATM    1  O3  UNK     1      15.793   4.362   9.590  1.00  0.00    -0.288 OA
HETATM    2  C9  UNK     1      15.221   5.453   9.443  1.00  0.00     0.182 C 
ENDROOT
BRANCH   2   3
HETATM    3  C10 UNK     1      15.938   6.738   9.747  1.00  0.00     0.056 C 
HETATM    4  C12 UNK     1      15.257   7.889   9.858  1.00  0.00     0.015 C 
BRANCH   4   5
HETATM    5  C11 UNK     1      15.872   9.198  10.139  1.00  0.00    -0.036 A 
HETATM    6  C14 UNK     1      17.143   9.469   9.658  1.00  0.00     0.012 A 
HETATM    7  C16 UNK     1      17.725  10.708   9.924  1.00  0.00     0.020 A 
HETATM    8  C17 UNK     1      17.029  11.660  10.667  1.00  0.00     0.011 A 
HETATM    9 Br1  UNK     1      17.818  13.339  11.028  1.00  0.00    -0.051 Br
HETATM   10  C15 UNK     1      15.750  11.373  11.146  1.00  0.00     0.020 A 
HETATM   11  C13 UNK     1      15.167  10.134  10.879  1.00  0.00     0.012 A 
ENDBRANCH   4   5
ENDBRANCH   2   3
BRANCH   2  12
HETATM   12  C5  UNK     1      13.835   5.516   9.004  1.00  0.00     0.017 A 
HETATM   13  C6  UNK     1      13.532   5.948   7.713  1.00  0.00     0.055 A 
HETATM   14  C1  UNK     1      12.203   5.998   7.292  1.00  0.00     0.103 A 
HETATM   15  O1  UNK     1      11.971   6.412   6.006  1.00  0.00    -0.346 OA
HETATM   16  C2  UNK     1      11.177   5.645   8.171  1.00  0.00     0.102 A 
HETATM   17  C3  UNK     1      10.643   6.098   5.577  1.00  0.00     0.202 C 
HETATM   18  C4  UNK     1       9.640   6.483   6.647  1.00  0.00     0.202 C 
HETATM   19  O2  UNK     1       9.851   5.704   7.829  1.00  0.00    -0.346 OA
HETATM   20  C7  UNK     1      11.482   5.199   9.457  1.00  0.00     0.040 A 
HETATM   21  C8  UNK     1      12.812   5.136   9.872  1.00  0.00     0.018 A 
ENDBRANCH   2  12
TORSDOF 3
ENDMDL
MODEL 9
REMARK VINA RESULT:      -7.5      5.847      9.095
REMARK  3 active torsions:
REMARK  status: ('A' for Active; 'I' for Inactive)
REMARK    1  A    between atoms: C5_9  and  C9_13 
REMARK    2  A    between atoms: C10_14  and  C9_13 
REMARK    3  A    between atoms: C11_15  and  C12_16 
ROOT
HETATM    1  O3  UNK     1      19.719  -2.534  37.713  1.00  0.00    -0.288 OA
HETATM    2  C9  UNK     1      20.121  -3.375  36.895  1.00  0.00     0.182 C 
ENDROOT
BRANCH   2   3
HETATM    3  C10 UNK     1      20.380  -2.988  35.466  1.00  0.00     0.056 C 
HETATM    4  C12 UNK     1      19.544  -2.159  34.821  1.00  0.00     0.015 C 
BRANCH   4   5
HETATM    5  C11 UNK     1      19.706  -1.735  33.420  1.00  0.00    -0.036 A 
HETATM    6  C14 UNK     1      18.929  -0.697  32.931  1.00  0.00     0.012 A 
HETATM    7  C16 UNK     1      19.082  -0.294  31.605  1.00  0.00     0.020 A 
HETATM    8  C17 UNK     1      20.010  -0.935  30.785  1.00  0.00     0.011 A 
HETATM    9 Br1  UNK     1      20.217  -0.389  28.987  1.00  0.00    -0.051 Br
HETATM   10  C15 UNK     1      20.785  -1.979  31.291  1.00  0.00     0.020 A 
HETATM   11  C13 UNK     1      20.632  -2.381  32.618  1.00  0.00     0.012 A 
ENDBRANCH   4   5
ENDBRANCH   2   3
BRANCH   2  12
HETATM   12  C5  UNK     1      20.322  -4.761  37.287  1.00  0.00     0.017 A 
HETATM   13  C6  UNK     1      19.361  -5.722  36.969  1.00  0.00     0.055 A 
HETATM   14  C1  UNK     1      19.561  -7.052  37.339  1.00  0.00     0.103 A 
HETATM   15  O1  UNK     1      18.592  -7.952  36.979  1.00  0.00    -0.346 OA
HETATM   16  C2  UNK     1      20.706  -7.415  38.052  1.00  0.00     0.102 A 
HETATM   17  C3  UNK     1      19.050  -9.302  37.093  1.00  0.00     0.202 C 
HETATM   18  C4  UNK     1      19.764  -9.505  38.415  1.00  0.00     0.202 C 
HETATM   19  O2  UNK     1      20.944  -8.698  38.471  1.00  0.00    -0.346 OA
HETATM   20  C7  UNK     1      21.672  -6.457  38.357  1.00  0.00     0.040 A 
HETATM   21  C8  UNK     1      21.478  -5.130  37.975  1.00  0.00     0.018 A 
ENDBRANCH   2  12
TORSDOF 3
ENDMDL
MODEL 10
REMARK VINA RESULT:      -7.4      5.462     10.031
REMARK  3 active torsions:
REMARK  status: ('A' for Active; 'I' for Inactive)
REMARK    1  A    between atoms: C5_9  and  C9_13 
REMARK    2  A    between atoms: C10_14  and  C9_13 
REMARK    3  A    between atoms: C11_15  and  C12_16 
ROOT
HETATM    1  O3  UNK     1      20.240   8.954  34.560  1.00  0.00    -0.288 OA
HETATM    2  C9  UNK     1      19.170   8.464  34.169  1.00  0.00     0.182 C 
ENDROOT
BRANCH   2   3
HETATM    3  C10 UNK     1      19.142   7.106  33.524  1.00  0.00     0.056 C 
HETATM    4  C12 UNK     1      18.792   6.970  32.236  1.00  0.00     0.015 C 
BRANCH   4   5
HETATM    5  C11 UNK     1      18.722   5.683  31.522  1.00  0.00    -0.036 A 
HETATM    6  C14 UNK     1      18.268   4.559  32.192  1.00  0.00     0.012 A 
HETATM    7  C16 UNK     1      18.201   3.341  31.516  1.00  0.00     0.020 A 
HETATM    8  C17 UNK     1      18.589   3.263  30.179  1.00  0.00     0.011 A 
HETATM    9 Br1  UNK     1      18.499   1.612  29.264  1.00  0.00    -0.051 Br
HETATM   10  C15 UNK     1      19.045   4.404  29.518  1.00  0.00     0.020 A 
HETATM   11  C13 UNK     1      19.111   5.623  30.193  1.00  0.00     0.012 A 
ENDBRANCH   4   5
ENDBRANCH   2   3
BRANCH   2  12
HETATM   12  C5  UNK     1      17.922   9.201  34.294  1.00  0.00     0.017 A 
HETATM   13  C6  UNK     1      17.900  10.578  34.069  1.00  0.00     0.055 A 
HETATM   14  C1  UNK     1      16.699  11.280  34.180  1.00  0.00     0.103 A 
HETATM   15  O1  UNK     1      16.739  12.626  33.927  1.00  0.00    -0.346 OA
HETATM   16  C2  UNK     1      15.529  10.611  34.545  1.00  0.00     0.102 A 
HETATM   17  C3  UNK     1      15.430  13.169  33.730  1.00  0.00     0.202 C 
HETATM   18  C4  UNK     1      14.485  12.668  34.804  1.00  0.00     0.202 C 
HETATM   19  O2  UNK     1      14.327  11.250  34.703  1.00  0.00    -0.346 OA
HETATM   20  C7  UNK     1      15.549   9.233  34.756  1.00  0.00     0.040 A 
HETATM   21  C8  UNK     1      16.747   8.529  34.631  1.00  0.00     0.018 A 
ENDBRANCH   2  12
TORSDOF 3
ENDMDL
