MODEL 1
REMARK VINA RESULT:      -8.9      0.000      0.000
REMARK  3 active torsions:
REMARK  status: ('A' for Active; 'I' for Inactive)
REMARK    1  A    between atoms: C7_13  and  O2_3 
REMARK    2  A    between atoms: C11_17  and  N1_6 
REMARK       I    between atoms: C9_15  and  N1_6 
REMARK    3  A    between atoms: C3_9  and  C9_15 
ROOT
HETATM    1  O1  UNK     1      19.450  -2.332  13.058  1.00  0.00    -0.274 OA
HETATM    2  O3  UNK     1      19.446  -0.329  14.159  1.00  0.00    -0.259 OA
HETATM    3  C1  UNK     1      18.518  -4.299  14.142  1.00  0.00     0.002 A 
HETATM    4  C2  UNK     1      19.134  -3.704  13.044  1.00  0.00     0.089 A 
HETATM    5  C3  UNK     1      18.511  -2.177  15.311  1.00  0.00     0.108 A 
HETATM    6  C4  UNK     1      18.207  -3.480  15.304  1.00  0.00     0.037 A 
HETATM    7  C5  UNK     1      18.221  -5.663  14.090  1.00  0.00     0.051 A 
HETATM    8  C6  UNK     1      19.459  -4.432  11.901  1.00  0.00     0.041 A 
HETATM    9  C7  UNK     1      18.540  -6.405  12.950  1.00  0.00     0.069 A 
HETATM   10  C8  UNK     1      19.165  -1.523  14.156  1.00  0.00     0.304 A 
HETATM   11  C10 UNK     1      19.158  -5.791  11.859  1.00  0.00     0.039 A 
ENDROOT
BRANCH   5  12
HETATM   12  C9  UNK     1      18.159  -1.436  16.528  1.00  0.00     0.262 C 
HETATM   13  O4  UNK     1      17.089  -1.661  17.091  1.00  0.00    -0.267 OA
HETATM   14  N1  UNK     1      19.143  -0.528  16.892  1.00  0.00    -0.321 N 
HETATM   15  H5  UNK     1      19.988  -0.474  16.328  1.00  0.00     0.169 HD
BRANCH  14  16
HETATM   16  C11 UNK     1      19.140   0.350  18.003  1.00  0.00     0.056 A 
HETATM   17  C12 UNK     1      19.185   1.724  17.822  1.00  0.00     0.060 A 
HETATM   18 Cl1  UNK     1      19.250   2.443  16.253  1.00  0.00    -0.082 Cl
HETATM   19  C14 UNK     1      19.181   2.561  18.938  1.00  0.00     0.026 A 
HETATM   20  C16 UNK     1      19.132   2.014  20.220  1.00  0.00     0.002 A 
HETATM   21  C15 UNK     1      19.087   0.630  20.386  1.00  0.00     0.002 A 
HETATM   22  C13 UNK     1      19.091  -0.207  19.271  1.00  0.00     0.031 A 
ENDBRANCH  14  16
ENDBRANCH   5  12
BRANCH   9  23
HETATM   23  O2  UNK     1      18.247  -7.734  12.903  1.00  0.00    -0.356 OA
HETATM   24  C17 UNK     1      16.876  -8.102  13.040  1.00  0.00     0.210 C 
ENDBRANCH   9  23
TORSDOF 3
ENDMDL
MODEL 2
REMARK VINA RESULT:      -8.9      2.560      7.785
REMARK  3 active torsions:
REMARK  status: ('A' for Active; 'I' for Inactive)
REMARK    1  A    between atoms: C7_13  and  O2_3 
REMARK    2  A    between atoms: C11_17  and  N1_6 
REMARK       I    between atoms: C9_15  and  N1_6 
REMARK    3  A    between atoms: C3_9  and  C9_15 
ROOT
HETATM    1  O1  UNK     1      19.299   1.164  15.557  1.00  0.00    -0.274 OA
HETATM    2  O3  UNK     1      19.362  -0.359  13.855  1.00  0.00    -0.259 OA
HETATM    3  C1  UNK     1      18.895   0.405  17.832  1.00  0.00     0.002 A 
HETATM    4  C2  UNK     1      19.139   1.437  16.930  1.00  0.00     0.089 A 
HETATM    5  C3  UNK     1      18.961  -1.212  16.030  1.00  0.00     0.108 A 
HETATM    6  C4  UNK     1      18.808  -0.959  17.334  1.00  0.00     0.037 A 
HETATM    7  C5  UNK     1      18.741   0.716  19.185  1.00  0.00     0.051 A 
HETATM    8  C6  UNK     1      19.233   2.765  17.341  1.00  0.00     0.041 A 
HETATM    9  C7  UNK     1      18.833   2.044  19.613  1.00  0.00     0.069 A 
HETATM   10  C8  UNK     1      19.221  -0.132  15.052  1.00  0.00     0.304 A 
HETATM   11  C10 UNK     1      19.078   3.065  18.693  1.00  0.00     0.039 A 
ENDROOT
BRANCH   5  12
HETATM   12  C9  UNK     1      18.856  -2.619  15.625  1.00  0.00     0.262 C 
HETATM   13  O4  UNK     1      17.805  -3.230  15.810  1.00  0.00    -0.267 OA
HETATM   14  N1  UNK     1      20.033  -3.091  15.060  1.00  0.00    -0.321 N 
HETATM   15  H5  UNK     1      20.815  -2.449  14.958  1.00  0.00     0.169 HD
BRANCH  14  16
HETATM   16  C11 UNK     1      20.291  -4.390  14.561  1.00  0.00     0.056 A 
HETATM   17  C12 UNK     1      19.902  -4.749  13.280  1.00  0.00     0.060 A 
HETATM   18 Cl1  UNK     1      19.087  -3.651  12.224  1.00  0.00    -0.082 Cl
HETATM   19  C14 UNK     1      20.171  -6.038  12.820  1.00  0.00     0.026 A 
HETATM   20  C16 UNK     1      20.825  -6.952  13.646  1.00  0.00     0.002 A 
HETATM   21  C15 UNK     1      21.211  -6.576  14.933  1.00  0.00     0.002 A 
HETATM   22  C13 UNK     1      20.942  -5.288  15.394  1.00  0.00     0.031 A 
ENDBRANCH  14  16
ENDBRANCH   5  12
BRANCH   9  23
HETATM   23  O2  UNK     1      18.684   2.343  20.933  1.00  0.00    -0.356 OA
HETATM   24  C17 UNK     1      19.775   2.033  21.796  1.00  0.00     0.210 C 
ENDBRANCH   9  23
TORSDOF 3
ENDMDL
MODEL 3
REMARK VINA RESULT:      -8.8     14.296     16.650
REMARK  3 active torsions:
REMARK  status: ('A' for Active; 'I' for Inactive)
REMARK    1  A    between atoms: C7_13  and  O2_3 
REMARK    2  A    between atoms: C11_17  and  N1_6 
REMARK       I    between atoms: C9_15  and  N1_6 
REMARK    3  A    between atoms: C3_9  and  C9_15 
ROOT
HETATM    1  O1  UNK     1      19.017   1.703  28.773  1.00  0.00    -0.274 OA
HETATM    2  O3  UNK     1      18.192   3.823  28.988  1.00  0.00    -0.259 OA
HETATM    3  C1  UNK     1      19.508   0.399  30.766  1.00  0.00     0.002 A 
HETATM    4  C2  UNK     1      19.474   0.516  29.380  1.00  0.00     0.089 A 
HETATM    5  C3  UNK     1      18.632   2.646  30.997  1.00  0.00     0.108 A 
HETATM    6  C4  UNK     1      19.065   1.521  31.579  1.00  0.00     0.037 A 
HETATM    7  C5  UNK     1      19.968  -0.793  31.330  1.00  0.00     0.051 A 
HETATM    8  C6  UNK     1      19.885  -0.520  28.544  1.00  0.00     0.041 A 
HETATM    9  C7  UNK     1      20.384  -1.843  30.504  1.00  0.00     0.069 A 
HETATM   10  C8  UNK     1      18.587   2.794  29.525  1.00  0.00     0.304 A 
HETATM   11  C10 UNK     1      20.342  -1.706  29.116  1.00  0.00     0.039 A 
ENDROOT
BRANCH   5  12
HETATM   12  C9  UNK     1      18.207   3.721  31.901  1.00  0.00     0.262 C 
HETATM   13  O4  UNK     1      17.602   3.445  32.935  1.00  0.00    -0.267 OA
HETATM   14  N1  UNK     1      18.568   4.976  31.429  1.00  0.00    -0.321 N 
HETATM   15  H5  UNK     1      19.088   5.036  30.557  1.00  0.00     0.169 HD
BRANCH  14  16
HETATM   16  C11 UNK     1      18.321   6.231  32.037  1.00  0.00     0.056 A 
HETATM   17  C12 UNK     1      19.316   6.881  32.750  1.00  0.00     0.060 A 
HETATM   18 Cl1  UNK     1      20.897   6.213  32.942  1.00  0.00    -0.082 Cl
HETATM   19  C14 UNK     1      19.040   8.117  33.336  1.00  0.00     0.026 A 
HETATM   20  C16 UNK     1      17.773   8.685  33.203  1.00  0.00     0.002 A 
HETATM   21  C15 UNK     1      16.783   8.018  32.482  1.00  0.00     0.002 A 
HETATM   22  C13 UNK     1      17.058   6.783  31.896  1.00  0.00     0.031 A 
ENDBRANCH  14  16
ENDBRANCH   5  12
BRANCH   9  23
HETATM   23  O2  UNK     1      20.830  -3.004  31.057  1.00  0.00    -0.356 OA
HETATM   24  C17 UNK     1      21.013  -3.021  32.472  1.00  0.00     0.210 C 
ENDBRANCH   9  23
TORSDOF 3
ENDMDL
MODEL 4
REMARK VINA RESULT:      -8.6      2.525      7.789
REMARK  3 active torsions:
REMARK  status: ('A' for Active; 'I' for Inactive)
REMARK    1  A    between atoms: C7_13  and  O2_3 
REMARK    2  A    between atoms: C11_17  and  N1_6 
REMARK       I    between atoms: C9_15  and  N1_6 
REMARK    3  A    between atoms: C3_9  and  C9_15 
ROOT
HETATM    1  O1  UNK     1      19.248   1.023  15.573  1.00  0.00    -0.274 OA
HETATM    2  O3  UNK     1      19.454  -0.563  13.941  1.00  0.00    -0.259 OA
HETATM    3  C1  UNK     1      19.054   0.333  17.897  1.00  0.00     0.002 A 
HETATM    4  C2  UNK     1      19.109   1.341  16.939  1.00  0.00     0.089 A 
HETATM    5  C3  UNK     1      19.273  -1.349  16.169  1.00  0.00     0.108 A 
HETATM    6  C4  UNK     1      19.142  -1.054  17.467  1.00  0.00     0.037 A 
HETATM    7  C5  UNK     1      18.915   0.689  19.241  1.00  0.00     0.051 A 
HETATM    8  C6  UNK     1      19.030   2.688  17.284  1.00  0.00     0.041 A 
HETATM    9  C7  UNK     1      18.835   2.037  19.603  1.00  0.00     0.069 A 
HETATM   10  C8  UNK     1      19.334  -0.296  15.131  1.00  0.00     0.304 A 
HETATM   11  C10 UNK     1      18.892   3.034  18.627  1.00  0.00     0.039 A 
ENDROOT
BRANCH   5  12
HETATM   12  C9  UNK     1      19.353  -2.777  15.834  1.00  0.00     0.262 C 
HETATM   13  O4  UNK     1      20.431  -3.362  15.911  1.00  0.00    -0.267 OA
HETATM   14  N1  UNK     1      18.123  -3.295  15.452  1.00  0.00    -0.321 N 
HETATM   15  H5  UNK     1      17.313  -2.680  15.459  1.00  0.00     0.169 HD
BRANCH  14  16
HETATM   16  C11 UNK     1      17.829  -4.624  15.063  1.00  0.00     0.056 A 
HETATM   17  C12 UNK     1      18.207  -5.099  13.817  1.00  0.00     0.060 A 
HETATM   18 Cl1  UNK     1      19.048  -4.114  12.673  1.00  0.00    -0.082 Cl
HETATM   19  C14 UNK     1      17.902  -6.414  13.465  1.00  0.00     0.026 A 
HETATM   20  C16 UNK     1      17.222  -7.237  14.363  1.00  0.00     0.002 A 
HETATM   21  C15 UNK     1      16.848  -6.744  15.613  1.00  0.00     0.002 A 
HETATM   22  C13 UNK     1      17.153  -5.430  15.965  1.00  0.00     0.031 A 
ENDBRANCH  14  16
ENDBRANCH   5  12
BRANCH   9  23
HETATM   23  O2  UNK     1      18.701   2.380  20.914  1.00  0.00    -0.356 OA
HETATM   24  C17 UNK     1      19.779   2.045  21.786  1.00  0.00     0.210 C 
ENDBRANCH   9  23
TORSDOF 3
ENDMDL
MODEL 5
REMARK VINA RESULT:      -8.3     17.463     21.396
REMARK  3 active torsions:
REMARK  status: ('A' for Active; 'I' for Inactive)
REMARK    1  A    between atoms: C7_13  and  O2_3 
REMARK    2  A    between atoms: C11_17  and  N1_6 
REMARK       I    between atoms: C9_15  and  N1_6 
REMARK    3  A    between atoms: C3_9  and  C9_15 
ROOT
HETATM    1  O1  UNK     1      18.579  -0.776  36.632  1.00  0.00    -0.274 OA
HETATM    2  O3  UNK     1      18.949  -2.115  38.446  1.00  0.00    -0.259 OA
HETATM    3  C1  UNK     1      19.265  -1.529  34.424  1.00  0.00     0.002 A 
HETATM    4  C2  UNK     1      18.685  -0.565  35.243  1.00  0.00     0.089 A 
HETATM    5  C3  UNK     1      19.659  -2.951  36.345  1.00  0.00     0.108 A 
HETATM    6  C4  UNK     1      19.761  -2.757  35.025  1.00  0.00     0.037 A 
HETATM    7  C5  UNK     1      19.353  -1.283  33.052  1.00  0.00     0.051 A 
HETATM    8  C6  UNK     1      18.191   0.633  34.731  1.00  0.00     0.041 A 
HETATM    9  C7  UNK     1      18.861  -0.085  32.523  1.00  0.00     0.069 A 
HETATM   10  C8  UNK     1      19.045  -1.941  37.236  1.00  0.00     0.304 A 
HETATM   11  C10 UNK     1      18.282   0.870  33.361  1.00  0.00     0.039 A 
ENDROOT
BRANCH   5  12
HETATM   12  C9  UNK     1      20.188  -4.222  36.856  1.00  0.00     0.262 C 
HETATM   13  O4  UNK     1      21.403  -4.392  36.926  1.00  0.00    -0.267 OA
HETATM   14  N1  UNK     1      19.178  -5.107  37.207  1.00  0.00    -0.321 N 
HETATM   15  H5  UNK     1      18.211  -4.806  37.107  1.00  0.00     0.169 HD
BRANCH  14  16
HETATM   16  C11 UNK     1      19.319  -6.414  37.731  1.00  0.00     0.056 A 
HETATM   17  C12 UNK     1      18.863  -7.515  37.024  1.00  0.00     0.060 A 
HETATM   18 Cl1  UNK     1      18.102  -7.367  35.480  1.00  0.00    -0.082 Cl
HETATM   19  C14 UNK     1      19.017  -8.790  37.569  1.00  0.00     0.026 A 
HETATM   20  C16 UNK     1      19.625  -8.948  38.815  1.00  0.00     0.002 A 
HETATM   21  C15 UNK     1      20.079  -7.830  39.514  1.00  0.00     0.002 A 
HETATM   22  C13 UNK     1      19.925  -6.555  38.970  1.00  0.00     0.031 A 
ENDBRANCH  14  16
ENDBRANCH   5  12
BRANCH   9  23
HETATM   23  O2  UNK     1      18.946   0.151  31.185  1.00  0.00    -0.356 OA
HETATM   24  C17 UNK     1      20.236   0.036  30.586  1.00  0.00     0.210 C 
ENDBRANCH   9  23
TORSDOF 3
ENDMDL
MODEL 6
REMARK VINA RESULT:      -8.1     17.384     19.992
REMARK  3 active torsions:
REMARK  status: ('A' for Active; 'I' for Inactive)
REMARK    1  A    between atoms: C7_13  and  O2_3 
REMARK    2  A    between atoms: C11_17  and  N1_6 
REMARK       I    between atoms: C9_15  and  N1_6 
REMARK    3  A    between atoms: C3_9  and  C9_15 
ROOT
HETATM    1  O1  UNK     1      18.883   2.980  30.974  1.00  0.00    -0.274 OA
HETATM    2  O3  UNK     1      18.702   0.728  31.321  1.00  0.00    -0.259 OA
HETATM    3  C1  UNK     1      18.292   4.520  32.761  1.00  0.00     0.002 A 
HETATM    4  C2  UNK     1      18.744   4.293  31.464  1.00  0.00     0.089 A 
HETATM    5  C3  UNK     1      18.099   2.134  33.132  1.00  0.00     0.108 A 
HETATM    6  C4  UNK     1      17.965   3.379  33.602  1.00  0.00     0.037 A 
HETATM    7  C5  UNK     1      18.166   5.837  33.209  1.00  0.00     0.051 A 
HETATM    8  C6  UNK     1      19.072   5.341  30.607  1.00  0.00     0.041 A 
HETATM    9  C7  UNK     1      18.492   6.899  32.360  1.00  0.00     0.069 A 
HETATM   10  C8  UNK     1      18.578   1.868  31.757  1.00  0.00     0.304 A 
HETATM   11  C10 UNK     1      18.944   6.651  31.063  1.00  0.00     0.039 A 
ENDROOT
BRANCH   5  12
HETATM   12  C9  UNK     1      17.745   1.050  34.056  1.00  0.00     0.262 C 
HETATM   13  O4  UNK     1      16.578   0.674  34.136  1.00  0.00    -0.267 OA
HETATM   14  N1  UNK     1      18.847   0.577  34.755  1.00  0.00    -0.321 N 
HETATM   15  H5  UNK     1      19.759   0.984  34.560  1.00  0.00     0.169 HD
BRANCH  14  16
HETATM   16  C11 UNK     1      18.877  -0.455  35.724  1.00  0.00     0.056 A 
HETATM   17  C12 UNK     1      18.276  -0.285  36.961  1.00  0.00     0.060 A 
HETATM   18 Cl1  UNK     1      17.466   1.176  37.397  1.00  0.00    -0.082 Cl
HETATM   19  C14 UNK     1      18.325  -1.323  37.892  1.00  0.00     0.026 A 
HETATM   20  C16 UNK     1      18.973  -2.517  37.575  1.00  0.00     0.002 A 
HETATM   21  C15 UNK     1      19.572  -2.673  36.325  1.00  0.00     0.002 A 
HETATM   22  C13 UNK     1      19.525  -1.636  35.394  1.00  0.00     0.031 A 
ENDBRANCH  14  16
ENDBRANCH   5  12
BRANCH   9  23
HETATM   23  O2  UNK     1      18.370   8.181  32.801  1.00  0.00    -0.356 OA
HETATM   24  C17 UNK     1      17.902   8.367  34.136  1.00  0.00     0.210 C 
ENDBRANCH   9  23
TORSDOF 3
ENDMDL
MODEL 7
REMARK VINA RESULT:      -8.0     20.665     21.700
REMARK  3 active torsions:
REMARK  status: ('A' for Active; 'I' for Inactive)
REMARK    1  A    between atoms: C7_13  and  O2_3 
REMARK    2  A    between atoms: C11_17  and  N1_6 
REMARK       I    between atoms: C9_15  and  N1_6 
REMARK    3  A    between atoms: C3_9  and  C9_15 
ROOT
HETATM    1  O1  UNK     1      18.791  -8.104  36.877  1.00  0.00    -0.274 OA
HETATM    2  O3  UNK     1      17.578  -6.198  37.222  1.00  0.00    -0.259 OA
HETATM    3  C1  UNK     1      21.213  -7.970  36.705  1.00  0.00     0.002 A 
HETATM    4  C2  UNK     1      20.043  -8.724  36.697  1.00  0.00     0.089 A 
HETATM    5  C3  UNK     1      19.930  -5.948  37.071  1.00  0.00     0.108 A 
HETATM    6  C4  UNK     1      21.122  -6.531  36.901  1.00  0.00     0.037 A 
HETATM    7  C5  UNK     1      22.435  -8.621  36.522  1.00  0.00     0.051 A 
HETATM    8  C6  UNK     1      20.061 -10.105  36.513  1.00  0.00     0.041 A 
HETATM    9  C7  UNK     1      22.468 -10.007  36.337  1.00  0.00     0.069 A 
HETATM   10  C8  UNK     1      18.673  -6.729  37.067  1.00  0.00     0.304 A 
HETATM   11  C10 UNK     1      21.284 -10.746  36.333  1.00  0.00     0.039 A 
ENDROOT
BRANCH   5  12
HETATM   12  C9  UNK     1      19.942  -4.492  37.261  1.00  0.00     0.262 C 
HETATM   13  O4  UNK     1      20.781  -3.980  37.999  1.00  0.00    -0.267 OA
HETATM   14  N1  UNK     1      18.939  -3.861  36.537  1.00  0.00    -0.321 N 
HETATM   15  H5  UNK     1      18.332  -4.429  35.951  1.00  0.00     0.169 HD
BRANCH  14  16
HETATM   16  C11 UNK     1      18.655  -2.476  36.482  1.00  0.00     0.056 A 
HETATM   17  C12 UNK     1      19.149  -1.690  35.453  1.00  0.00     0.060 A 
HETATM   18 Cl1  UNK     1      20.131  -2.339  34.190  1.00  0.00    -0.082 Cl
HETATM   19  C14 UNK     1      18.850  -0.327  35.430  1.00  0.00     0.026 A 
HETATM   20  C16 UNK     1      18.062   0.232  36.435  1.00  0.00     0.002 A 
HETATM   21  C15 UNK     1      17.572  -0.572  37.464  1.00  0.00     0.002 A 
HETATM   22  C13 UNK     1      17.870  -1.934  37.488  1.00  0.00     0.031 A 
ENDBRANCH  14  16
ENDBRANCH   5  12
BRANCH   9  23
HETATM   23  O2  UNK     1      23.662 -10.638  36.161  1.00  0.00    -0.356 OA
HETATM   24  C17 UNK     1      23.620 -11.998  35.735  1.00  0.00     0.210 C 
ENDBRANCH   9  23
TORSDOF 3
ENDMDL
MODEL 8
REMARK VINA RESULT:      -8.0     19.727     22.211
REMARK  3 active torsions:
REMARK  status: ('A' for Active; 'I' for Inactive)
REMARK    1  A    between atoms: C7_13  and  O2_3 
REMARK    2  A    between atoms: C11_17  and  N1_6 
REMARK       I    between atoms: C9_15  and  N1_6 
REMARK    3  A    between atoms: C3_9  and  C9_15 
ROOT
HETATM    1  O1  UNK     1      19.573  -1.401  34.374  1.00  0.00    -0.274 OA
HETATM    2  O3  UNK     1      20.842  -3.283  34.113  1.00  0.00    -0.259 OA
HETATM    3  C1  UNK     1      18.377  -1.041  36.461  1.00  0.00     0.002 A 
HETATM    4  C2  UNK     1      18.720  -0.620  35.179  1.00  0.00     0.089 A 
HETATM    5  C3  UNK     1      19.722  -3.036  36.187  1.00  0.00     0.108 A 
HETATM    6  C4  UNK     1      18.913  -2.299  36.956  1.00  0.00     0.037 A 
HETATM    7  C5  UNK     1      17.527  -0.239  37.227  1.00  0.00     0.051 A 
HETATM    8  C6  UNK     1      18.240   0.573  34.644  1.00  0.00     0.041 A 
HETATM    9  C7  UNK     1      17.039   0.962  36.704  1.00  0.00     0.069 A 
HETATM   10  C8  UNK     1      20.101  -2.610  34.821  1.00  0.00     0.304 A 
HETATM   11  C10 UNK     1      17.394   1.366  35.417  1.00  0.00     0.039 A 
ENDROOT
BRANCH   5  12
HETATM   12  C9  UNK     1      20.211  -4.289  36.775  1.00  0.00     0.262 C 
HETATM   13  O4  UNK     1      21.415  -4.442  36.972  1.00  0.00    -0.267 OA
HETATM   14  N1  UNK     1      19.180  -5.181  37.039  1.00  0.00    -0.321 N 
HETATM   15  H5  UNK     1      18.226  -4.896  36.835  1.00  0.00     0.169 HD
BRANCH  14  16
HETATM   16  C11 UNK     1      19.282  -6.477  37.601  1.00  0.00     0.056 A 
HETATM   17  C12 UNK     1      18.780  -7.582  36.933  1.00  0.00     0.060 A 
HETATM   18 Cl1  UNK     1      18.006  -7.453  35.394  1.00  0.00    -0.082 Cl
HETATM   19  C14 UNK     1      18.897  -8.844  37.515  1.00  0.00     0.026 A 
HETATM   20  C16 UNK     1      19.514  -8.986  38.758  1.00  0.00     0.002 A 
HETATM   21  C15 UNK     1      20.015  -7.864  39.419  1.00  0.00     0.002 A 
HETATM   22  C13 UNK     1      19.898  -6.601  38.837  1.00  0.00     0.031 A 
ENDBRANCH  14  16
ENDBRANCH   5  12
BRANCH   9  23
HETATM   23  O2  UNK     1      16.213   1.741  37.456  1.00  0.00    -0.356 OA
HETATM   24  C17 UNK     1      14.827   1.734  37.117  1.00  0.00     0.210 C 
ENDBRANCH   9  23
TORSDOF 3
ENDMDL
MODEL 9
REMARK VINA RESULT:      -7.9     17.730     20.038
REMARK  3 active torsions:
REMARK  status: ('A' for Active; 'I' for Inactive)
REMARK    1  A    between atoms: C7_13  and  O2_3 
REMARK    2  A    between atoms: C11_17  and  N1_6 
REMARK       I    between atoms: C9_15  and  N1_6 
REMARK    3  A    between atoms: C3_9  and  C9_15 
ROOT
HETATM    1  O1  UNK     1      18.261   1.508  32.401  1.00  0.00    -0.274 OA
HETATM    2  O3  UNK     1      18.287   3.134  30.795  1.00  0.00    -0.259 OA
HETATM    3  C1  UNK     1      18.284   2.140  34.749  1.00  0.00     0.002 A 
HETATM    4  C2  UNK     1      18.260   1.156  33.765  1.00  0.00     0.089 A 
HETATM    5  C3  UNK     1      18.311   3.866  33.049  1.00  0.00     0.108 A 
HETATM    6  C4  UNK     1      18.310   3.538  34.346  1.00  0.00     0.037 A 
HETATM    7  C5  UNK     1      18.284   1.751  36.090  1.00  0.00     0.051 A 
HETATM    8  C6  UNK     1      18.236  -0.200  34.083  1.00  0.00     0.041 A 
HETATM    9  C7  UNK     1      18.259   0.394  36.425  1.00  0.00     0.069 A 
HETATM   10  C8  UNK     1      18.286   2.837  31.985  1.00  0.00     0.304 A 
HETATM   11  C10 UNK     1      18.235  -0.578  35.424  1.00  0.00     0.039 A 
ENDROOT
BRANCH   5  12
HETATM   12  C9  UNK     1      18.338   5.301  32.743  1.00  0.00     0.262 C 
HETATM   13  O4  UNK     1      18.294   5.677  31.574  1.00  0.00    -0.267 OA
HETATM   14  N1  UNK     1      18.419   6.080  33.890  1.00  0.00    -0.321 N 
HETATM   15  H5  UNK     1      18.427   5.614  34.795  1.00  0.00     0.169 HD
BRANCH  14  16
HETATM   16  C11 UNK     1      18.465   7.492  33.974  1.00  0.00     0.056 A 
HETATM   17  C12 UNK     1      17.315   8.250  33.827  1.00  0.00     0.060 A 
HETATM   18 Cl1  UNK     1      15.771   7.532  33.534  1.00  0.00    -0.082 Cl
HETATM   19  C14 UNK     1      17.396   9.640  33.914  1.00  0.00     0.026 A 
HETATM   20  C16 UNK     1      18.626  10.255  34.147  1.00  0.00     0.002 A 
HETATM   21  C15 UNK     1      19.776   9.478  34.293  1.00  0.00     0.002 A 
HETATM   22  C13 UNK     1      19.695   8.088  34.206  1.00  0.00     0.031 A 
ENDBRANCH  14  16
ENDBRANCH   5  12
BRANCH   9  23
HETATM   23  O2  UNK     1      18.257   0.019  37.734  1.00  0.00    -0.356 OA
HETATM   24  C17 UNK     1      18.226  -1.380  38.009  1.00  0.00     0.210 C 
ENDBRANCH   9  23
TORSDOF 3
ENDMDL
MODEL 10
REMARK VINA RESULT:      -7.8     23.529     25.503
REMARK  3 active torsions:
REMARK  status: ('A' for Active; 'I' for Inactive)
REMARK    1  A    between atoms: C7_13  and  O2_3 
REMARK    2  A    between atoms: C11_17  and  N1_6 
REMARK       I    between atoms: C9_15  and  N1_6 
REMARK    3  A    between atoms: C3_9  and  C9_15 
ROOT
HETATM    1  O1  UNK     1      27.466  -4.758  38.701  1.00  0.00    -0.274 OA
HETATM    2  O3  UNK     1      25.236  -5.216  38.887  1.00  0.00    -0.259 OA
HETATM    3  C1  UNK     1      29.055  -6.588  38.504  1.00  0.00     0.002 A 
HETATM    4  C2  UNK     1      28.790  -5.224  38.569  1.00  0.00     0.089 A 
HETATM    5  C3  UNK     1      26.691  -7.077  38.701  1.00  0.00     0.108 A 
HETATM    6  C4  UNK     1      27.945  -7.526  38.576  1.00  0.00     0.037 A 
HETATM    7  C5  UNK     1      30.380  -7.011  38.374  1.00  0.00     0.051 A 
HETATM    8  C6  UNK     1      29.807  -4.274  38.507  1.00  0.00     0.041 A 
HETATM    9  C7  UNK     1      31.412  -6.069  38.310  1.00  0.00     0.069 A 
HETATM   10  C8  UNK     1      26.384  -5.631  38.772  1.00  0.00     0.304 A 
HETATM   11  C10 UNK     1      31.125  -4.704  38.377  1.00  0.00     0.039 A 
ENDROOT
BRANCH   5  12
HETATM   12  C9  UNK     1      25.640  -8.100  38.765  1.00  0.00     0.262 C 
HETATM   13  O4  UNK     1      25.802  -9.099  39.464  1.00  0.00    -0.267 OA
HETATM   14  N1  UNK     1      24.545  -7.776  37.976  1.00  0.00    -0.321 N 
HETATM   15  H5  UNK     1      24.555  -6.895  37.468  1.00  0.00     0.169 HD
BRANCH  14  16
HETATM   16  C11 UNK     1      23.358  -8.526  37.796  1.00  0.00     0.056 A 
HETATM   17  C12 UNK     1      22.305  -8.412  38.691  1.00  0.00     0.060 A 
HETATM   18 Cl1  UNK     1      22.372  -7.366  40.063  1.00  0.00    -0.082 Cl
HETATM   19  C14 UNK     1      21.149  -9.166  38.485  1.00  0.00     0.026 A 
HETATM   20  C16 UNK     1      21.060 -10.023  37.389  1.00  0.00     0.002 A 
HETATM   21  C15 UNK     1      22.128 -10.127  36.497  1.00  0.00     0.002 A 
HETATM   22  C13 UNK     1      23.284  -9.374  36.702  1.00  0.00     0.031 A 
ENDBRANCH  14  16
ENDBRANCH   5  12
BRANCH   9  23
HETATM   23  O2  UNK     1      32.702  -6.485  38.182  1.00  0.00    -0.356 OA
HETATM   24  C17 UNK     1      32.915  -7.766  37.593  1.00  0.00     0.210 C 
ENDBRANCH   9  23
TORSDOF 3
ENDMDL
