MODEL 1
REMARK VINA RESULT:      -7.8      0.000      0.000
REMARK  2 active torsions:
REMARK  status: ('A' for Active; 'I' for Inactive)
REMARK    1  A    between atoms: C16_21  and  O4_4 
REMARK       I    between atoms: C8_13  and  N1_5 
REMARK    2  A    between atoms: C8_13  and  C9_14 
ROOT
HETATM    1  O2  UNK     1      18.496  -1.286  35.280  1.00  0.00    -0.274 OA
HETATM    2  O3  UNK     1      18.317  -1.977  37.451  1.00  0.00    -0.259 OA
HETATM    3  C9  UNK     1      19.892  -3.120  36.099  1.00  0.00     0.108 A 
HETATM    4  C10 UNK     1      20.469  -3.253  34.899  1.00  0.00     0.037 A 
HETATM    5  C11 UNK     1      18.848  -2.102  36.352  1.00  0.00     0.304 A 
HETATM    6  C12 UNK     1      20.080  -2.385  33.798  1.00  0.00     0.002 A 
HETATM    7  C13 UNK     1      19.101  -1.421  34.014  1.00  0.00     0.089 A 
HETATM    8  C14 UNK     1      20.656  -2.486  32.529  1.00  0.00     0.051 A 
HETATM    9  C15 UNK     1      18.683  -0.558  33.003  1.00  0.00     0.041 A 
HETATM   10  C16 UNK     1      20.247  -1.629  31.504  1.00  0.00     0.069 A 
HETATM   11  C17 UNK     1      19.263  -0.667  31.741  1.00  0.00     0.039 A 
ENDROOT
BRANCH   3  12
HETATM   12  C8  UNK     1      20.354  -4.047  37.151  1.00  0.00     0.260 C 
HETATM   13  O1  UNK     1      21.257  -3.659  37.894  1.00  0.00    -0.267 OA
HETATM   14  N1  UNK     1      19.745  -5.296  37.229  1.00  0.00    -0.347 N 
HETATM   15  C4  UNK     1      20.181  -6.245  38.256  1.00  0.00     0.130 C 
HETATM   16  C5  UNK     1      18.640  -5.784  36.392  1.00  0.00     0.130 C 
HETATM   17  C1  UNK     1      20.628  -7.567  37.619  1.00  0.00    -0.000 C 
HETATM   18  C3  UNK     1      19.525  -8.128  36.704  1.00  0.00     0.011 C 
HETATM   19  C6  UNK     1      21.007  -8.584  38.693  1.00  0.00     0.011 C 
HETATM   20  C2  UNK     1      19.015  -7.094  35.684  1.00  0.00    -0.000 C 
HETATM   21  C7  UNK     1      20.029  -6.851  34.564  1.00  0.00     0.011 C 
ENDBRANCH   3  12
BRANCH  10  22
HETATM   22  O4  UNK     1      20.811  -1.731  30.269  1.00  0.00    -0.356 OA
HETATM   23  C18 UNK     1      20.466  -0.730  29.313  1.00  0.00     0.210 C 
ENDBRANCH  10  22
TORSDOF 2
ENDMDL
MODEL 2
REMARK VINA RESULT:      -7.8      6.512      8.742
REMARK  2 active torsions:
REMARK  status: ('A' for Active; 'I' for Inactive)
REMARK    1  A    between atoms: C16_21  and  O4_4 
REMARK       I    between atoms: C8_13  and  N1_5 
REMARK    2  A    between atoms: C8_13  and  C9_14 
ROOT
HETATM    1  O2  UNK     1      25.701  -5.716  38.628  1.00  0.00    -0.274 OA
HETATM    2  O3  UNK     1      23.457  -5.399  38.926  1.00  0.00    -0.259 OA
HETATM    3  C9  UNK     1      24.236  -7.635  39.021  1.00  0.00     0.108 A 
HETATM    4  C10 UNK     1      25.274  -8.477  38.947  1.00  0.00     0.037 A 
HETATM    5  C11 UNK     1      24.406  -6.173  38.859  1.00  0.00     0.304 A 
HETATM    6  C12 UNK     1      26.615  -7.967  38.705  1.00  0.00     0.002 A 
HETATM    7  C13 UNK     1      26.798  -6.597  38.550  1.00  0.00     0.089 A 
HETATM    8  C14 UNK     1      27.728  -8.808  38.622  1.00  0.00     0.051 A 
HETATM    9  C15 UNK     1      28.055  -6.045  38.316  1.00  0.00     0.041 A 
HETATM   10  C16 UNK     1      28.997  -8.270  38.386  1.00  0.00     0.069 A 
HETATM   11  C17 UNK     1      29.159  -6.891  38.234  1.00  0.00     0.039 A 
ENDROOT
BRANCH   3  12
HETATM   12  C8  UNK     1      22.916  -8.248  39.269  1.00  0.00     0.260 C 
HETATM   13  O1  UNK     1      22.589  -8.435  40.442  1.00  0.00    -0.267 OA
HETATM   14  N1  UNK     1      22.135  -8.577  38.167  1.00  0.00    -0.347 N 
HETATM   15  C4  UNK     1      20.822  -9.192  38.374  1.00  0.00     0.130 C 
HETATM   16  C5  UNK     1      22.468  -8.335  36.755  1.00  0.00     0.130 C 
HETATM   17  C1  UNK     1      20.729 -10.534  37.635  1.00  0.00    -0.000 C 
HETATM   18  C3  UNK     1      21.090 -10.361  36.149  1.00  0.00     0.011 C 
HETATM   19  C6  UNK     1      19.334 -11.137  37.785  1.00  0.00     0.011 C 
HETATM   20  C2  UNK     1      22.432  -9.637  35.944  1.00  0.00    -0.000 C 
HETATM   21  C7  UNK     1      23.623 -10.537  36.283  1.00  0.00     0.011 C 
ENDBRANCH   3  12
BRANCH  10  22
HETATM   22  O4  UNK     1      30.078  -9.093  38.306  1.00  0.00    -0.356 OA
HETATM   23  C18 UNK     1      31.345  -8.478  38.073  1.00  0.00     0.210 C 
ENDBRANCH  10  22
TORSDOF 2
ENDMDL
MODEL 3
REMARK VINA RESULT:      -7.7     15.402     19.208
REMARK  2 active torsions:
REMARK  status: ('A' for Active; 'I' for Inactive)
REMARK    1  A    between atoms: C16_21  and  O4_4 
REMARK       I    between atoms: C8_13  and  N1_5 
REMARK    2  A    between atoms: C8_13  and  C9_14 
ROOT
HETATM    1  O2  UNK     1      19.385   1.282  15.560  1.00  0.00    -0.274 OA
HETATM    2  O3  UNK     1      19.438  -0.114  13.752  1.00  0.00    -0.259 OA
HETATM    3  C9  UNK     1      18.910  -1.101  15.840  1.00  0.00     0.108 A 
HETATM    4  C10 UNK     1      18.720  -0.936  17.155  1.00  0.00     0.037 A 
HETATM    5  C11 UNK     1      19.263   0.033  14.956  1.00  0.00     0.304 A 
HETATM    6  C12 UNK     1      18.855   0.382  17.755  1.00  0.00     0.002 A 
HETATM    7  C13 UNK     1      19.186   1.462  16.943  1.00  0.00     0.089 A 
HETATM    8  C14 UNK     1      18.664   0.601  19.122  1.00  0.00     0.051 A 
HETATM    9  C15 UNK     1      19.330   2.750  17.455  1.00  0.00     0.041 A 
HETATM   10  C16 UNK     1      18.806   1.887  19.651  1.00  0.00     0.069 A 
HETATM   11  C17 UNK     1      19.139   2.959  18.820  1.00  0.00     0.039 A 
ENDROOT
BRANCH   3  12
HETATM   12  C8  UNK     1      18.751  -2.475  15.326  1.00  0.00     0.260 C 
HETATM   13  O1  UNK     1      17.604  -2.912  15.219  1.00  0.00    -0.267 OA
HETATM   14  N1  UNK     1      19.902  -3.185  15.001  1.00  0.00    -0.347 N 
HETATM   15  C4  UNK     1      19.784  -4.554  14.493  1.00  0.00     0.130 C 
HETATM   16  C5  UNK     1      21.285  -2.690  15.074  1.00  0.00     0.130 C 
HETATM   17  C1  UNK     1      20.583  -5.528  15.368  1.00  0.00    -0.000 C 
HETATM   18  C3  UNK     1      22.043  -5.058  15.510  1.00  0.00     0.011 C 
HETATM   19  C6  UNK     1      20.526  -6.942  14.793  1.00  0.00     0.011 C 
HETATM   20  C2  UNK     1      22.152  -3.591  15.963  1.00  0.00    -0.000 C 
HETATM   21  C7  UNK     1      21.797  -3.423  17.442  1.00  0.00     0.011 C 
ENDBRANCH   3  12
BRANCH  10  22
HETATM   22  O4  UNK     1      18.619   2.096  20.983  1.00  0.00    -0.356 OA
HETATM   23  C18 UNK     1      19.784   2.111  21.808  1.00  0.00     0.210 C 
ENDBRANCH  10  22
TORSDOF 2
ENDMDL
MODEL 4
REMARK VINA RESULT:      -7.3     13.313     14.543
REMARK  2 active torsions:
REMARK  status: ('A' for Active; 'I' for Inactive)
REMARK    1  A    between atoms: C16_21  and  O4_4 
REMARK       I    between atoms: C8_13  and  N1_5 
REMARK    2  A    between atoms: C8_13  and  C9_14 
ROOT
HETATM    1  O2  UNK     1      35.759  -7.305  35.173  1.00  0.00    -0.274 OA
HETATM    2  O3  UNK     1      35.105  -6.207  37.068  1.00  0.00    -0.259 OA
HETATM    3  C9  UNK     1      33.749  -5.911  35.148  1.00  0.00     0.108 A 
HETATM    4  C10 UNK     1      33.535  -6.197  33.858  1.00  0.00     0.037 A 
HETATM    5  C11 UNK     1      34.905  -6.467  35.887  1.00  0.00     0.304 A 
HETATM    6  C12 UNK     1      34.445  -7.076  33.141  1.00  0.00     0.002 A 
HETATM    7  C13 UNK     1      35.538  -7.609  33.816  1.00  0.00     0.089 A 
HETATM    8  C14 UNK     1      34.260  -7.403  31.795  1.00  0.00     0.051 A 
HETATM    9  C15 UNK     1      36.447  -8.458  33.187  1.00  0.00     0.041 A 
HETATM   10  C16 UNK     1      35.164  -8.252  31.150  1.00  0.00     0.069 A 
HETATM   11  C17 UNK     1      36.255  -8.778  31.845  1.00  0.00     0.039 A 
ENDROOT
BRANCH   3  12
HETATM   12  C8  UNK     1      32.770  -5.010  35.788  1.00  0.00     0.260 C 
HETATM   13  O1  UNK     1      33.040  -3.809  35.820  1.00  0.00    -0.267 OA
HETATM   14  N1  UNK     1      31.614  -5.577  36.314  1.00  0.00    -0.347 N 
HETATM   15  C4  UNK     1      30.622  -4.716  36.963  1.00  0.00     0.130 C 
HETATM   16  C5  UNK     1      31.233  -6.996  36.262  1.00  0.00     0.130 C 
HETATM   17  C1  UNK     1      30.356  -5.181  38.400  1.00  0.00    -0.000 C 
HETATM   18  C3  UNK     1      29.973  -6.672  38.426  1.00  0.00     0.011 C 
HETATM   19  C6  UNK     1      29.264  -4.334  39.049  1.00  0.00     0.011 C 
HETATM   20  C2  UNK     1      30.980  -7.557  37.668  1.00  0.00    -0.000 C 
HETATM   21  C7  UNK     1      32.288  -7.725  38.444  1.00  0.00     0.011 C 
ENDBRANCH   3  12
BRANCH  10  22
HETATM   22  O4  UNK     1      34.979  -8.568  29.838  1.00  0.00    -0.356 OA
HETATM   23  C18 UNK     1      34.707  -7.490  28.944  1.00  0.00     0.210 C 
ENDBRANCH  10  22
TORSDOF 2
ENDMDL
MODEL 5
REMARK VINA RESULT:      -7.2     10.381     12.301
REMARK  2 active torsions:
REMARK  status: ('A' for Active; 'I' for Inactive)
REMARK    1  A    between atoms: C16_21  and  O4_4 
REMARK       I    between atoms: C8_13  and  N1_5 
REMARK    2  A    between atoms: C8_13  and  C9_14 
ROOT
HETATM    1  O2  UNK     1      29.116  -6.179  37.175  1.00  0.00    -0.274 OA
HETATM    2  O3  UNK     1      27.239  -6.948  36.123  1.00  0.00    -0.259 OA
HETATM    3  C9  UNK     1      29.319  -7.588  35.186  1.00  0.00     0.108 A 
HETATM    4  C10 UNK     1      30.655  -7.528  35.247  1.00  0.00     0.037 A 
HETATM    5  C11 UNK     1      28.463  -6.895  36.176  1.00  0.00     0.304 A 
HETATM    6  C12 UNK     1      31.307  -6.771  36.304  1.00  0.00     0.002 A 
HETATM    7  C13 UNK     1      30.521  -6.113  37.245  1.00  0.00     0.089 A 
HETATM    8  C14 UNK     1      32.698  -6.682  36.408  1.00  0.00     0.051 A 
HETATM    9  C15 UNK     1      31.083  -5.371  38.282  1.00  0.00     0.041 A 
HETATM   10  C16 UNK     1      33.277  -5.941  37.442  1.00  0.00     0.069 A 
HETATM   11  C17 UNK     1      32.471  -5.288  38.377  1.00  0.00     0.039 A 
ENDROOT
BRANCH   3  12
HETATM   12  C8  UNK     1      28.752  -8.380  34.077  1.00  0.00     0.260 C 
HETATM   13  O1  UNK     1      28.578  -9.584  34.270  1.00  0.00    -0.267 OA
HETATM   14  N1  UNK     1      28.457  -7.717  32.890  1.00  0.00    -0.347 N 
HETATM   15  C4  UNK     1      27.898  -8.471  31.765  1.00  0.00     0.130 C 
HETATM   16  C5  UNK     1      28.610  -6.278  32.630  1.00  0.00     0.130 C 
HETATM   17  C1  UNK     1      28.776  -8.313  30.517  1.00  0.00    -0.000 C 
HETATM   18  C3  UNK     1      29.001  -6.824  30.196  1.00  0.00     0.011 C 
HETATM   19  C6  UNK     1      28.152  -9.033  29.323  1.00  0.00     0.011 C 
HETATM   20  C2  UNK     1      29.507  -6.026  31.411  1.00  0.00    -0.000 C 
HETATM   21  C7  UNK     1      30.973  -6.334  31.724  1.00  0.00     0.011 C 
ENDBRANCH   3  12
BRANCH  10  22
HETATM   22  O4  UNK     1      34.632  -5.857  37.539  1.00  0.00    -0.356 OA
HETATM   23  C18 UNK     1      35.363  -5.727  36.321  1.00  0.00     0.210 C 
ENDBRANCH  10  22
TORSDOF 2
ENDMDL
MODEL 6
REMARK VINA RESULT:      -7.2     10.330     12.532
REMARK  2 active torsions:
REMARK  status: ('A' for Active; 'I' for Inactive)
REMARK    1  A    between atoms: C16_21  and  O4_4 
REMARK       I    between atoms: C8_13  and  N1_5 
REMARK    2  A    between atoms: C8_13  and  C9_14 
ROOT
HETATM    1  O2  UNK     1      31.527  -4.287  36.210  1.00  0.00    -0.274 OA
HETATM    2  O3  UNK     1      32.683  -4.367  34.241  1.00  0.00    -0.259 OA
HETATM    3  C9  UNK     1      31.319  -6.237  34.749  1.00  0.00     0.108 A 
HETATM    4  C10 UNK     1      30.470  -6.820  35.603  1.00  0.00     0.037 A 
HETATM    5  C11 UNK     1      31.905  -4.905  35.021  1.00  0.00     0.304 A 
HETATM    6  C12 UNK     1      30.095  -6.149  36.838  1.00  0.00     0.002 A 
HETATM    7  C13 UNK     1      30.633  -4.896  37.113  1.00  0.00     0.089 A 
HETATM    8  C14 UNK     1      29.211  -6.719  37.758  1.00  0.00     0.051 A 
HETATM    9  C15 UNK     1      30.315  -4.199  38.277  1.00  0.00     0.041 A 
HETATM   10  C16 UNK     1      28.882  -6.033  38.931  1.00  0.00     0.069 A 
HETATM   11  C17 UNK     1      29.433  -4.776  39.189  1.00  0.00     0.039 A 
ENDROOT
BRANCH   3  12
HETATM   12  C8  UNK     1      31.638  -6.998  33.525  1.00  0.00     0.260 C 
HETATM   13  O1  UNK     1      32.744  -7.538  33.464  1.00  0.00    -0.267 OA
HETATM   14  N1  UNK     1      30.675  -7.050  32.522  1.00  0.00    -0.347 N 
HETATM   15  C4  UNK     1      30.957  -7.790  31.291  1.00  0.00     0.130 C 
HETATM   16  C5  UNK     1      29.331  -6.456  32.570  1.00  0.00     0.130 C 
HETATM   17  C1  UNK     1      30.806  -6.881  30.064  1.00  0.00    -0.000 C 
HETATM   18  C3  UNK     1      29.424  -6.202  30.060  1.00  0.00     0.011 C 
HETATM   19  C6  UNK     1      31.022  -7.671  28.775  1.00  0.00     0.011 C 
HETATM   20  C2  UNK     1      29.103  -5.499  31.392  1.00  0.00    -0.000 C 
HETATM   21  C7  UNK     1      29.904  -4.206  31.561  1.00  0.00     0.011 C 
ENDBRANCH   3  12
BRANCH  10  22
HETATM   22  O4  UNK     1      28.021  -6.592  39.824  1.00  0.00    -0.356 OA
HETATM   23  C18 UNK     1      27.654  -7.954  39.606  1.00  0.00     0.210 C 
ENDBRANCH  10  22
TORSDOF 2
ENDMDL
MODEL 7
REMARK VINA RESULT:      -7.2     27.614     29.503
REMARK  2 active torsions:
REMARK  status: ('A' for Active; 'I' for Inactive)
REMARK    1  A    between atoms: C16_21  and  O4_4 
REMARK       I    between atoms: C8_13  and  N1_5 
REMARK    2  A    between atoms: C8_13  and  C9_14 
ROOT
HETATM    1  O2  UNK     1      16.662   9.242  10.571  1.00  0.00    -0.274 OA
HETATM    2  O3  UNK     1      15.285   7.770  11.647  1.00  0.00    -0.259 OA
HETATM    3  C9  UNK     1      14.336   8.997   9.856  1.00  0.00     0.108 A 
HETATM    4  C10 UNK     1      14.507   9.913   8.895  1.00  0.00     0.037 A 
HETATM    5  C11 UNK     1      15.438   8.608  10.766  1.00  0.00     0.304 A 
HETATM    6  C12 UNK     1      15.799  10.557   8.718  1.00  0.00     0.002 A 
HETATM    7  C13 UNK     1      16.848  10.207   9.561  1.00  0.00     0.089 A 
HETATM    8  C14 UNK     1      16.023  11.517   7.727  1.00  0.00     0.051 A 
HETATM    9  C15 UNK     1      18.110  10.786   9.444  1.00  0.00     0.041 A 
HETATM   10  C16 UNK     1      17.284  12.108   7.597  1.00  0.00     0.069 A 
HETATM   11  C17 UNK     1      18.324  11.743   8.454  1.00  0.00     0.039 A 
ENDROOT
BRANCH   3  12
HETATM   12  C8  UNK     1      12.990   8.400   9.957  1.00  0.00     0.260 C 
HETATM   13  O1  UNK     1      12.220   8.874  10.795  1.00  0.00    -0.267 OA
HETATM   14  N1  UNK     1      12.682   7.344   9.106  1.00  0.00    -0.347 N 
HETATM   15  C4  UNK     1      11.358   6.722   9.181  1.00  0.00     0.130 C 
HETATM   16  C5  UNK     1      13.553   6.775   8.067  1.00  0.00     0.130 C 
HETATM   17  C1  UNK     1      11.480   5.216   9.446  1.00  0.00    -0.000 C 
HETATM   18  C3  UNK     1      12.402   4.554   8.406  1.00  0.00     0.011 C 
HETATM   19  C6  UNK     1      10.104   4.554   9.445  1.00  0.00     0.011 C 
HETATM   20  C2  UNK     1      13.759   5.269   8.276  1.00  0.00    -0.000 C 
HETATM   21  C7  UNK     1      14.667   4.992   9.477  1.00  0.00     0.011 C 
ENDBRANCH   3  12
BRANCH  10  22
HETATM   22  O4  UNK     1      17.498  13.042   6.631  1.00  0.00    -0.356 OA
HETATM   23  C18 UNK     1      18.708  12.936   5.883  1.00  0.00     0.210 C 
ENDBRANCH  10  22
TORSDOF 2
ENDMDL
MODEL 8
REMARK VINA RESULT:      -7.2     13.920     15.699
REMARK  2 active torsions:
REMARK  status: ('A' for Active; 'I' for Inactive)
REMARK    1  A    between atoms: C16_21  and  O4_4 
REMARK       I    between atoms: C8_13  and  N1_5 
REMARK    2  A    between atoms: C8_13  and  C9_14 
ROOT
HETATM    1  O2  UNK     1      35.803  -7.014  30.873  1.00  0.00    -0.274 OA
HETATM    2  O3  UNK     1      35.042  -7.118  28.721  1.00  0.00    -0.259 OA
HETATM    3  C9  UNK     1      33.421  -7.353  30.434  1.00  0.00     0.108 A 
HETATM    4  C10 UNK     1      33.157  -7.394  31.745  1.00  0.00     0.037 A 
HETATM    5  C11 UNK     1      34.796  -7.156  29.922  1.00  0.00     0.304 A 
HETATM    6  C12 UNK     1      34.231  -7.242  32.714  1.00  0.00     0.002 A 
HETATM    7  C13 UNK     1      35.531  -7.056  32.255  1.00  0.00     0.089 A 
HETATM    8  C14 UNK     1      34.002  -7.277  34.092  1.00  0.00     0.051 A 
HETATM    9  C15 UNK     1      36.605  -6.904  33.131  1.00  0.00     0.041 A 
HETATM   10  C16 UNK     1      35.069  -7.127  34.983  1.00  0.00     0.069 A 
HETATM   11  C17 UNK     1      36.367  -6.941  34.503  1.00  0.00     0.039 A 
ENDROOT
BRANCH   3  12
HETATM   12  C8  UNK     1      32.265  -7.516  29.530  1.00  0.00     0.260 C 
HETATM   13  O1  UNK     1      31.731  -6.493  29.100  1.00  0.00    -0.267 OA
HETATM   14  N1  UNK     1      31.853  -8.811  29.230  1.00  0.00    -0.347 N 
HETATM   15  C4  UNK     1      30.706  -9.013  28.342  1.00  0.00     0.130 C 
HETATM   16  C5  UNK     1      32.484 -10.057  29.688  1.00  0.00     0.130 C 
HETATM   17  C1  UNK     1      29.626  -9.856  29.033  1.00  0.00    -0.000 C 
HETATM   18  C3  UNK     1      30.223 -11.173  29.563  1.00  0.00     0.011 C 
HETATM   19  C6  UNK     1      28.466 -10.135  28.081  1.00  0.00     0.011 C 
HETATM   20  C2  UNK     1      31.478 -10.952  30.425  1.00  0.00    -0.000 C 
HETATM   21  C7  UNK     1      31.131 -10.381  31.802  1.00  0.00     0.011 C 
ENDBRANCH   3  12
BRANCH  10  22
HETATM   22  O4  UNK     1      34.841  -7.162  36.325  1.00  0.00    -0.356 OA
HETATM   23  C18 UNK     1      34.568  -5.918  36.969  1.00  0.00     0.210 C 
ENDBRANCH  10  22
TORSDOF 2
ENDMDL
MODEL 9
REMARK VINA RESULT:      -7.1     28.222     30.099
REMARK  2 active torsions:
REMARK  status: ('A' for Active; 'I' for Inactive)
REMARK    1  A    between atoms: C16_21  and  O4_4 
REMARK       I    between atoms: C8_13  and  N1_5 
REMARK    2  A    between atoms: C8_13  and  C9_14 
ROOT
HETATM    1  O2  UNK     1      15.709   8.083  10.034  1.00  0.00    -0.274 OA
HETATM    2  O3  UNK     1      13.995   6.698  10.640  1.00  0.00    -0.259 OA
HETATM    3  C9  UNK     1      13.392   8.747   9.612  1.00  0.00     0.108 A 
HETATM    4  C10 UNK     1      13.794   9.900   9.065  1.00  0.00     0.037 A 
HETATM    5  C11 UNK     1      14.359   7.756  10.138  1.00  0.00     0.304 A 
HETATM    6  C12 UNK     1      15.212  10.212   8.971  1.00  0.00     0.002 A 
HETATM    7  C13 UNK     1      16.137   9.296   9.459  1.00  0.00     0.089 A 
HETATM    8  C14 UNK     1      15.677  11.403   8.406  1.00  0.00     0.051 A 
HETATM    9  C15 UNK     1      17.509   9.534   9.399  1.00  0.00     0.041 A 
HETATM   10  C16 UNK     1      17.050  11.657   8.340  1.00  0.00     0.069 A 
HETATM   11  C17 UNK     1      17.963  10.724   8.835  1.00  0.00     0.039 A 
ENDROOT
BRANCH   3  12
HETATM   12  C8  UNK     1      11.934   8.521   9.662  1.00  0.00     0.260 C 
HETATM   13  O1  UNK     1      11.346   8.834  10.699  1.00  0.00    -0.267 OA
HETATM   14  N1  UNK     1      11.324   7.968   8.541  1.00  0.00    -0.347 N 
HETATM   15  C4  UNK     1       9.880   7.724   8.556  1.00  0.00     0.130 C 
HETATM   16  C5  UNK     1      11.978   7.619   7.272  1.00  0.00     0.130 C 
HETATM   17  C1  UNK     1       9.576   6.249   8.265  1.00  0.00    -0.000 C 
HETATM   18  C3  UNK     1      10.252   5.803   6.956  1.00  0.00     0.011 C 
HETATM   19  C6  UNK     1       8.068   6.010   8.200  1.00  0.00     0.011 C 
HETATM   20  C2  UNK     1      11.753   6.142   6.918  1.00  0.00    -0.000 C 
HETATM   21  C7  UNK     1      12.569   5.221   7.829  1.00  0.00     0.011 C 
ENDBRANCH   3  12
BRANCH  10  22
HETATM   22  O4  UNK     1      17.498  12.818   7.789  1.00  0.00    -0.356 OA
HETATM   23  C18 UNK     1      18.321  12.711   6.628  1.00  0.00     0.210 C 
ENDBRANCH  10  22
TORSDOF 2
ENDMDL
MODEL 10
REMARK VINA RESULT:      -7.1     13.341     15.128
REMARK  2 active torsions:
REMARK  status: ('A' for Active; 'I' for Inactive)
REMARK    1  A    between atoms: C16_21  and  O4_4 
REMARK       I    between atoms: C8_13  and  N1_5 
REMARK    2  A    between atoms: C8_13  and  C9_14 
ROOT
HETATM    1  O2  UNK     1      34.565  -9.043  29.688  1.00  0.00    -0.274 OA
HETATM    2  O3  UNK     1      32.912  -8.868  28.120  1.00  0.00    -0.259 OA
HETATM    3  C9  UNK     1      32.617  -7.626  30.117  1.00  0.00     0.108 A 
HETATM    4  C10 UNK     1      33.098  -7.282  31.317  1.00  0.00     0.037 A 
HETATM    5  C11 UNK     1      33.349  -8.550  29.221  1.00  0.00     0.304 A 
HETATM    6  C12 UNK     1      34.372  -7.814  31.777  1.00  0.00     0.002 A 
HETATM    7  C13 UNK     1      35.076  -8.683  30.951  1.00  0.00     0.089 A 
HETATM    8  C14 UNK     1      34.913  -7.481  33.022  1.00  0.00     0.051 A 
HETATM    9  C15 UNK     1      36.301  -9.228  31.331  1.00  0.00     0.041 A 
HETATM   10  C16 UNK     1      36.140  -8.019  33.418  1.00  0.00     0.069 A 
HETATM   11  C17 UNK     1      36.833  -8.891  32.575  1.00  0.00     0.039 A 
ENDROOT
BRANCH   3  12
HETATM   12  C8  UNK     1      31.318  -7.035  29.741  1.00  0.00     0.260 C 
HETATM   13  O1  UNK     1      31.326  -5.891  29.282  1.00  0.00    -0.267 OA
HETATM   14  N1  UNK     1      30.174  -7.803  29.933  1.00  0.00    -0.347 N 
HETATM   15  C4  UNK     1      28.867  -7.247  29.577  1.00  0.00     0.130 C 
HETATM   16  C5  UNK     1      30.122  -9.183  30.437  1.00  0.00     0.130 C 
HETATM   17  C1  UNK     1      27.922  -7.267  30.785  1.00  0.00    -0.000 C 
HETATM   18  C3  UNK     1      27.836  -8.683  31.384  1.00  0.00     0.011 C 
HETATM   19  C6  UNK     1      26.534  -6.763  30.394  1.00  0.00     0.011 C 
HETATM   20  C2  UNK     1      29.221  -9.289  31.675  1.00  0.00    -0.000 C 
HETATM   21  C7  UNK     1      29.878  -8.648  32.900  1.00  0.00     0.011 C 
ENDBRANCH   3  12
BRANCH  10  22
HETATM   22  O4  UNK     1      36.664  -7.692  34.631  1.00  0.00    -0.356 OA
HETATM   23  C18 UNK     1      36.036  -6.626  35.343  1.00  0.00     0.210 C 
ENDBRANCH  10  22
TORSDOF 2
ENDMDL
