MODEL 1
REMARK VINA RESULT:      -7.4      0.000      0.000
REMARK  5 active torsions:
REMARK  status: ('A' for Active; 'I' for Inactive)
REMARK    1  A    between atoms: C13_17  and  O3_3 
REMARK    2  A    between atoms: C15_19  and  O3_3 
REMARK    3  A    between atoms: C1_5  and  C2_6 
REMARK    4  A    between atoms: C1_5  and  C3_7 
REMARK    5  A    between atoms: C3_7  and  C6_10 
ROOT
HETATM    1  O1  UNK     1      18.100   2.981  33.458  1.00  0.00    -0.274 OA
HETATM    2  O2  UNK     1      18.167   0.801  34.085  1.00  0.00    -0.259 OA
HETATM    3  C2  UNK     1      18.663   1.258  31.799  1.00  0.00     0.024 A 
HETATM    4  C4  UNK     1      18.766   2.185  30.823  1.00  0.00    -0.037 A 
HETATM    5  C5  UNK     1      18.567   3.612  31.155  1.00  0.00     0.005 A 
HETATM    6  C7  UNK     1      18.239   3.960  32.461  1.00  0.00     0.093 A 
HETATM    7  C8  UNK     1      18.299   1.637  33.195  1.00  0.00     0.295 A 
HETATM    8  C9  UNK     1      19.063   1.854  29.382  1.00  0.00     0.050 C 
HETATM    9  C10 UNK     1      18.698   4.658  30.228  1.00  0.00     0.017 A 
HETATM   10  C12 UNK     1      18.034   5.283  32.858  1.00  0.00     0.075 A 
HETATM   11  C13 UNK     1      18.162   6.304  31.922  1.00  0.00     0.081 A 
HETATM   12  C14 UNK     1      18.496   5.990  30.607  1.00  0.00     0.038 A 
ENDROOT
BRANCH   3  13
HETATM   13  C1  UNK     1      18.904  -0.219  31.613  1.00  0.00     0.045 C 
BRANCH  13  14
HETATM   14  C3  UNK     1      20.375  -0.512  31.347  1.00  0.00     0.004 C 
BRANCH  14  15
HETATM   15  C6  UNK     1      20.526  -1.587  30.270  1.00  0.00    -0.004 C 
HETATM   16  C11 UNK     1      20.818  -0.975  28.909  1.00  0.00     0.005 C 
ENDBRANCH  14  15
ENDBRANCH  13  14
ENDBRANCH   3  13
BRANCH  11  17
HETATM   17  O3  UNK     1      17.968   7.598  32.288  1.00  0.00    -0.279 OA
BRANCH  17  18
HETATM   18  C15 UNK     1      16.679   8.086  32.009  1.00  0.00     0.260 C 
HETATM   19  O4  UNK     1      16.266   8.423  30.908  1.00  0.00    -0.265 OA
HETATM   20  C16 UNK     1      15.867   8.143  33.269  1.00  0.00     0.126 C 
ENDBRANCH  17  18
ENDBRANCH  11  17
TORSDOF 5
ENDMDL
MODEL 2
REMARK VINA RESULT:      -7.4      1.959      2.980
REMARK  5 active torsions:
REMARK  status: ('A' for Active; 'I' for Inactive)
REMARK    1  A    between atoms: C13_17  and  O3_3 
REMARK    2  A    between atoms: C15_19  and  O3_3 
REMARK    3  A    between atoms: C1_5  and  C2_6 
REMARK    4  A    between atoms: C1_5  and  C3_7 
REMARK    5  A    between atoms: C3_7  and  C6_10 
ROOT
HETATM    1  O1  UNK     1      17.569   4.052  33.281  1.00  0.00    -0.274 OA
HETATM    2  O2  UNK     1      17.930   1.983  32.421  1.00  0.00    -0.259 OA
HETATM    3  C2  UNK     1      18.669   3.821  31.096  1.00  0.00     0.024 A 
HETATM    4  C4  UNK     1      18.748   5.162  30.959  1.00  0.00    -0.037 A 
HETATM    5  C5  UNK     1      18.251   6.032  32.044  1.00  0.00     0.005 A 
HETATM    6  C7  UNK     1      17.677   5.447  33.167  1.00  0.00     0.093 A 
HETATM    7  C8  UNK     1      18.041   3.200  32.298  1.00  0.00     0.295 A 
HETATM    8  C9  UNK     1      19.310   5.845  29.737  1.00  0.00     0.050 C 
HETATM    9  C10 UNK     1      18.329   7.434  32.023  1.00  0.00     0.017 A 
HETATM   10  C12 UNK     1      17.183   6.197  34.237  1.00  0.00     0.075 A 
HETATM   11  C13 UNK     1      17.264   7.584  34.193  1.00  0.00     0.081 A 
HETATM   12  C14 UNK     1      17.840   8.202  33.086  1.00  0.00     0.038 A 
ENDROOT
BRANCH   3  13
HETATM   13  C1  UNK     1      19.194   2.820  30.099  1.00  0.00     0.045 C 
BRANCH  13  14
HETATM   14  C3  UNK     1      18.135   2.460  29.064  1.00  0.00     0.004 C 
BRANCH  14  15
HETATM   15  C6  UNK     1      18.329   1.027  28.567  1.00  0.00    -0.004 C 
HETATM   16  C11 UNK     1      19.619   0.423  29.097  1.00  0.00     0.005 C 
ENDBRANCH  14  15
ENDBRANCH  13  14
ENDBRANCH   3  13
BRANCH  11  17
HETATM   17  O3  UNK     1      16.790   8.332  35.224  1.00  0.00    -0.279 OA
BRANCH  17  18
HETATM   18  C15 UNK     1      15.933   9.374  34.831  1.00  0.00     0.260 C 
HETATM   19  O4  UNK     1      16.160  10.570  34.951  1.00  0.00    -0.265 OA
HETATM   20  C16 UNK     1      14.676   8.811  34.236  1.00  0.00     0.126 C 
ENDBRANCH  17  18
ENDBRANCH  11  17
TORSDOF 5
ENDMDL
MODEL 3
REMARK VINA RESULT:      -7.3      1.590      6.852
REMARK  5 active torsions:
REMARK  status: ('A' for Active; 'I' for Inactive)
REMARK    1  A    between atoms: C13_17  and  O3_3 
REMARK    2  A    between atoms: C15_19  and  O3_3 
REMARK    3  A    between atoms: C1_5  and  C2_6 
REMARK    4  A    between atoms: C1_5  and  C3_7 
REMARK    5  A    between atoms: C3_7  and  C6_10 
ROOT
HETATM    1  O1  UNK     1      17.979   3.855  33.293  1.00  0.00    -0.274 OA
HETATM    2  O2  UNK     1      17.474   5.805  34.339  1.00  0.00    -0.259 OA
HETATM    3  C2  UNK     1      18.086   5.967  32.042  1.00  0.00     0.024 A 
HETATM    4  C4  UNK     1      18.500   5.324  30.930  1.00  0.00    -0.037 A 
HETATM    5  C5  UNK     1      18.639   3.853  30.952  1.00  0.00     0.005 A 
HETATM    6  C7  UNK     1      18.375   3.170  32.134  1.00  0.00     0.093 A 
HETATM    7  C8  UNK     1      17.817   5.230  33.310  1.00  0.00     0.295 A 
HETATM    8  C9  UNK     1      18.853   6.025  29.641  1.00  0.00     0.050 C 
HETATM    9  C10 UNK     1      19.015   3.085  29.839  1.00  0.00     0.017 A 
HETATM   10  C12 UNK     1      18.481   1.781  32.240  1.00  0.00     0.075 A 
HETATM   11  C13 UNK     1      18.862   1.040  31.127  1.00  0.00     0.081 A 
HETATM   12  C14 UNK     1      19.127   1.692  29.926  1.00  0.00     0.038 A 
ENDROOT
BRANCH   3  13
HETATM   13  C1  UNK     1      17.842   7.452  32.139  1.00  0.00     0.045 C 
BRANCH  13  14
HETATM   14  C3  UNK     1      16.521   7.841  31.487  1.00  0.00     0.004 C 
BRANCH  14  15
HETATM   15  C6  UNK     1      15.449   8.098  32.547  1.00  0.00    -0.004 C 
HETATM   16  C11 UNK     1      14.203   7.265  32.293  1.00  0.00     0.005 C 
ENDBRANCH  14  15
ENDBRANCH  13  14
ENDBRANCH   3  13
BRANCH  11  17
HETATM   17  O3  UNK     1      18.971  -0.313  31.209  1.00  0.00    -0.279 OA
BRANCH  17  18
HETATM   18  C15 UNK     1      20.250  -0.806  30.899  1.00  0.00     0.260 C 
HETATM   19  O4  UNK     1      21.285  -0.534  31.493  1.00  0.00    -0.265 OA
HETATM   20  C16 UNK     1      20.174  -1.725  29.715  1.00  0.00     0.126 C 
ENDBRANCH  17  18
ENDBRANCH  11  17
TORSDOF 5
ENDMDL
MODEL 4
REMARK VINA RESULT:      -7.2     22.299     24.113
REMARK  5 active torsions:
REMARK  status: ('A' for Active; 'I' for Inactive)
REMARK    1  A    between atoms: C13_17  and  O3_3 
REMARK    2  A    between atoms: C15_19  and  O3_3 
REMARK    3  A    between atoms: C1_5  and  C2_6 
REMARK    4  A    between atoms: C1_5  and  C3_7 
REMARK    5  A    between atoms: C3_7  and  C6_10 
ROOT
HETATM    1  O1  UNK     1      14.042   5.213   8.932  1.00  0.00    -0.274 OA
HETATM    2  O2  UNK     1      16.231   5.012   9.497  1.00  0.00    -0.259 OA
HETATM    3  C2  UNK     1      15.157   7.039  10.140  1.00  0.00     0.024 A 
HETATM    4  C4  UNK     1      14.032   7.785  10.115  1.00  0.00    -0.037 A 
HETATM    5  C5  UNK     1      12.807   7.229   9.502  1.00  0.00     0.005 A 
HETATM    6  C7  UNK     1      12.856   5.962   8.930  1.00  0.00     0.093 A 
HETATM    7  C8  UNK     1      15.206   5.687   9.513  1.00  0.00     0.295 A 
HETATM    8  C9  UNK     1      13.943   9.184  10.670  1.00  0.00     0.050 C 
HETATM    9  C10 UNK     1      11.574   7.900   9.467  1.00  0.00     0.017 A 
HETATM   10  C12 UNK     1      11.744   5.364   8.331  1.00  0.00     0.075 A 
HETATM   11  C13 UNK     1      10.535   6.049   8.301  1.00  0.00     0.081 A 
HETATM   12  C14 UNK     1      10.450   7.317   8.871  1.00  0.00     0.038 A 
ENDROOT
BRANCH   3  13
HETATM   13  C1  UNK     1      16.453   7.457  10.786  1.00  0.00     0.045 C 
BRANCH  13  14
HETATM   14  C3  UNK     1      17.343   8.212   9.808  1.00  0.00     0.004 C 
BRANCH  14  15
HETATM   15  C6  UNK     1      17.321   9.712  10.103  1.00  0.00    -0.004 C 
HETATM   16  C11 UNK     1      16.990  10.520   8.858  1.00  0.00     0.005 C 
ENDBRANCH  14  15
ENDBRANCH  13  14
ENDBRANCH   3  13
BRANCH  11  17
HETATM   17  O3  UNK     1       9.442   5.484   7.724  1.00  0.00    -0.279 OA
BRANCH  17  18
HETATM   18  C15 UNK     1       8.744   6.341   6.854  1.00  0.00     0.260 C 
HETATM   19  O4  UNK     1       7.685   6.900   7.099  1.00  0.00    -0.265 OA
HETATM   20  C16 UNK     1       9.488   6.474   5.558  1.00  0.00     0.126 C 
ENDBRANCH  17  18
ENDBRANCH  11  17
TORSDOF 5
ENDMDL
MODEL 5
REMARK VINA RESULT:      -7.1     22.053     23.995
REMARK  5 active torsions:
REMARK  status: ('A' for Active; 'I' for Inactive)
REMARK    1  A    between atoms: C13_17  and  O3_3 
REMARK    2  A    between atoms: C15_19  and  O3_3 
REMARK    3  A    between atoms: C1_5  and  C2_6 
REMARK    4  A    between atoms: C1_5  and  C3_7 
REMARK    5  A    between atoms: C3_7  and  C6_10 
ROOT
HETATM    1  O1  UNK     1      12.565   8.163  10.363  1.00  0.00    -0.274 OA
HETATM    2  O2  UNK     1      13.808   9.536  11.674  1.00  0.00    -0.259 OA
HETATM    3  C2  UNK     1      14.974   7.749  10.614  1.00  0.00     0.024 A 
HETATM    4  C4  UNK     1      14.901   6.654   9.827  1.00  0.00    -0.037 A 
HETATM    5  C5  UNK     1      13.604   6.281   9.224  1.00  0.00     0.005 A 
HETATM    6  C7  UNK     1      12.481   7.048   9.514  1.00  0.00     0.093 A 
HETATM    7  C8  UNK     1      13.764   8.560  10.931  1.00  0.00     0.295 A 
HETATM    8  C9  UNK     1      16.077   5.758   9.528  1.00  0.00     0.050 C 
HETATM    9  C10 UNK     1      13.429   5.193   8.355  1.00  0.00     0.017 A 
HETATM   10  C12 UNK     1      11.219   6.764   8.986  1.00  0.00     0.075 A 
HETATM   11  C13 UNK     1      11.066   5.677   8.132  1.00  0.00     0.081 A 
HETATM   12  C14 UNK     1      12.172   4.893   7.816  1.00  0.00     0.038 A 
ENDROOT
BRANCH   3  13
HETATM   13  C1  UNK     1      16.240   8.277  11.239  1.00  0.00     0.045 C 
BRANCH  13  14
HETATM   14  C3  UNK     1      17.158   8.899  10.194  1.00  0.00     0.004 C 
BRANCH  14  15
HETATM   15  C6  UNK     1      16.840  10.384  10.009  1.00  0.00    -0.004 C 
HETATM   16  C11 UNK     1      16.195  10.651   8.659  1.00  0.00     0.005 C 
ENDBRANCH  14  15
ENDBRANCH  13  14
ENDBRANCH   3  13
BRANCH  11  17
HETATM   17  O3  UNK     1       9.847   5.385   7.607  1.00  0.00    -0.279 OA
BRANCH  17  18
HETATM   18  C15 UNK     1       9.380   6.331   6.679  1.00  0.00     0.260 C 
HETATM   19  O4  UNK     1       9.965   6.687   5.665  1.00  0.00    -0.265 OA
HETATM   20  C16 UNK     1       8.043   6.857   7.110  1.00  0.00     0.126 C 
ENDBRANCH  17  18
ENDBRANCH  11  17
TORSDOF 5
ENDMDL
MODEL 6
REMARK VINA RESULT:      -7.0     22.503     24.405
REMARK  5 active torsions:
REMARK  status: ('A' for Active; 'I' for Inactive)
REMARK    1  A    between atoms: C13_17  and  O3_3 
REMARK    2  A    between atoms: C15_19  and  O3_3 
REMARK    3  A    between atoms: C1_5  and  C2_6 
REMARK    4  A    between atoms: C1_5  and  C3_7 
REMARK    5  A    between atoms: C3_7  and  C6_10 
ROOT
HETATM    1  O1  UNK     1      11.343   5.061  10.021  1.00  0.00    -0.274 OA
HETATM    2  O2  UNK     1       9.098   4.835  10.261  1.00  0.00    -0.259 OA
HETATM    3  C2  UNK     1       9.849   5.791   8.212  1.00  0.00     0.024 A 
HETATM    4  C4  UNK     1      10.897   6.215   7.474  1.00  0.00    -0.037 A 
HETATM    5  C5  UNK     1      12.269   6.034   7.993  1.00  0.00     0.005 A 
HETATM    6  C7  UNK     1      12.444   5.465   9.250  1.00  0.00     0.093 A 
HETATM    7  C8  UNK     1      10.043   5.192   9.564  1.00  0.00     0.295 A 
HETATM    8  C9  UNK     1      10.757   6.889   6.132  1.00  0.00     0.050 C 
HETATM    9  C10 UNK     1      13.428   6.395   7.287  1.00  0.00     0.017 A 
HETATM   10  C12 UNK     1      13.706   5.258   9.813  1.00  0.00     0.075 A 
HETATM   11  C13 UNK     1      14.840   5.629   9.099  1.00  0.00     0.081 A 
HETATM   12  C14 UNK     1      14.700   6.196   7.835  1.00  0.00     0.038 A 
ENDROOT
BRANCH   3  13
HETATM   13  C1  UNK     1       8.407   5.855   7.777  1.00  0.00     0.045 C 
BRANCH  13  14
HETATM   14  C3  UNK     1       7.854   7.270   7.896  1.00  0.00     0.004 C 
BRANCH  14  15
HETATM   15  C6  UNK     1       7.207   7.485   9.265  1.00  0.00    -0.004 C 
HETATM   16  C11 UNK     1       8.057   8.385  10.147  1.00  0.00     0.005 C 
ENDBRANCH  14  15
ENDBRANCH  13  14
ENDBRANCH   3  13
BRANCH  11  17
HETATM   17  O3  UNK     1      16.077   5.436   9.629  1.00  0.00    -0.279 OA
BRANCH  17  18
HETATM   18  C15 UNK     1      16.774   6.625   9.908  1.00  0.00     0.260 C 
HETATM   19  O4  UNK     1      17.854   6.948   9.434  1.00  0.00    -0.265 OA
HETATM   20  C16 UNK     1      16.001   7.456  10.889  1.00  0.00     0.126 C 
ENDBRANCH  17  18
ENDBRANCH  11  17
TORSDOF 5
ENDMDL
MODEL 7
REMARK VINA RESULT:      -6.9      2.976      6.939
REMARK  5 active torsions:
REMARK  status: ('A' for Active; 'I' for Inactive)
REMARK    1  A    between atoms: C13_17  and  O3_3 
REMARK    2  A    between atoms: C15_19  and  O3_3 
REMARK    3  A    between atoms: C1_5  and  C2_6 
REMARK    4  A    between atoms: C1_5  and  C3_7 
REMARK    5  A    between atoms: C3_7  and  C6_10 
ROOT
HETATM    1  O1  UNK     1      18.400   1.436  31.711  1.00  0.00    -0.274 OA
HETATM    2  O2  UNK     1      18.417   2.741  29.854  1.00  0.00    -0.259 OA
HETATM    3  C2  UNK     1      18.356   3.881  31.945  1.00  0.00     0.024 A 
HETATM    4  C4  UNK     1      18.295   3.783  33.290  1.00  0.00    -0.037 A 
HETATM    5  C5  UNK     1      18.323   2.447  33.922  1.00  0.00     0.005 A 
HETATM    6  C7  UNK     1      18.372   1.320  33.109  1.00  0.00     0.093 A 
HETATM    7  C8  UNK     1      18.397   2.668  31.079  1.00  0.00     0.295 A 
HETATM    8  C9  UNK     1      18.183   4.972  34.211  1.00  0.00     0.050 C 
HETATM    9  C10 UNK     1      18.313   2.236  35.309  1.00  0.00     0.017 A 
HETATM   10  C12 UNK     1      18.401   0.022  33.624  1.00  0.00     0.075 A 
HETATM   11  C13 UNK     1      18.384  -0.165  35.002  1.00  0.00     0.081 A 
HETATM   12  C14 UNK     1      18.341   0.943  35.844  1.00  0.00     0.038 A 
ENDROOT
BRANCH   3  13
HETATM   13  C1  UNK     1      18.401   5.178  31.177  1.00  0.00     0.045 C 
BRANCH  13  14
HETATM   14  C3  UNK     1      19.835   5.626  30.927  1.00  0.00     0.004 C 
BRANCH  14  15
HETATM   15  C6  UNK     1      20.357   6.451  32.104  1.00  0.00    -0.004 C 
HETATM   16  C11 UNK     1      21.784   6.067  32.463  1.00  0.00     0.005 C 
ENDBRANCH  14  15
ENDBRANCH  13  14
ENDBRANCH   3  13
BRANCH  11  17
HETATM   17  O3  UNK     1      18.412  -1.420  35.524  1.00  0.00    -0.279 OA
BRANCH  17  18
HETATM   18  C15 UNK     1      19.677  -1.819  35.991  1.00  0.00     0.260 C 
HETATM   19  O4  UNK     1      20.749  -1.556  35.465  1.00  0.00    -0.265 OA
HETATM   20  C16 UNK     1      19.529  -2.631  37.244  1.00  0.00     0.126 C 
ENDBRANCH  17  18
ENDBRANCH  11  17
TORSDOF 5
ENDMDL
MODEL 8
REMARK VINA RESULT:      -6.9      2.403      7.668
REMARK  5 active torsions:
REMARK  status: ('A' for Active; 'I' for Inactive)
REMARK    1  A    between atoms: C13_17  and  O3_3 
REMARK    2  A    between atoms: C15_19  and  O3_3 
REMARK    3  A    between atoms: C1_5  and  C2_6 
REMARK    4  A    between atoms: C1_5  and  C3_7 
REMARK    5  A    between atoms: C3_7  and  C6_10 
ROOT
HETATM    1  O1  UNK     1      16.083   6.428  32.488  1.00  0.00    -0.274 OA
HETATM    2  O2  UNK     1      14.522   7.670  33.573  1.00  0.00    -0.259 OA
HETATM    3  C2  UNK     1      16.795   8.304  33.907  1.00  0.00     0.024 A 
HETATM    4  C4  UNK     1      18.095   8.042  33.655  1.00  0.00    -0.037 A 
HETATM    5  C5  UNK     1      18.448   6.937  32.739  1.00  0.00     0.005 A 
HETATM    6  C7  UNK     1      17.429   6.167  32.189  1.00  0.00     0.093 A 
HETATM    7  C8  UNK     1      15.707   7.466  33.324  1.00  0.00     0.295 A 
HETATM    8  C9  UNK     1      19.238   8.811  34.270  1.00  0.00     0.050 C 
HETATM    9  C10 UNK     1      19.764   6.613  32.372  1.00  0.00     0.017 A 
HETATM   10  C12 UNK     1      17.676   5.106  31.315  1.00  0.00     0.075 A 
HETATM   11  C13 UNK     1      18.987   4.798  30.970  1.00  0.00     0.081 A 
HETATM   12  C14 UNK     1      20.031   5.553  31.498  1.00  0.00     0.038 A 
ENDROOT
BRANCH   3  13
HETATM   13  C1  UNK     1      16.295   9.436  34.768  1.00  0.00     0.045 C 
BRANCH  13  14
HETATM   14  C3  UNK     1      16.124  10.715  33.958  1.00  0.00     0.004 C 
BRANCH  14  15
HETATM   15  C6  UNK     1      16.781  11.898  34.669  1.00  0.00    -0.004 C 
HETATM   16  C11 UNK     1      18.078  12.307  33.989  1.00  0.00     0.005 C 
ENDBRANCH  14  15
ENDBRANCH  13  14
ENDBRANCH   3  13
BRANCH  11  17
HETATM   17  O3  UNK     1      19.249   3.769  30.121  1.00  0.00    -0.279 OA
BRANCH  17  18
HETATM   18  C15 UNK     1      18.525   2.596  30.400  1.00  0.00     0.260 C 
HETATM   19  O4  UNK     1      18.404   2.075  31.500  1.00  0.00    -0.265 OA
HETATM   20  C16 UNK     1      17.914   2.057  29.140  1.00  0.00     0.126 C 
ENDBRANCH  17  18
ENDBRANCH  11  17
TORSDOF 5
ENDMDL
MODEL 9
REMARK VINA RESULT:      -6.9     15.390     18.247
REMARK  5 active torsions:
REMARK  status: ('A' for Active; 'I' for Inactive)
REMARK    1  A    between atoms: C13_17  and  O3_3 
REMARK    2  A    between atoms: C15_19  and  O3_3 
REMARK    3  A    between atoms: C1_5  and  C2_6 
REMARK    4  A    between atoms: C1_5  and  C3_7 
REMARK    5  A    between atoms: C3_7  and  C6_10 
ROOT
HETATM    1  O1  UNK     1      30.890  -4.806  38.546  1.00  0.00    -0.274 OA
HETATM    2  O2  UNK     1      28.836  -4.312  39.375  1.00  0.00    -0.259 OA
HETATM    3  C2  UNK     1      29.258  -6.609  38.901  1.00  0.00     0.024 A 
HETATM    4  C4  UNK     1      30.121  -7.528  38.417  1.00  0.00    -0.037 A 
HETATM    5  C5  UNK     1      31.472  -7.103  37.996  1.00  0.00     0.005 A 
HETATM    6  C7  UNK     1      31.809  -5.756  38.074  1.00  0.00     0.093 A 
HETATM    7  C8  UNK     1      29.622  -5.164  38.970  1.00  0.00     0.295 A 
HETATM    8  C9  UNK     1      29.784  -8.990  38.259  1.00  0.00     0.050 C 
HETATM    9  C10 UNK     1      32.459  -7.983  37.525  1.00  0.00     0.017 A 
HETATM   10  C12 UNK     1      33.064  -5.271  37.697  1.00  0.00     0.075 A 
HETATM   11  C13 UNK     1      34.025  -6.160  37.227  1.00  0.00     0.081 A 
HETATM   12  C14 UNK     1      33.722  -7.516  37.143  1.00  0.00     0.038 A 
ENDROOT
BRANCH   3  13
HETATM   13  C1  UNK     1      27.877  -6.914  39.423  1.00  0.00     0.045 C 
BRANCH  13  14
HETATM   14  C3  UNK     1      26.854  -6.951  38.295  1.00  0.00     0.004 C 
BRANCH  14  15
HETATM   15  C6  UNK     1      25.901  -8.134  38.467  1.00  0.00    -0.004 C 
HETATM   16  C11 UNK     1      26.436  -9.138  39.476  1.00  0.00     0.005 C 
ENDBRANCH  14  15
ENDBRANCH  13  14
ENDBRANCH   3  13
BRANCH  11  17
HETATM   17  O3  UNK     1      35.252  -5.708  36.856  1.00  0.00    -0.279 OA
BRANCH  17  18
HETATM   18  C15 UNK     1      35.587  -5.988  35.520  1.00  0.00     0.260 C 
HETATM   19  O4  UNK     1      36.368  -6.852  35.145  1.00  0.00    -0.265 OA
HETATM   20  C16 UNK     1      34.847  -5.063  34.599  1.00  0.00     0.126 C 
ENDBRANCH  17  18
ENDBRANCH  11  17
TORSDOF 5
ENDMDL
MODEL 10
REMARK VINA RESULT:      -6.8     15.448     17.103
REMARK  5 active torsions:
REMARK  status: ('A' for Active; 'I' for Inactive)
REMARK    1  A    between atoms: C13_17  and  O3_3 
REMARK    2  A    between atoms: C15_19  and  O3_3 
REMARK    3  A    between atoms: C1_5  and  C2_6 
REMARK    4  A    between atoms: C1_5  and  C3_7 
REMARK    5  A    between atoms: C3_7  and  C6_10 
ROOT
HETATM    1  O1  UNK     1      30.818  -4.226  38.140  1.00  0.00    -0.274 OA
HETATM    2  O2  UNK     1      29.353  -4.155  39.872  1.00  0.00    -0.259 OA
HETATM    3  C2  UNK     1      28.812  -5.643  38.091  1.00  0.00     0.024 A 
HETATM    4  C4  UNK     1      29.144  -6.126  36.875  1.00  0.00    -0.037 A 
HETATM    5  C5  UNK     1      30.401  -5.682  36.237  1.00  0.00     0.005 A 
HETATM    6  C7  UNK     1      31.194  -4.746  36.892  1.00  0.00     0.093 A 
HETATM    7  C8  UNK     1      29.660  -4.630  38.782  1.00  0.00     0.295 A 
HETATM    8  C9  UNK     1      28.290  -7.098  36.100  1.00  0.00     0.050 C 
HETATM    9  C10 UNK     1      30.862  -6.157  35.000  1.00  0.00     0.017 A 
HETATM   10  C12 UNK     1      32.396  -4.274  36.360  1.00  0.00     0.075 A 
HETATM   11  C13 UNK     1      32.831  -4.753  35.129  1.00  0.00     0.081 A 
HETATM   12  C14 UNK     1      32.064  -5.696  34.450  1.00  0.00     0.038 A 
ENDROOT
BRANCH   3  13
HETATM   13  C1  UNK     1      27.596  -6.057  38.881  1.00  0.00     0.045 C 
BRANCH  13  14
HETATM   14  C3  UNK     1      27.859  -7.326  39.681  1.00  0.00     0.004 C 
BRANCH  14  15
HETATM   15  C6  UNK     1      26.930  -8.454  39.229  1.00  0.00    -0.004 C 
HETATM   16  C11 UNK     1      27.347  -9.790  39.823  1.00  0.00     0.005 C 
ENDBRANCH  14  15
ENDBRANCH  13  14
ENDBRANCH   3  13
BRANCH  11  17
HETATM   17  O3  UNK     1      33.998  -4.308  34.594  1.00  0.00    -0.279 OA
BRANCH  17  18
HETATM   18  C15 UNK     1      34.968  -5.309  34.416  1.00  0.00     0.260 C 
HETATM   19  O4  UNK     1      35.349  -5.752  33.341  1.00  0.00    -0.265 OA
HETATM   20  C16 UNK     1      35.478  -5.774  35.748  1.00  0.00     0.126 C 
ENDBRANCH  17  18
ENDBRANCH  11  17
TORSDOF 5
ENDMDL
