MODEL 1
REMARK VINA RESULT:      -9.0      0.000      0.000
REMARK  5 active torsions:
REMARK  status: ('A' for Active; 'I' for Inactive)
REMARK    1  A    between atoms: C13_19  and  S1_1 
REMARK    2  A    between atoms: C12_18  and  N1_5 
REMARK    3  A    between atoms: C4_10  and  N1_5 
REMARK    4  A    between atoms: C11_17  and  N2_6 
REMARK    5  A    between atoms: C12_18  and  N2_6 
ROOT
HETATM    1  N1  UNK     1      19.175   3.825  30.066  1.00  0.00    -0.333 N 
HETATM    2  H5  UNK     1      19.862   4.011  29.338  1.00  0.00     0.168 HD
ENDROOT
BRANCH   1   3
HETATM    3  C12 UNK     1      18.659   2.523  30.015  1.00  0.00     0.176 C 
HETATM    4  S2  UNK     1      17.904   2.045  28.586  1.00  0.00    -0.041 SA
BRANCH   3   5
HETATM    5  N2  UNK     1      18.931   1.725  31.111  1.00  0.00    -0.332 N 
HETATM    6  H9  UNK     1      19.209   2.244  31.937  1.00  0.00     0.168 HD
BRANCH   5   7
HETATM    7  C11 UNK     1      19.374   0.381  31.197  1.00  0.00     0.051 A 
HETATM    8  C13 UNK     1      19.112  -0.388  32.320  1.00  0.00     0.026 A 
HETATM    9  C15 UNK     1      19.566  -1.705  32.367  1.00  0.00     0.021 A 
HETATM   10  C17 UNK     1      20.276  -2.238  31.290  1.00  0.00     0.002 A 
HETATM   11  C16 UNK     1      20.532  -1.451  30.167  1.00  0.00     0.002 A 
HETATM   12  C14 UNK     1      20.078  -0.133  30.119  1.00  0.00     0.031 A 
BRANCH   8  13
HETATM   13  S1  UNK     1      18.210   0.242  33.732  1.00  0.00    -0.132 SA
HETATM   14  C18 UNK     1      18.660  -0.959  35.014  1.00  0.00     0.095 C 
ENDBRANCH   8  13
ENDBRANCH   5   7
ENDBRANCH   3   5
ENDBRANCH   1   3
BRANCH   1  15
HETATM   15  C4  UNK     1      19.082   4.828  31.031  1.00  0.00     0.036 A 
HETATM   16  C5  UNK     1      17.854   5.128  31.610  1.00  0.00     0.067 A 
HETATM   17  C2  UNK     1      17.784   6.135  32.574  1.00  0.00     0.092 A 
HETATM   18  C1  UNK     1      18.907   6.857  32.981  1.00  0.00     0.004 A 
HETATM   19  O1  UNK     1      16.513   6.394  33.124  1.00  0.00    -0.275 OA
HETATM   20  C3  UNK     1      18.741   7.900  34.003  1.00  0.00    -0.043 A 
HETATM   21  C6  UNK     1      20.135   6.539  32.386  1.00  0.00     0.017 A 
HETATM   22  C8  UNK     1      17.519   8.125  34.509  1.00  0.00     0.090 A 
HETATM   23  C9  UNK     1      19.929   8.693  34.463  1.00  0.00     0.049 C 
HETATM   24  C10 UNK     1      16.325   7.371  34.089  1.00  0.00     0.288 A 
HETATM   25  O2  UNK     1      15.224   7.605  34.575  1.00  0.00    -0.260 OA
HETATM   26  C7  UNK     1      20.221   5.532  31.418  1.00  0.00     0.030 A 
ENDBRANCH   1  15
TORSDOF 5
ENDMDL
MODEL 2
REMARK VINA RESULT:      -8.8      1.153      2.036
REMARK  5 active torsions:
REMARK  status: ('A' for Active; 'I' for Inactive)
REMARK    1  A    between atoms: C13_19  and  S1_1 
REMARK    2  A    between atoms: C12_18  and  N1_5 
REMARK    3  A    between atoms: C4_10  and  N1_5 
REMARK    4  A    between atoms: C11_17  and  N2_6 
REMARK    5  A    between atoms: C12_18  and  N2_6 
ROOT
HETATM    1  N1  UNK     1      19.283   3.771  30.045  1.00  0.00    -0.333 N 
HETATM    2  H5  UNK     1      19.904   4.009  29.275  1.00  0.00     0.168 HD
ENDROOT
BRANCH   1   3
HETATM    3  C12 UNK     1      18.891   2.424  30.039  1.00  0.00     0.176 C 
HETATM    4  S2  UNK     1      17.887   1.916  28.785  1.00  0.00    -0.041 SA
BRANCH   3   5
HETATM    5  N2  UNK     1      19.472   1.626  31.007  1.00  0.00    -0.332 N 
HETATM    6  H9  UNK     1      20.285   1.114  30.683  1.00  0.00     0.168 HD
BRANCH   5   7
HETATM    7  C11 UNK     1      18.920   1.005  32.155  1.00  0.00     0.051 A 
HETATM    8  C13 UNK     1      19.030  -0.363  32.352  1.00  0.00     0.026 A 
HETATM    9  C15 UNK     1      18.472  -0.936  33.494  1.00  0.00     0.021 A 
HETATM   10  C17 UNK     1      17.810  -0.135  34.425  1.00  0.00     0.002 A 
HETATM   11  C16 UNK     1      17.707   1.240  34.213  1.00  0.00     0.002 A 
HETATM   12  C14 UNK     1      18.265   1.814  33.071  1.00  0.00     0.031 A 
BRANCH   8  13
HETATM   13  S1  UNK     1      19.864  -1.440  31.191  1.00  0.00    -0.132 SA
HETATM   14  C18 UNK     1      20.903  -2.431  32.299  1.00  0.00     0.095 C 
ENDBRANCH   8  13
ENDBRANCH   5   7
ENDBRANCH   3   5
ENDBRANCH   1   3
BRANCH   1  15
HETATM   15  C4  UNK     1      19.151   4.776  31.003  1.00  0.00     0.036 A 
HETATM   16  C5  UNK     1      17.905   5.064  31.546  1.00  0.00     0.067 A 
HETATM   17  C2  UNK     1      17.796   6.074  32.504  1.00  0.00     0.092 A 
HETATM   18  C1  UNK     1      18.898   6.810  32.939  1.00  0.00     0.004 A 
HETATM   19  O1  UNK     1      16.507   6.319  33.019  1.00  0.00    -0.275 OA
HETATM   20  C3  UNK     1      18.693   7.855  33.952  1.00  0.00    -0.043 A 
HETATM   21  C6  UNK     1      20.146   6.504  32.380  1.00  0.00     0.017 A 
HETATM   22  C8  UNK     1      17.455   8.067  34.423  1.00  0.00     0.090 A 
HETATM   23  C9  UNK     1      19.858   8.663  34.441  1.00  0.00     0.049 C 
HETATM   24  C10 UNK     1      16.282   7.298  33.974  1.00  0.00     0.288 A 
HETATM   25  O2  UNK     1      15.164   7.521  34.428  1.00  0.00    -0.260 OA
HETATM   26  C7  UNK     1      20.271   5.494  31.419  1.00  0.00     0.030 A 
ENDBRANCH   1  15
TORSDOF 5
ENDMDL
MODEL 3
REMARK VINA RESULT:      -8.7      7.799     12.664
REMARK  5 active torsions:
REMARK  status: ('A' for Active; 'I' for Inactive)
REMARK    1  A    between atoms: C13_19  and  S1_1 
REMARK    2  A    between atoms: C12_18  and  N1_5 
REMARK    3  A    between atoms: C4_10  and  N1_5 
REMARK    4  A    between atoms: C11_17  and  N2_6 
REMARK    5  A    between atoms: C12_18  and  N2_6 
ROOT
HETATM    1  N1  UNK     1      18.397  -4.738  36.788  1.00  0.00    -0.333 N 
HETATM    2  H5  UNK     1      17.474  -4.784  37.214  1.00  0.00     0.168 HD
ENDROOT
BRANCH   1   3
HETATM    3  C12 UNK     1      18.898  -3.431  36.702  1.00  0.00     0.176 C 
HETATM    4  S2  UNK     1      20.525  -3.200  37.073  1.00  0.00    -0.041 SA
BRANCH   3   5
HETATM    5  N2  UNK     1      18.022  -2.484  36.204  1.00  0.00    -0.332 N 
HETATM    6  H9  UNK     1      17.586  -2.749  35.327  1.00  0.00     0.168 HD
BRANCH   5   7
HETATM    7  C11 UNK     1      17.977  -1.077  36.375  1.00  0.00     0.051 A 
HETATM    8  C13 UNK     1      18.204  -0.219  35.310  1.00  0.00     0.026 A 
HETATM    9  C15 UNK     1      18.152   1.158  35.520  1.00  0.00     0.021 A 
HETATM   10  C17 UNK     1      17.874   1.661  36.792  1.00  0.00     0.002 A 
HETATM   11  C16 UNK     1      17.648   0.784  37.853  1.00  0.00     0.002 A 
HETATM   12  C14 UNK     1      17.699  -0.593  37.644  1.00  0.00     0.031 A 
BRANCH   8  13
HETATM   13  S1  UNK     1      18.568  -0.806  33.659  1.00  0.00    -0.132 SA
HETATM   14  C18 UNK     1      18.581   0.744  32.719  1.00  0.00     0.095 C 
ENDBRANCH   8  13
ENDBRANCH   5   7
ENDBRANCH   3   5
ENDBRANCH   1   3
BRANCH   1  15
HETATM   15  C4  UNK     1      18.999  -5.981  36.594  1.00  0.00     0.036 A 
HETATM   16  C5  UNK     1      18.692  -7.044  37.435  1.00  0.00     0.067 A 
HETATM   17  C2  UNK     1      19.305  -8.280  37.223  1.00  0.00     0.092 A 
HETATM   18  C1  UNK     1      20.221  -8.491  36.191  1.00  0.00     0.004 A 
HETATM   19  O1  UNK     1      18.954  -9.320  38.108  1.00  0.00    -0.275 OA
HETATM   20  C3  UNK     1      20.818  -9.825  36.040  1.00  0.00    -0.043 A 
HETATM   21  C6  UNK     1      20.516  -7.407  35.353  1.00  0.00     0.017 A 
HETATM   22  C8  UNK     1      20.465 -10.794  36.897  1.00  0.00     0.090 A 
HETATM   23  C9  UNK     1      21.804 -10.083  34.940  1.00  0.00     0.049 C 
HETATM   24  C10 UNK     1      19.501 -10.588  37.991  1.00  0.00     0.288 A 
HETATM   25  O2  UNK     1      19.203 -11.499  38.755  1.00  0.00    -0.260 OA
HETATM   26  C7  UNK     1      19.909  -6.162  35.554  1.00  0.00     0.030 A 
ENDBRANCH   1  15
TORSDOF 5
ENDMDL
MODEL 4
REMARK VINA RESULT:      -8.6      3.235      8.098
REMARK  5 active torsions:
REMARK  status: ('A' for Active; 'I' for Inactive)
REMARK    1  A    between atoms: C13_19  and  S1_1 
REMARK    2  A    between atoms: C12_18  and  N1_5 
REMARK    3  A    between atoms: C4_10  and  N1_5 
REMARK    4  A    between atoms: C11_17  and  N2_6 
REMARK    5  A    between atoms: C12_18  and  N2_6 
ROOT
HETATM    1  N1  UNK     1      17.760   3.964  31.374  1.00  0.00    -0.333 N 
HETATM    2  H5  UNK     1      16.763   3.937  31.578  1.00  0.00     0.168 HD
ENDROOT
BRANCH   1   3
HETATM    3  C12 UNK     1      18.329   5.229  31.576  1.00  0.00     0.176 C 
HETATM    4  S2  UNK     1      19.214   5.891  30.305  1.00  0.00    -0.041 SA
BRANCH   3   5
HETATM    5  N2  UNK     1      18.000   5.852  32.766  1.00  0.00    -0.332 N 
HETATM    6  H9  UNK     1      17.137   5.517  33.180  1.00  0.00     0.168 HD
BRANCH   5   7
HETATM    7  C11 UNK     1      18.320   7.142  33.260  1.00  0.00     0.051 A 
HETATM    8  C13 UNK     1      17.428   8.196  33.139  1.00  0.00     0.026 A 
HETATM    9  C15 UNK     1      17.781   9.449  33.637  1.00  0.00     0.021 A 
HETATM   10  C17 UNK     1      19.020   9.634  34.249  1.00  0.00     0.002 A 
HETATM   11  C16 UNK     1      19.907   8.564  34.363  1.00  0.00     0.002 A 
HETATM   12  C14 UNK     1      19.556   7.309  33.866  1.00  0.00     0.031 A 
BRANCH   8  13
HETATM   13  S1  UNK     1      15.826   8.019  32.361  1.00  0.00    -0.132 SA
HETATM   14  C18 UNK     1      14.775   7.615  33.783  1.00  0.00     0.095 C 
ENDBRANCH   8  13
ENDBRANCH   5   7
ENDBRANCH   3   5
ENDBRANCH   1   3
BRANCH   1  15
HETATM   15  C4  UNK     1      18.330   2.710  31.151  1.00  0.00     0.036 A 
HETATM   16  C5  UNK     1      18.479   1.814  32.202  1.00  0.00     0.067 A 
HETATM   17  C2  UNK     1      19.052   0.564  31.957  1.00  0.00     0.092 A 
HETATM   18  C1  UNK     1      19.482   0.179  30.687  1.00  0.00     0.004 A 
HETATM   19  O1  UNK     1      19.177  -0.301  33.062  1.00  0.00    -0.275 OA
HETATM   20  C3  UNK     1      20.073  -1.156  30.518  1.00  0.00    -0.043 A 
HETATM   21  C6  UNK     1      19.323   1.096  29.640  1.00  0.00     0.017 A 
HETATM   22  C8  UNK     1      20.180  -1.958  31.588  1.00  0.00     0.090 A 
HETATM   23  C9  UNK     1      20.545  -1.601  29.165  1.00  0.00     0.049 C 
HETATM   24  C10 UNK     1      19.730  -1.566  32.934  1.00  0.00     0.288 A 
HETATM   25  O2  UNK     1      19.844  -2.327  33.889  1.00  0.00    -0.260 OA
HETATM   26  C7  UNK     1      18.750   2.352  29.871  1.00  0.00     0.030 A 
ENDBRANCH   1  15
TORSDOF 5
ENDMDL
MODEL 5
REMARK VINA RESULT:      -8.6      3.488      8.039
REMARK  5 active torsions:
REMARK  status: ('A' for Active; 'I' for Inactive)
REMARK    1  A    between atoms: C13_19  and  S1_1 
REMARK    2  A    between atoms: C12_18  and  N1_5 
REMARK    3  A    between atoms: C4_10  and  N1_5 
REMARK    4  A    between atoms: C11_17  and  N2_6 
REMARK    5  A    between atoms: C12_18  and  N2_6 
ROOT
HETATM    1  N1  UNK     1      17.746   4.618  31.715  1.00  0.00    -0.333 N 
HETATM    2  H5  UNK     1      16.894   4.563  32.269  1.00  0.00     0.168 HD
ENDROOT
BRANCH   1   3
HETATM    3  C12 UNK     1      18.305   5.903  31.690  1.00  0.00     0.176 C 
HETATM    4  S2  UNK     1      19.985   6.017  31.742  1.00  0.00    -0.041 SA
BRANCH   3   5
HETATM    5  N2  UNK     1      17.412   6.943  31.506  1.00  0.00    -0.332 N 
HETATM    6  H9  UNK     1      17.754   7.673  30.890  1.00  0.00     0.168 HD
BRANCH   5   7
HETATM    7  C11 UNK     1      16.378   7.440  32.338  1.00  0.00     0.051 A 
HETATM    8  C13 UNK     1      16.649   8.337  33.358  1.00  0.00     0.026 A 
HETATM    9  C15 UNK     1      15.604   8.801  34.156  1.00  0.00     0.021 A 
HETATM   10  C17 UNK     1      14.300   8.363  33.923  1.00  0.00     0.002 A 
HETATM   11  C16 UNK     1      14.043   7.459  32.893  1.00  0.00     0.002 A 
HETATM   12  C14 UNK     1      15.087   6.994  32.094  1.00  0.00     0.031 A 
BRANCH   8  13
HETATM   13  S1  UNK     1      18.301   8.932  33.705  1.00  0.00    -0.132 SA
HETATM   14  C18 UNK     1      18.864   7.734  34.945  1.00  0.00     0.095 C 
ENDBRANCH   8  13
ENDBRANCH   5   7
ENDBRANCH   3   5
ENDBRANCH   1   3
BRANCH   1  15
HETATM   15  C4  UNK     1      18.238   3.379  31.305  1.00  0.00     0.036 A 
HETATM   16  C5  UNK     1      18.443   2.366  32.234  1.00  0.00     0.067 A 
HETATM   17  C2  UNK     1      18.936   1.133  31.802  1.00  0.00     0.092 A 
HETATM   18  C1  UNK     1      19.233   0.878  30.462  1.00  0.00     0.004 A 
HETATM   19  O1  UNK     1      19.123   0.146  32.790  1.00  0.00    -0.275 OA
HETATM   20  C3  UNK     1      19.748  -0.449  30.095  1.00  0.00    -0.043 A 
HETATM   21  C6  UNK     1      19.019   1.912  29.541  1.00  0.00     0.017 A 
HETATM   22  C8  UNK     1      19.916  -1.368  31.057  1.00  0.00     0.090 A 
HETATM   23  C9  UNK     1      20.076  -0.754  28.663  1.00  0.00     0.049 C 
HETATM   24  C10 UNK     1      19.607  -1.114  32.474  1.00  0.00     0.288 A 
HETATM   25  O2  UNK     1      19.774  -1.980  33.326  1.00  0.00    -0.260 OA
HETATM   26  C7  UNK     1      18.525   3.152  29.960  1.00  0.00     0.030 A 
ENDBRANCH   1  15
TORSDOF 5
ENDMDL
MODEL 6
REMARK VINA RESULT:      -8.5      7.742     12.484
REMARK  5 active torsions:
REMARK  status: ('A' for Active; 'I' for Inactive)
REMARK    1  A    between atoms: C13_19  and  S1_1 
REMARK    2  A    between atoms: C12_18  and  N1_5 
REMARK    3  A    between atoms: C4_10  and  N1_5 
REMARK    4  A    between atoms: C11_17  and  N2_6 
REMARK    5  A    between atoms: C12_18  and  N2_6 
ROOT
HETATM    1  N1  UNK     1      19.053  -4.761  36.060  1.00  0.00    -0.333 N 
HETATM    2  H5  UNK     1      18.139  -4.589  35.646  1.00  0.00     0.168 HD
ENDROOT
BRANCH   1   3
HETATM    3  C12 UNK     1      19.738  -3.584  36.390  1.00  0.00     0.176 C 
HETATM    4  S2  UNK     1      21.003  -3.710  37.495  1.00  0.00    -0.041 SA
BRANCH   3   5
HETATM    5  N2  UNK     1      19.373  -2.457  35.677  1.00  0.00    -0.332 N 
HETATM    6  H9  UNK     1      18.558  -1.981  36.050  1.00  0.00     0.168 HD
BRANCH   5   7
HETATM    7  C11 UNK     1      19.568  -2.113  34.316  1.00  0.00     0.051 A 
HETATM    8  C13 UNK     1      18.733  -1.208  33.679  1.00  0.00     0.026 A 
HETATM    9  C15 UNK     1      18.957  -0.898  32.339  1.00  0.00     0.021 A 
HETATM   10  C17 UNK     1      20.014  -1.495  31.652  1.00  0.00     0.002 A 
HETATM   11  C16 UNK     1      20.846  -2.403  32.306  1.00  0.00     0.002 A 
HETATM   12  C14 UNK     1      20.623  -2.714  33.647  1.00  0.00     0.031 A 
BRANCH   8  13
HETATM   13  S1  UNK     1      17.360  -0.414  34.509  1.00  0.00    -0.132 SA
HETATM   14  C18 UNK     1      18.071   1.203  34.917  1.00  0.00     0.095 C 
ENDBRANCH   8  13
ENDBRANCH   5   7
ENDBRANCH   3   5
ENDBRANCH   1   3
BRANCH   1  15
HETATM   15  C4  UNK     1      19.292  -6.099  36.375  1.00  0.00     0.036 A 
HETATM   16  C5  UNK     1      20.167  -6.853  35.601  1.00  0.00     0.067 A 
HETATM   17  C2  UNK     1      20.393  -8.190  35.934  1.00  0.00     0.092 A 
HETATM   18  C1  UNK     1      19.769  -8.803  37.022  1.00  0.00     0.004 A 
HETATM   19  O1  UNK     1      21.290  -8.902  35.114  1.00  0.00    -0.275 OA
HETATM   20  C3  UNK     1      20.065 -10.215  37.300  1.00  0.00    -0.043 A 
HETATM   21  C6  UNK     1      18.890  -8.026  37.789  1.00  0.00     0.017 A 
HETATM   22  C8  UNK     1      20.923 -10.867  36.502  1.00  0.00     0.090 A 
HETATM   23  C9  UNK     1      19.410 -10.902  38.462  1.00  0.00     0.049 C 
HETATM   24  C10 UNK     1      21.589 -10.234  35.351  1.00  0.00     0.288 A 
HETATM   25  O2  UNK     1      22.368 -10.864  34.643  1.00  0.00    -0.260 OA
HETATM   26  C7  UNK     1      18.655  -6.684  37.467  1.00  0.00     0.030 A 
ENDBRANCH   1  15
TORSDOF 5
ENDMDL
MODEL 7
REMARK VINA RESULT:      -8.5      3.478      8.289
REMARK  5 active torsions:
REMARK  status: ('A' for Active; 'I' for Inactive)
REMARK    1  A    between atoms: C13_19  and  S1_1 
REMARK    2  A    between atoms: C12_18  and  N1_5 
REMARK    3  A    between atoms: C4_10  and  N1_5 
REMARK    4  A    between atoms: C11_17  and  N2_6 
REMARK    5  A    between atoms: C12_18  and  N2_6 
ROOT
HETATM    1  N1  UNK     1      17.607   4.345  32.044  1.00  0.00    -0.333 N 
HETATM    2  H5  UNK     1      16.621   4.383  32.292  1.00  0.00     0.168 HD
ENDROOT
BRANCH   1   3
HETATM    3  C12 UNK     1      18.231   5.599  32.077  1.00  0.00     0.176 C 
HETATM    4  S2  UNK     1      19.038   6.099  30.686  1.00  0.00    -0.041 SA
BRANCH   3   5
HETATM    5  N2  UNK     1      18.016   6.348  33.220  1.00  0.00    -0.332 N 
HETATM    6  H9  UNK     1      17.156   6.115  33.707  1.00  0.00     0.168 HD
BRANCH   5   7
HETATM    7  C11 UNK     1      18.451   7.648  33.577  1.00  0.00     0.051 A 
HETATM    8  C13 UNK     1      17.631   8.752  33.399  1.00  0.00     0.026 A 
HETATM    9  C15 UNK     1      18.098  10.014  33.761  1.00  0.00     0.021 A 
HETATM   10  C17 UNK     1      19.378  10.159  34.296  1.00  0.00     0.002 A 
HETATM   11  C16 UNK     1      20.192   9.040  34.469  1.00  0.00     0.002 A 
HETATM   12  C14 UNK     1      19.726   7.776  34.107  1.00  0.00     0.031 A 
BRANCH   8  13
HETATM   13  S1  UNK     1      15.982   8.627  32.715  1.00  0.00    -0.132 SA
HETATM   14  C18 UNK     1      14.975   8.500  34.218  1.00  0.00     0.095 C 
ENDBRANCH   8  13
ENDBRANCH   5   7
ENDBRANCH   3   5
ENDBRANCH   1   3
BRANCH   1  15
HETATM   15  C4  UNK     1      18.118   3.051  31.939  1.00  0.00     0.036 A 
HETATM   16  C5  UNK     1      18.620   2.595  30.726  1.00  0.00     0.067 A 
HETATM   17  C2  UNK     1      19.128   1.297  30.643  1.00  0.00     0.092 A 
HETATM   18  C1  UNK     1      19.149   0.434  31.739  1.00  0.00     0.004 A 
HETATM   19  O1  UNK     1      19.623   0.892  29.387  1.00  0.00    -0.275 OA
HETATM   20  C3  UNK     1      19.703  -0.916  31.563  1.00  0.00    -0.043 A 
HETATM   21  C6  UNK     1      18.639   0.913  32.953  1.00  0.00     0.017 A 
HETATM   22  C8  UNK     1      20.166  -1.274  30.356  1.00  0.00     0.090 A 
HETATM   23  C9  UNK     1      19.741  -1.867  32.722  1.00  0.00     0.049 C 
HETATM   24  C10 UNK     1      20.150  -0.375  29.190  1.00  0.00     0.288 A 
HETATM   25  O2  UNK     1      20.583  -0.738  28.102  1.00  0.00    -0.260 OA
HETATM   26  C7  UNK     1      18.127   2.212  33.051  1.00  0.00     0.030 A 
ENDBRANCH   1  15
TORSDOF 5
ENDMDL
MODEL 8
REMARK VINA RESULT:      -8.5      1.331      1.460
REMARK  5 active torsions:
REMARK  status: ('A' for Active; 'I' for Inactive)
REMARK    1  A    between atoms: C13_19  and  S1_1 
REMARK    2  A    between atoms: C12_18  and  N1_5 
REMARK    3  A    between atoms: C4_10  and  N1_5 
REMARK    4  A    between atoms: C11_17  and  N2_6 
REMARK    5  A    between atoms: C12_18  and  N2_6 
ROOT
HETATM    1  N1  UNK     1      17.575   3.699  31.866  1.00  0.00    -0.333 N 
HETATM    2  H5  UNK     1      16.590   3.461  31.950  1.00  0.00     0.168 HD
ENDROOT
BRANCH   1   3
HETATM    3  C12 UNK     1      18.292   2.800  31.065  1.00  0.00     0.176 C 
HETATM    4  S2  UNK     1      18.609   3.262  29.476  1.00  0.00    -0.041 SA
BRANCH   3   5
HETATM    5  N2  UNK     1      18.767   1.671  31.707  1.00  0.00    -0.332 N 
HETATM    6  H9  UNK     1      19.109   1.846  32.646  1.00  0.00     0.168 HD
BRANCH   5   7
HETATM    7  C11 UNK     1      19.321   0.472  31.192  1.00  0.00     0.051 A 
HETATM    8  C13 UNK     1      19.268  -0.709  31.916  1.00  0.00     0.026 A 
HETATM    9  C15 UNK     1      19.826  -1.867  31.376  1.00  0.00     0.021 A 
HETATM   10  C17 UNK     1      20.431  -1.830  30.119  1.00  0.00     0.002 A 
HETATM   11  C16 UNK     1      20.477  -0.634  29.403  1.00  0.00     0.002 A 
HETATM   12  C14 UNK     1      19.919   0.525  29.942  1.00  0.00     0.031 A 
BRANCH   8  13
HETATM   13  S1  UNK     1      18.508  -0.816  33.533  1.00  0.00    -0.132 SA
HETATM   14  C18 UNK     1      19.662  -1.913  34.403  1.00  0.00     0.095 C 
ENDBRANCH   8  13
ENDBRANCH   5   7
ENDBRANCH   3   5
ENDBRANCH   1   3
BRANCH   1  15
HETATM   15  C4  UNK     1      17.906   4.950  32.389  1.00  0.00     0.036 A 
HETATM   16  C5  UNK     1      16.948   5.955  32.456  1.00  0.00     0.067 A 
HETATM   17  C2  UNK     1      17.300   7.198  32.984  1.00  0.00     0.092 A 
HETATM   18  C1  UNK     1      18.587   7.472  33.450  1.00  0.00     0.004 A 
HETATM   19  O1  UNK     1      16.286   8.176  33.026  1.00  0.00    -0.275 OA
HETATM   20  C3  UNK     1      18.870   8.809  33.990  1.00  0.00    -0.043 A 
HETATM   21  C6  UNK     1      19.538   6.446  33.374  1.00  0.00     0.017 A 
HETATM   22  C8  UNK     1      17.886   9.720  34.017  1.00  0.00     0.090 A 
HETATM   23  C9  UNK     1      20.243   9.135  34.500  1.00  0.00     0.049 C 
HETATM   24  C10 UNK     1      16.524   9.445  33.529  1.00  0.00     0.288 A 
HETATM   25  O2  UNK     1      15.649  10.304  33.570  1.00  0.00    -0.260 OA
HETATM   26  C7  UNK     1      19.199   5.195  32.848  1.00  0.00     0.030 A 
ENDBRANCH   1  15
TORSDOF 5
ENDMDL
MODEL 9
REMARK VINA RESULT:      -8.2      3.593      8.219
REMARK  5 active torsions:
REMARK  status: ('A' for Active; 'I' for Inactive)
REMARK    1  A    between atoms: C13_19  and  S1_1 
REMARK    2  A    between atoms: C12_18  and  N1_5 
REMARK    3  A    between atoms: C4_10  and  N1_5 
REMARK    4  A    between atoms: C11_17  and  N2_6 
REMARK    5  A    between atoms: C12_18  and  N2_6 
ROOT
HETATM    1  N1  UNK     1      17.667   4.612  31.942  1.00  0.00    -0.333 N 
HETATM    2  H5  UNK     1      16.758   4.711  32.388  1.00  0.00     0.168 HD
ENDROOT
BRANCH   1   3
HETATM    3  C12 UNK     1      18.305   5.839  31.712  1.00  0.00     0.176 C 
HETATM    4  S2  UNK     1      19.974   5.813  31.488  1.00  0.00    -0.041 SA
BRANCH   3   5
HETATM    5  N2  UNK     1      17.470   6.933  31.576  1.00  0.00    -0.332 N 
HETATM    6  H9  UNK     1      17.865   7.684  31.019  1.00  0.00     0.168 HD
BRANCH   5   7
HETATM    7  C11 UNK     1      16.438   7.426  32.413  1.00  0.00     0.051 A 
HETATM    8  C13 UNK     1      16.729   8.173  33.544  1.00  0.00     0.026 A 
HETATM    9  C15 UNK     1      15.686   8.638  34.343  1.00  0.00     0.021 A 
HETATM   10  C17 UNK     1      14.364   8.351  34.002  1.00  0.00     0.002 A 
HETATM   11  C16 UNK     1      14.087   7.598  32.861  1.00  0.00     0.002 A 
HETATM   12  C14 UNK     1      15.130   7.132  32.061  1.00  0.00     0.031 A 
BRANCH   8  13
HETATM   13  S1  UNK     1      18.405   8.569  34.032  1.00  0.00    -0.132 SA
HETATM   14  C18 UNK     1      18.412  10.375  33.869  1.00  0.00     0.095 C 
ENDBRANCH   8  13
ENDBRANCH   5   7
ENDBRANCH   3   5
ENDBRANCH   1   3
BRANCH   1  15
HETATM   15  C4  UNK     1      18.123   3.295  31.865  1.00  0.00     0.036 A 
HETATM   16  C5  UNK     1      18.606   2.793  30.662  1.00  0.00     0.067 A 
HETATM   17  C2  UNK     1      19.058   1.473  30.608  1.00  0.00     0.092 A 
HETATM   18  C1  UNK     1      19.042   0.633  31.722  1.00  0.00     0.004 A 
HETATM   19  O1  UNK     1      19.536   1.020  29.362  1.00  0.00    -0.275 OA
HETATM   20  C3  UNK     1      19.538  -0.743  31.575  1.00  0.00    -0.043 A 
HETATM   21  C6  UNK     1      18.552   1.159  32.925  1.00  0.00     0.017 A 
HETATM   22  C8  UNK     1      19.987  -1.146  30.377  1.00  0.00     0.090 A 
HETATM   23  C9  UNK     1      19.535  -1.669  32.755  1.00  0.00     0.049 C 
HETATM   24  C10 UNK     1      20.009  -0.271  29.192  1.00  0.00     0.288 A 
HETATM   25  O2  UNK     1      20.427  -0.676  28.112  1.00  0.00    -0.260 OA
HETATM   26  C7  UNK     1      18.096   2.480  32.995  1.00  0.00     0.030 A 
ENDBRANCH   1  15
TORSDOF 5
ENDMDL
MODEL 10
REMARK VINA RESULT:      -8.2      1.657      2.886
REMARK  5 active torsions:
REMARK  status: ('A' for Active; 'I' for Inactive)
REMARK    1  A    between atoms: C13_19  and  S1_1 
REMARK    2  A    between atoms: C12_18  and  N1_5 
REMARK    3  A    between atoms: C4_10  and  N1_5 
REMARK    4  A    between atoms: C11_17  and  N2_6 
REMARK    5  A    between atoms: C12_18  and  N2_6 
ROOT
HETATM    1  N1  UNK     1      17.988   3.745  32.628  1.00  0.00    -0.333 N 
HETATM    2  H5  UNK     1      17.780   3.616  31.641  1.00  0.00     0.168 HD
ENDROOT
BRANCH   1   3
HETATM    3  C12 UNK     1      18.153   2.535  33.318  1.00  0.00     0.176 C 
HETATM    4  S2  UNK     1      18.494   2.624  34.965  1.00  0.00    -0.041 SA
BRANCH   3   5
HETATM    5  N2  UNK     1      17.900   1.388  32.588  1.00  0.00    -0.332 N 
HETATM    6  H9  UNK     1      17.034   0.924  32.839  1.00  0.00     0.168 HD
BRANCH   5   7
HETATM    7  C11 UNK     1      18.780   0.482  31.944  1.00  0.00     0.051 A 
HETATM    8  C13 UNK     1      19.315   0.767  30.698  1.00  0.00     0.026 A 
HETATM    9  C15 UNK     1      20.175  -0.152  30.097  1.00  0.00     0.021 A 
HETATM   10  C17 UNK     1      20.490  -1.343  30.751  1.00  0.00     0.002 A 
HETATM   11  C16 UNK     1      19.943  -1.616  32.005  1.00  0.00     0.002 A 
HETATM   12  C14 UNK     1      19.083  -0.698  32.606  1.00  0.00     0.031 A 
BRANCH   8  13
HETATM   13  S1  UNK     1      18.944   2.277  29.811  1.00  0.00    -0.132 SA
HETATM   14  C18 UNK     1      17.835   1.670  28.511  1.00  0.00     0.095 C 
ENDBRANCH   8  13
ENDBRANCH   5   7
ENDBRANCH   3   5
ENDBRANCH   1   3
BRANCH   1  15
HETATM   15  C4  UNK     1      18.255   5.066  32.987  1.00  0.00     0.036 A 
HETATM   16  C5  UNK     1      17.234   6.010  32.986  1.00  0.00     0.067 A 
HETATM   17  C2  UNK     1      17.523   7.326  33.349  1.00  0.00     0.092 A 
HETATM   18  C1  UNK     1      18.806   7.734  33.715  1.00  0.00     0.004 A 
HETATM   19  O1  UNK     1      16.447   8.237  33.329  1.00  0.00    -0.275 OA
HETATM   20  C3  UNK     1      19.021   9.141  34.084  1.00  0.00    -0.043 A 
HETATM   21  C6  UNK     1      19.822   6.768  33.710  1.00  0.00     0.017 A 
HETATM   22  C8  UNK     1      17.978   9.985  34.055  1.00  0.00     0.090 A 
HETATM   23  C9  UNK     1      20.388   9.610  34.482  1.00  0.00     0.049 C 
HETATM   24  C10 UNK     1      16.619   9.569  33.671  1.00  0.00     0.288 A 
HETATM   25  O2  UNK     1      15.690  10.370  33.657  1.00  0.00    -0.260 OA
HETATM   26  C7  UNK     1      19.547   5.444  33.349  1.00  0.00     0.030 A 
ENDBRANCH   1  15
TORSDOF 5
ENDMDL
