MODEL 1
REMARK VINA RESULT:      -8.1      0.000      0.000
REMARK  3 active torsions:
REMARK  status: ('A' for Active; 'I' for Inactive)
REMARK    1  A    between atoms: C9_13  and  O2_2 
REMARK    2  A    between atoms: C10_14  and  O3_3 
REMARK    3  A    between atoms: C3_7  and  C7_11 
ROOT
HETATM    1  O1  UNK     1      18.882   0.007  33.266  1.00  0.00    -0.309 OA
HETATM    2  O4  UNK     1      21.099  -3.329  32.523  1.00  0.00    -0.287 OA
HETATM    3  C1  UNK     1      20.107  -1.359  31.675  1.00  0.00     0.051 A 
HETATM    4  C2  UNK     1      19.345  -0.238  31.998  1.00  0.00     0.093 A 
HETATM    5  C3  UNK     1      19.180  -0.906  34.266  1.00  0.00     0.090 A 
HETATM    6  C4  UNK     1      20.432  -2.326  32.735  1.00  0.00     0.187 A 
HETATM    7  C5  UNK     1      20.553  -1.558  30.366  1.00  0.00     0.057 A 
HETATM    8  C6  UNK     1      19.023   0.694  31.011  1.00  0.00     0.077 A 
HETATM    9  C8  UNK     1      19.910  -2.018  34.082  1.00  0.00     0.093 A 
HETATM   10  C9  UNK     1      19.467   0.500  29.703  1.00  0.00     0.103 A 
HETATM   11  C10 UNK     1      20.230  -0.623  29.382  1.00  0.00     0.100 A 
ENDROOT
BRANCH   5  12
HETATM   12  C7  UNK     1      18.640  -0.542  35.591  1.00  0.00    -0.002 A 
HETATM   13  C11 UNK     1      18.369   0.795  35.894  1.00  0.00     0.014 A 
HETATM   14  C13 UNK     1      17.859   1.140  37.146  1.00  0.00     0.001 A 
HETATM   15  C15 UNK     1      17.618   0.149  38.099  1.00  0.00     0.000 A 
HETATM   16  C14 UNK     1      17.888  -1.186  37.799  1.00  0.00     0.001 A 
HETATM   17  C12 UNK     1      18.397  -1.531  36.547  1.00  0.00     0.014 A 
ENDBRANCH   5  12
BRANCH  10  18
HETATM   18  O2  UNK     1      19.149   1.417  28.746  1.00  0.00    -0.353 OA
HETATM   19  C16 UNK     1      17.856   2.012  28.824  1.00  0.00     0.210 C 
ENDBRANCH  10  18
BRANCH  11  20
HETATM   20  O3  UNK     1      20.667  -0.819  28.105  1.00  0.00    -0.358 OA
HETATM   21  H9  UNK     1      19.958  -1.239  27.588  1.00  0.00     0.217 HD
ENDBRANCH  11  20
TORSDOF 3
ENDMDL
MODEL 2
REMARK VINA RESULT:      -7.9      3.432      4.603
REMARK  3 active torsions:
REMARK  status: ('A' for Active; 'I' for Inactive)
REMARK    1  A    between atoms: C9_13  and  O2_2 
REMARK    2  A    between atoms: C10_14  and  O3_3 
REMARK    3  A    between atoms: C3_7  and  C7_11 
ROOT
HETATM    1  O1  UNK     1      17.924   3.097  33.692  1.00  0.00    -0.309 OA
HETATM    2  O4  UNK     1      19.270   1.327  30.278  1.00  0.00    -0.287 OA
HETATM    3  C1  UNK     1      18.630   3.318  31.378  1.00  0.00     0.051 A 
HETATM    4  C2  UNK     1      18.170   3.859  32.577  1.00  0.00     0.093 A 
HETATM    5  C3  UNK     1      18.136   1.729  33.617  1.00  0.00     0.090 A 
HETATM    6  C4  UNK     1      18.864   1.868  31.297  1.00  0.00     0.187 A 
HETATM    7  C5  UNK     1      18.864   4.142  30.274  1.00  0.00     0.057 A 
HETATM    8  C6  UNK     1      17.941   5.231  32.680  1.00  0.00     0.077 A 
HETATM    9  C8  UNK     1      18.583   1.092  32.523  1.00  0.00     0.093 A 
HETATM   10  C9  UNK     1      18.175   6.058  31.581  1.00  0.00     0.103 A 
HETATM   11  C10 UNK     1      18.635   5.514  30.381  1.00  0.00     0.100 A 
ENDROOT
BRANCH   5  12
HETATM   12  C7  UNK     1      17.847   1.008  34.872  1.00  0.00    -0.002 A 
HETATM   13  C11 UNK     1      17.845   1.693  36.090  1.00  0.00     0.014 A 
HETATM   14  C13 UNK     1      17.572   1.013  37.276  1.00  0.00     0.001 A 
HETATM   15  C15 UNK     1      17.302  -0.356  37.250  1.00  0.00     0.000 A 
HETATM   16  C14 UNK     1      17.303  -1.043  36.036  1.00  0.00     0.001 A 
HETATM   17  C12 UNK     1      17.575  -0.362  34.850  1.00  0.00     0.014 A 
ENDBRANCH   5  12
BRANCH  10  18
HETATM   18  O2  UNK     1      17.949   7.397  31.692  1.00  0.00    -0.353 OA
HETATM   19  C16 UNK     1      16.602   7.842  31.555  1.00  0.00     0.210 C 
ENDBRANCH  10  18
BRANCH  11  20
HETATM   20  O3  UNK     1      18.865   6.316  29.303  1.00  0.00    -0.358 OA
HETATM   21  H9  UNK     1      19.777   6.176  28.993  1.00  0.00     0.217 HD
ENDBRANCH  11  20
TORSDOF 3
ENDMDL
MODEL 3
REMARK VINA RESULT:      -7.8      2.322      7.143
REMARK  3 active torsions:
REMARK  status: ('A' for Active; 'I' for Inactive)
REMARK    1  A    between atoms: C9_13  and  O2_2 
REMARK    2  A    between atoms: C10_14  and  O3_3 
REMARK    3  A    between atoms: C3_7  and  C7_11 
ROOT
HETATM    1  O1  UNK     1      19.776  -1.604  33.465  1.00  0.00    -0.309 OA
HETATM    2  O4  UNK     1      17.171   1.081  35.080  1.00  0.00    -0.287 OA
HETATM    3  C1  UNK     1      18.591  -0.778  35.417  1.00  0.00     0.051 A 
HETATM    4  C2  UNK     1      19.473  -1.664  34.802  1.00  0.00     0.093 A 
HETATM    5  C3  UNK     1      19.170  -0.623  32.694  1.00  0.00     0.090 A 
HETATM    6  C4  UNK     1      17.952   0.268  34.605  1.00  0.00     0.187 A 
HETATM    7  C5  UNK     1      18.319  -0.886  36.784  1.00  0.00     0.057 A 
HETATM    8  C6  UNK     1      20.092  -2.666  35.551  1.00  0.00     0.077 A 
HETATM    9  C8  UNK     1      18.310   0.290  33.171  1.00  0.00     0.093 A 
HETATM   10  C9  UNK     1      19.824  -2.776  36.916  1.00  0.00     0.103 A 
HETATM   11  C10 UNK     1      18.941  -1.888  37.530  1.00  0.00     0.100 A 
ENDROOT
BRANCH   5  12
HETATM   12  C7  UNK     1      19.572  -0.645  31.273  1.00  0.00    -0.002 A 
HETATM   13  C11 UNK     1      20.128  -1.801  30.720  1.00  0.00     0.014 A 
HETATM   14  C13 UNK     1      20.508  -1.822  29.378  1.00  0.00     0.001 A 
HETATM   15  C15 UNK     1      20.333  -0.688  28.585  1.00  0.00     0.000 A 
HETATM   16  C14 UNK     1      19.777   0.468  29.134  1.00  0.00     0.001 A 
HETATM   17  C12 UNK     1      19.397   0.488  30.476  1.00  0.00     0.014 A 
ENDBRANCH   5  12
BRANCH  10  18
HETATM   18  O2  UNK     1      20.435  -3.756  37.639  1.00  0.00    -0.353 OA
HETATM   19  C16 UNK     1      20.254  -5.098  37.194  1.00  0.00     0.210 C 
ENDBRANCH  10  18
BRANCH  11  20
HETATM   20  O3  UNK     1      18.675  -1.990  38.863  1.00  0.00    -0.358 OA
HETATM   21  H9  UNK     1      17.839  -1.533  39.056  1.00  0.00     0.217 HD
ENDBRANCH  11  20
TORSDOF 3
ENDMDL
MODEL 4
REMARK VINA RESULT:      -7.8     13.497     16.479
REMARK  3 active torsions:
REMARK  status: ('A' for Active; 'I' for Inactive)
REMARK    1  A    between atoms: C9_13  and  O2_2 
REMARK    2  A    between atoms: C10_14  and  O3_3 
REMARK    3  A    between atoms: C3_7  and  C7_11 
ROOT
HETATM    1  O1  UNK     1      20.474  -1.798  17.598  1.00  0.00    -0.309 OA
HETATM    2  O4  UNK     1      17.730  -3.065  14.866  1.00  0.00    -0.287 OA
HETATM    3  C1  UNK     1      19.829  -3.407  15.896  1.00  0.00     0.051 A 
HETATM    4  C2  UNK     1      20.723  -2.920  16.848  1.00  0.00     0.093 A 
HETATM    5  C3  UNK     1      19.283  -1.118  17.394  1.00  0.00     0.090 A 
HETATM    6  C4  UNK     1      18.561  -2.692  15.682  1.00  0.00     0.187 A 
HETATM    7  C5  UNK     1      20.135  -4.554  15.160  1.00  0.00     0.057 A 
HETATM    8  C6  UNK     1      21.933  -3.579  17.070  1.00  0.00     0.077 A 
HETATM    9  C8  UNK     1      18.341  -1.491  16.513  1.00  0.00     0.093 A 
HETATM   10  C9  UNK     1      22.242  -4.726  16.338  1.00  0.00     0.103 A 
HETATM   11  C10 UNK     1      21.345  -5.212  15.386  1.00  0.00     0.100 A 
ENDROOT
BRANCH   5  12
HETATM   12  C7  UNK     1      19.114   0.068  18.257  1.00  0.00    -0.002 A 
HETATM   13  C11 UNK     1      19.043  -0.080  19.645  1.00  0.00     0.014 A 
HETATM   14  C13 UNK     1      18.883   1.039  20.461  1.00  0.00     0.001 A 
HETATM   15  C15 UNK     1      18.793   2.310  19.893  1.00  0.00     0.000 A 
HETATM   16  C14 UNK     1      18.864   2.462  18.509  1.00  0.00     0.001 A 
HETATM   17  C12 UNK     1      19.024   1.342  17.692  1.00  0.00     0.014 A 
ENDBRANCH   5  12
BRANCH  10  18
HETATM   18  O2  UNK     1      23.424  -5.364  16.564  1.00  0.00    -0.353 OA
HETATM   19  C16 UNK     1      24.450  -4.617  17.214  1.00  0.00     0.210 C 
ENDBRANCH  10  18
BRANCH  11  20
HETATM   20  O3  UNK     1      21.640  -6.332  14.667  1.00  0.00    -0.358 OA
HETATM   21  H9  UNK     1      20.840  -6.879  14.590  1.00  0.00     0.217 HD
ENDBRANCH  11  20
TORSDOF 3
ENDMDL
MODEL 5
REMARK VINA RESULT:      -7.7      3.044      6.564
REMARK  3 active torsions:
REMARK  status: ('A' for Active; 'I' for Inactive)
REMARK    1  A    between atoms: C9_13  and  O2_2 
REMARK    2  A    between atoms: C10_14  and  O3_3 
REMARK    3  A    between atoms: C3_7  and  C7_11 
ROOT
HETATM    1  O1  UNK     1      18.042   2.726  33.460  1.00  0.00    -0.309 OA
HETATM    2  O4  UNK     1      19.308  -0.433  31.219  1.00  0.00    -0.287 OA
HETATM    3  C1  UNK     1      18.514   0.348  33.303  1.00  0.00     0.051 A 
HETATM    4  C2  UNK     1      18.091   1.471  34.012  1.00  0.00     0.093 A 
HETATM    5  C3  UNK     1      18.440   2.882  32.140  1.00  0.00     0.090 A 
HETATM    6  C4  UNK     1      18.929   0.509  31.901  1.00  0.00     0.187 A 
HETATM    7  C5  UNK     1      18.543  -0.906  33.917  1.00  0.00     0.057 A 
HETATM    8  C6  UNK     1      17.692   1.345  35.343  1.00  0.00     0.077 A 
HETATM    9  C8  UNK     1      18.860   1.880  31.353  1.00  0.00     0.093 A 
HETATM   10  C9  UNK     1      17.718   0.094  35.959  1.00  0.00     0.103 A 
HETATM   11  C10 UNK     1      18.142  -1.029  35.248  1.00  0.00     0.100 A 
ENDROOT
BRANCH   5  12
HETATM   12  C7  UNK     1      18.342   4.270  31.645  1.00  0.00    -0.002 A 
HETATM   13  C11 UNK     1      17.558   5.204  32.328  1.00  0.00     0.014 A 
HETATM   14  C13 UNK     1      17.465   6.515  31.861  1.00  0.00     0.001 A 
HETATM   15  C15 UNK     1      18.154   6.896  30.709  1.00  0.00     0.000 A 
HETATM   16  C14 UNK     1      18.936   5.967  30.025  1.00  0.00     0.001 A 
HETATM   17  C12 UNK     1      19.030   4.656  30.493  1.00  0.00     0.014 A 
ENDBRANCH   5  12
BRANCH  10  18
HETATM   18  O2  UNK     1      17.325  -0.019  37.259  1.00  0.00    -0.353 OA
HETATM   19  C16 UNK     1      17.529   1.114  38.099  1.00  0.00     0.210 C 
ENDBRANCH  10  18
BRANCH  11  20
HETATM   20  O3  UNK     1      18.170  -2.254  35.844  1.00  0.00    -0.358 OA
HETATM   21  H9  UNK     1      18.778  -2.832  35.352  1.00  0.00     0.217 HD
ENDBRANCH  11  20
TORSDOF 3
ENDMDL
MODEL 6
REMARK VINA RESULT:      -7.7      2.761      5.700
REMARK  3 active torsions:
REMARK  status: ('A' for Active; 'I' for Inactive)
REMARK    1  A    between atoms: C9_13  and  O2_2 
REMARK    2  A    between atoms: C10_14  and  O3_3 
REMARK    3  A    between atoms: C3_7  and  C7_11 
ROOT
HETATM    1  O1  UNK     1      19.549   1.345  31.355  1.00  0.00    -0.309 OA
HETATM    2  O4  UNK     1      19.134  -0.137  27.583  1.00  0.00    -0.287 OA
HETATM    3  C1  UNK     1      19.786  -0.523  29.821  1.00  0.00     0.051 A 
HETATM    4  C2  UNK     1      19.901   0.047  31.088  1.00  0.00     0.093 A 
HETATM    5  C3  UNK     1      19.064   2.125  30.316  1.00  0.00     0.090 A 
HETATM    6  C4  UNK     1      19.265   0.299  28.718  1.00  0.00     0.187 A 
HETATM    7  C5  UNK     1      20.161  -1.852  29.606  1.00  0.00     0.057 A 
HETATM    8  C6  UNK     1      20.393  -0.712  32.151  1.00  0.00     0.077 A 
HETATM    9  C8  UNK     1      18.901   1.690  29.057  1.00  0.00     0.093 A 
HETATM   10  C9  UNK     1      20.767  -2.039  31.941  1.00  0.00     0.103 A 
HETATM   11  C10 UNK     1      20.651  -2.607  30.672  1.00  0.00     0.100 A 
ENDROOT
BRANCH   5  12
HETATM   12  C7  UNK     1      18.709   3.502  30.715  1.00  0.00    -0.002 A 
HETATM   13  C11 UNK     1      18.017   3.730  31.907  1.00  0.00     0.014 A 
HETATM   14  C13 UNK     1      17.681   5.030  32.285  1.00  0.00     0.001 A 
HETATM   15  C15 UNK     1      18.036   6.106  31.471  1.00  0.00     0.000 A 
HETATM   16  C14 UNK     1      18.727   5.883  30.280  1.00  0.00     0.001 A 
HETATM   17  C12 UNK     1      19.063   4.582  29.903  1.00  0.00     0.014 A 
ENDBRANCH   5  12
BRANCH  10  18
HETATM   18  O2  UNK     1      21.244  -2.772  32.986  1.00  0.00    -0.353 OA
HETATM   19  C16 UNK     1      20.507  -2.720  34.205  1.00  0.00     0.210 C 
ENDBRANCH  10  18
BRANCH  11  20
HETATM   20  O3  UNK     1      21.014  -3.904  30.460  1.00  0.00    -0.358 OA
HETATM   21  H9  UNK     1      21.453  -3.973  29.595  1.00  0.00     0.217 HD
ENDBRANCH  11  20
TORSDOF 3
ENDMDL
MODEL 7
REMARK VINA RESULT:      -7.7     24.352     26.381
REMARK  3 active torsions:
REMARK  status: ('A' for Active; 'I' for Inactive)
REMARK    1  A    between atoms: C9_13  and  O2_2 
REMARK    2  A    between atoms: C10_14  and  O3_3 
REMARK    3  A    between atoms: C3_7  and  C7_11 
ROOT
HETATM    1  O1  UNK     1      13.190   7.443   8.462  1.00  0.00    -0.309 OA
HETATM    2  O4  UNK     1      15.232   4.116   9.630  1.00  0.00    -0.287 OA
HETATM    3  C1  UNK     1      15.194   6.471   9.431  1.00  0.00     0.051 A 
HETATM    4  C2  UNK     1      14.441   7.566   9.012  1.00  0.00     0.093 A 
HETATM    5  C3  UNK     1      12.656   6.172   8.313  1.00  0.00     0.090 A 
HETATM    6  C4  UNK     1      14.629   5.121   9.281  1.00  0.00     0.187 A 
HETATM    7  C5  UNK     1      16.464   6.656   9.984  1.00  0.00     0.057 A 
HETATM    8  C6  UNK     1      14.955   8.857   9.143  1.00  0.00     0.077 A 
HETATM    9  C8  UNK     1      13.280   5.042   8.683  1.00  0.00     0.093 A 
HETATM   10  C9  UNK     1      16.222   9.046   9.696  1.00  0.00     0.103 A 
HETATM   11  C10 UNK     1      16.974   7.948  10.115  1.00  0.00     0.100 A 
ENDROOT
BRANCH   5  12
HETATM   12  C7  UNK     1      11.304   6.155   7.719  1.00  0.00    -0.002 A 
HETATM   13  C11 UNK     1      11.149   6.183   6.331  1.00  0.00     0.014 A 
HETATM   14  C13 UNK     1       9.872   6.167   5.769  1.00  0.00     0.001 A 
HETATM   15  C15 UNK     1       8.747   6.124   6.594  1.00  0.00     0.000 A 
HETATM   16  C14 UNK     1       8.899   6.096   7.980  1.00  0.00     0.001 A 
HETATM   17  C12 UNK     1      10.176   6.111   8.541  1.00  0.00     0.014 A 
ENDBRANCH   5  12
BRANCH  10  18
HETATM   18  O2  UNK     1      16.714  10.310   9.822  1.00  0.00    -0.353 OA
HETATM   19  C16 UNK     1      17.280  10.905   8.656  1.00  0.00     0.210 C 
ENDBRANCH  10  18
BRANCH  11  20
HETATM   20  O3  UNK     1      18.213   8.125  10.656  1.00  0.00    -0.358 OA
HETATM   21  H9  UNK     1      18.867   8.183   9.938  1.00  0.00     0.217 HD
ENDBRANCH  11  20
TORSDOF 3
ENDMDL
MODEL 8
REMARK VINA RESULT:      -7.7      4.464      6.894
REMARK  3 active torsions:
REMARK  status: ('A' for Active; 'I' for Inactive)
REMARK    1  A    between atoms: C9_13  and  O2_2 
REMARK    2  A    between atoms: C10_14  and  O3_3 
REMARK    3  A    between atoms: C3_7  and  C7_11 
ROOT
HETATM    1  O1  UNK     1      18.306   4.004  34.356  1.00  0.00    -0.309 OA
HETATM    2  O4  UNK     1      18.244   2.044  30.785  1.00  0.00    -0.287 OA
HETATM    3  C1  UNK     1      18.293   1.900  33.143  1.00  0.00     0.051 A 
HETATM    4  C2  UNK     1      18.312   2.632  34.328  1.00  0.00     0.093 A 
HETATM    5  C3  UNK     1      18.286   4.689  33.150  1.00  0.00     0.090 A 
HETATM    6  C4  UNK     1      18.265   2.622  31.862  1.00  0.00     0.187 A 
HETATM    7  C5  UNK     1      18.301   0.503  33.175  1.00  0.00     0.057 A 
HETATM    8  C6  UNK     1      18.339   1.970  35.556  1.00  0.00     0.077 A 
HETATM    9  C8  UNK     1      18.260   4.097  31.945  1.00  0.00     0.093 A 
HETATM   10  C9  UNK     1      18.346   0.576  35.592  1.00  0.00     0.103 A 
HETATM   11  C10 UNK     1      18.327  -0.155  34.405  1.00  0.00     0.100 A 
ENDROOT
BRANCH   5  12
HETATM   12  C7  UNK     1      18.273   6.158  33.295  1.00  0.00    -0.002 A 
HETATM   13  C11 UNK     1      19.297   6.802  33.995  1.00  0.00     0.014 A 
HETATM   14  C13 UNK     1      19.286   8.190  34.132  1.00  0.00     0.001 A 
HETATM   15  C15 UNK     1      18.251   8.938  33.572  1.00  0.00     0.000 A 
HETATM   16  C14 UNK     1      17.227   8.299  32.874  1.00  0.00     0.001 A 
HETATM   17  C12 UNK     1      17.239   6.911  32.735  1.00  0.00     0.014 A 
ENDBRANCH   5  12
BRANCH  10  18
HETATM   18  O2  UNK     1      18.370  -0.061  36.797  1.00  0.00    -0.353 OA
HETATM   19  C16 UNK     1      17.675   0.561  37.874  1.00  0.00     0.210 C 
ENDBRANCH  10  18
BRANCH  11  20
HETATM   20  O3  UNK     1      18.333  -1.519  34.433  1.00  0.00    -0.358 OA
HETATM   21  H9  UNK     1      18.219  -1.818  35.351  1.00  0.00     0.217 HD
ENDBRANCH  11  20
TORSDOF 3
ENDMDL
MODEL 9
REMARK VINA RESULT:      -7.6      2.179      7.152
REMARK  3 active torsions:
REMARK  status: ('A' for Active; 'I' for Inactive)
REMARK    1  A    between atoms: C9_13  and  O2_2 
REMARK    2  A    between atoms: C10_14  and  O3_3 
REMARK    3  A    between atoms: C3_7  and  C7_11 
ROOT
HETATM    1  O1  UNK     1      18.926  -0.225  33.325  1.00  0.00    -0.309 OA
HETATM    2  O4  UNK     1      17.876   3.643  34.060  1.00  0.00    -0.287 OA
HETATM    3  C1  UNK     1      18.231   1.471  34.919  1.00  0.00     0.051 A 
HETATM    4  C2  UNK     1      18.600   0.166  34.599  1.00  0.00     0.093 A 
HETATM    5  C3  UNK     1      18.879   0.722  32.312  1.00  0.00     0.090 A 
HETATM    6  C4  UNK     1      18.188   2.479  33.850  1.00  0.00     0.187 A 
HETATM    7  C5  UNK     1      17.909   1.812  36.236  1.00  0.00     0.057 A 
HETATM    8  C6  UNK     1      18.649  -0.809  35.596  1.00  0.00     0.077 A 
HETATM    9  C8  UNK     1      18.546   2.009  32.496  1.00  0.00     0.093 A 
HETATM   10  C9  UNK     1      18.329  -0.473  36.912  1.00  0.00     0.103 A 
HETATM   11  C10 UNK     1      17.960   0.834  37.230  1.00  0.00     0.100 A 
ENDROOT
BRANCH   5  12
HETATM   12  C7  UNK     1      19.255   0.198  30.984  1.00  0.00    -0.002 A 
HETATM   13  C11 UNK     1      19.988  -0.987  30.880  1.00  0.00     0.014 A 
HETATM   14  C13 UNK     1      20.344  -1.483  29.626  1.00  0.00     0.001 A 
HETATM   15  C15 UNK     1      19.969  -0.795  28.471  1.00  0.00     0.000 A 
HETATM   16  C14 UNK     1      19.237   0.388  28.572  1.00  0.00     0.001 A 
HETATM   17  C12 UNK     1      18.881   0.883  29.826  1.00  0.00     0.014 A 
ENDBRANCH   5  12
BRANCH  10  18
HETATM   18  O2  UNK     1      18.382  -1.432  37.878  1.00  0.00    -0.353 OA
HETATM   19  C16 UNK     1      19.219  -2.558  37.629  1.00  0.00     0.210 C 
ENDBRANCH  10  18
BRANCH  11  20
HETATM   20  O3  UNK     1      17.647   1.170  38.514  1.00  0.00    -0.358 OA
HETATM   21  H9  UNK     1      17.482   0.358  39.023  1.00  0.00     0.217 HD
ENDBRANCH  11  20
TORSDOF 3
ENDMDL
MODEL 10
REMARK VINA RESULT:      -7.6      1.777      6.259
REMARK  3 active torsions:
REMARK  status: ('A' for Active; 'I' for Inactive)
REMARK    1  A    between atoms: C9_13  and  O2_2 
REMARK    2  A    between atoms: C10_14  and  O3_3 
REMARK    3  A    between atoms: C3_7  and  C7_11 
ROOT
HETATM    1  O1  UNK     1      18.802  -0.163  33.267  1.00  0.00    -0.309 OA
HETATM    2  O4  UNK     1      21.254  -3.376  32.752  1.00  0.00    -0.287 OA
HETATM    3  C1  UNK     1      19.889  -2.117  34.214  1.00  0.00     0.051 A 
HETATM    4  C2  UNK     1      19.060  -1.002  34.321  1.00  0.00     0.093 A 
HETATM    5  C3  UNK     1      19.399  -0.435  32.045  1.00  0.00     0.090 A 
HETATM    6  C4  UNK     1      20.518  -2.413  32.918  1.00  0.00     0.187 A 
HETATM    7  C5  UNK     1      20.117  -2.938  35.322  1.00  0.00     0.057 A 
HETATM    8  C6  UNK     1      18.452  -0.700  35.539  1.00  0.00     0.077 A 
HETATM    9  C8  UNK     1      20.210  -1.479  31.815  1.00  0.00     0.093 A 
HETATM   10  C9  UNK     1      18.675  -1.517  36.648  1.00  0.00     0.103 A 
HETATM   11  C10 UNK     1      19.505  -2.633  36.539  1.00  0.00     0.100 A 
ENDROOT
BRANCH   5  12
HETATM   12  C7  UNK     1      19.048   0.526  30.979  1.00  0.00    -0.002 A 
HETATM   13  C11 UNK     1      18.650   1.824  31.309  1.00  0.00     0.014 A 
HETATM   14  C13 UNK     1      18.319   2.732  30.304  1.00  0.00     0.001 A 
HETATM   15  C15 UNK     1      18.383   2.344  28.965  1.00  0.00     0.000 A 
HETATM   16  C14 UNK     1      18.780   1.049  28.632  1.00  0.00     0.001 A 
HETATM   17  C12 UNK     1      19.112   0.142  29.638  1.00  0.00     0.014 A 
ENDBRANCH   5  12
BRANCH  10  18
HETATM   18  O2  UNK     1      18.075  -1.215  37.833  1.00  0.00    -0.353 OA
HETATM   19  C16 UNK     1      17.687   0.142  38.036  1.00  0.00     0.210 C 
ENDBRANCH  10  18
BRANCH  11  20
HETATM   20  O3  UNK     1      19.728  -3.436  37.618  1.00  0.00    -0.358 OA
HETATM   21  H9  UNK     1      18.914  -3.927  37.821  1.00  0.00     0.217 HD
ENDBRANCH  11  20
TORSDOF 3
ENDMDL
