MODEL 1
REMARK VINA RESULT:      -8.2      0.000      0.000
REMARK  5 active torsions:
REMARK  status: ('A' for Active; 'I' for Inactive)
REMARK    1  A    between atoms: C12_21  and  O3_6 
REMARK    2  A    between atoms: C7_16  and  N1_9 
REMARK    3  A    between atoms: C1_10  and  C4_13 
REMARK    4  A    between atoms: C12_21  and  C3_12 
REMARK    5  A    between atoms: C16_25  and  C20_29 
ROOT
HETATM    1  O1  UNK     1      32.199  -6.243  34.673  1.00  0.00    -0.292 OA
HETATM    2  O2  UNK     1      28.534  -7.148  32.869  1.00  0.00    -0.274 OA
HETATM    3  O4  UNK     1      27.438  -6.501  34.760  1.00  0.00    -0.259 OA
HETATM    4  C1  UNK     1      29.827  -5.925  36.261  1.00  0.00     0.104 C 
HETATM    5  C2  UNK     1      29.813  -6.399  34.819  1.00  0.00     0.066 A 
HETATM    6  C3  UNK     1      31.200  -5.418  36.672  1.00  0.00     0.081 C 
HETATM    7  C5  UNK     1      30.958  -6.538  34.134  1.00  0.00     0.104 A 
HETATM    8  C6  UNK     1      30.961  -7.023  32.758  1.00  0.00     0.033 A 
HETATM    9  C7  UNK     1      32.297  -5.593  35.906  1.00  0.00     0.155 C 
HETATM   10  C8  UNK     1      28.502  -6.676  34.176  1.00  0.00     0.298 A 
HETATM   11  C9  UNK     1      29.740  -7.322  32.162  1.00  0.00     0.092 A 
HETATM   12  C13 UNK     1      32.126  -7.209  32.003  1.00  0.00     0.017 A 
HETATM   13  C17 UNK     1      29.647  -7.795  30.852  1.00  0.00     0.038 A 
HETATM   14  C18 UNK     1      32.050  -7.682  30.689  1.00  0.00     0.001 A 
HETATM   15  C19 UNK     1      30.814  -7.975  30.115  1.00  0.00     0.003 A 
ENDROOT
BRANCH   4  16
HETATM   16  C4  UNK     1      29.385  -7.027  37.178  1.00  0.00    -0.044 A 
HETATM   17  C10 UNK     1      28.258  -6.850  37.973  1.00  0.00     0.009 A 
HETATM   18  C14 UNK     1      27.846  -7.874  38.826  1.00  0.00     0.017 A 
HETATM   19  C16 UNK     1      28.565  -9.069  38.878  1.00  0.00     0.047 A 
HETATM   20  C15 UNK     1      29.695  -9.240  38.077  1.00  0.00     0.017 A 
HETATM   21  C11 UNK     1      30.106  -8.214  37.224  1.00  0.00     0.009 A 
BRANCH  19  22
HETATM   22  C20 UNK     1      28.125 -10.164  39.789  1.00  0.00     0.417 C 
HETATM   23  F1  UNK     1      29.142 -10.981  40.195  1.00  0.00    -0.166 F 
HETATM   24  F2  UNK     1      27.544  -9.718  40.941  1.00  0.00    -0.166 F 
HETATM   25  F3  UNK     1      27.202 -10.989  39.211  1.00  0.00    -0.166 F 
ENDBRANCH  19  22
ENDBRANCH   4  16
BRANCH   6  26
HETATM   26  C12 UNK     1      31.273  -4.690  37.951  1.00  0.00     0.294 C 
HETATM   27  O5  UNK     1      32.145  -4.880  38.778  1.00  0.00    -0.259 OA
BRANCH  26  28
HETATM   28  O3  UNK     1      30.234  -3.822  38.008  1.00  0.00    -0.323 OA
HETATM   29  C21 UNK     1      29.553  -3.775  39.266  1.00  0.00     0.213 C 
ENDBRANCH  26  28
ENDBRANCH   6  26
BRANCH   9  30
HETATM   30  N1  UNK     1      33.566  -5.188  36.202  1.00  0.00    -0.379 N 
HETATM   31  H8  UNK     1      34.178  -4.833  35.479  1.00  0.00     0.158 HD
HETATM   32  H9  UNK     1      33.890  -5.250  37.160  1.00  0.00     0.158 HD
ENDBRANCH   9  30
TORSDOF 5
ENDMDL
MODEL 2
REMARK VINA RESULT:      -8.1      2.984      4.071
REMARK  5 active torsions:
REMARK  status: ('A' for Active; 'I' for Inactive)
REMARK    1  A    between atoms: C12_21  and  O3_6 
REMARK    2  A    between atoms: C7_16  and  N1_9 
REMARK    3  A    between atoms: C1_10  and  C4_13 
REMARK    4  A    between atoms: C12_21  and  C3_12 
REMARK    5  A    between atoms: C16_25  and  C20_29 
ROOT
HETATM    1  O1  UNK     1      32.305  -8.682  33.059  1.00  0.00    -0.292 OA
HETATM    2  O2  UNK     1      29.584  -6.004  31.347  1.00  0.00    -0.274 OA
HETATM    3  O4  UNK     1      30.411  -4.325  32.649  1.00  0.00    -0.259 OA
HETATM    4  C1  UNK     1      32.286  -5.991  34.063  1.00  0.00     0.104 C 
HETATM    5  C2  UNK     1      31.368  -6.479  32.957  1.00  0.00     0.066 A 
HETATM    6  C3  UNK     1      33.358  -7.015  34.396  1.00  0.00     0.081 C 
HETATM    7  C5  UNK     1      31.419  -7.753  32.540  1.00  0.00     0.104 A 
HETATM    8  C6  UNK     1      30.521  -8.244  31.500  1.00  0.00     0.033 A 
HETATM    9  C7  UNK     1      33.332  -8.276  33.915  1.00  0.00     0.155 C 
HETATM   10  C8  UNK     1      30.437  -5.508  32.327  1.00  0.00     0.298 A 
HETATM   11  C9  UNK     1      29.618  -7.349  30.933  1.00  0.00     0.092 A 
HETATM   12  C13 UNK     1      30.513  -9.567  31.041  1.00  0.00     0.017 A 
HETATM   13  C17 UNK     1      28.720  -7.731  29.935  1.00  0.00     0.038 A 
HETATM   14  C18 UNK     1      29.619  -9.966  30.042  1.00  0.00     0.001 A 
HETATM   15  C19 UNK     1      28.724  -9.050  29.491  1.00  0.00     0.003 A 
ENDROOT
BRANCH   4  16
HETATM   16  C4  UNK     1      31.491  -5.654  35.291  1.00  0.00    -0.044 A 
HETATM   17  C10 UNK     1      31.720  -4.451  35.949  1.00  0.00     0.009 A 
HETATM   18  C14 UNK     1      30.982  -4.137  37.090  1.00  0.00     0.017 A 
HETATM   19  C16 UNK     1      30.020  -5.028  37.565  1.00  0.00     0.047 A 
HETATM   20  C15 UNK     1      29.795  -6.233  36.899  1.00  0.00     0.017 A 
HETATM   21  C11 UNK     1      30.535  -6.547  35.757  1.00  0.00     0.009 A 
BRANCH  19  22
HETATM   22  C20 UNK     1      29.230  -4.693  38.784  1.00  0.00     0.417 C 
HETATM   23  F1  UNK     1      29.857  -3.810  39.618  1.00  0.00    -0.166 F 
HETATM   24  F2  UNK     1      28.017  -4.126  38.512  1.00  0.00    -0.166 F 
HETATM   25  F3  UNK     1      28.957  -5.789  39.551  1.00  0.00    -0.166 F 
ENDBRANCH  19  22
ENDBRANCH   4  16
BRANCH   6  26
HETATM   26  C12 UNK     1      34.460  -6.552  35.258  1.00  0.00     0.294 C 
HETATM   27  O5  UNK     1      35.231  -5.667  34.938  1.00  0.00    -0.259 OA
BRANCH  26  28
HETATM   28  O3  UNK     1      34.435  -7.271  36.406  1.00  0.00    -0.323 OA
HETATM   29  C21 UNK     1      34.366  -6.495  37.606  1.00  0.00     0.213 C 
ENDBRANCH  26  28
ENDBRANCH   6  26
BRANCH   9  30
HETATM   30  N1  UNK     1      34.240  -9.262  34.174  1.00  0.00    -0.379 N 
HETATM   31  H8  UNK     1      34.504  -9.484  35.125  1.00  0.00     0.158 HD
HETATM   32  H9  UNK     1      34.649  -9.769  33.399  1.00  0.00     0.158 HD
ENDBRANCH   9  30
TORSDOF 5
ENDMDL
MODEL 3
REMARK VINA RESULT:      -7.9      4.851      7.564
REMARK  5 active torsions:
REMARK  status: ('A' for Active; 'I' for Inactive)
REMARK    1  A    between atoms: C12_21  and  O3_6 
REMARK    2  A    between atoms: C7_16  and  N1_9 
REMARK    3  A    between atoms: C1_10  and  C4_13 
REMARK    4  A    between atoms: C12_21  and  C3_12 
REMARK    5  A    between atoms: C16_25  and  C20_29 
ROOT
HETATM    1  O1  UNK     1      34.496  -7.340  32.559  1.00  0.00    -0.292 OA
HETATM    2  O2  UNK     1      32.180  -8.385  35.883  1.00  0.00    -0.274 OA
HETATM    3  O4  UNK     1      30.893  -9.732  34.568  1.00  0.00    -0.259 OA
HETATM    4  C1  UNK     1      32.251  -9.076  32.115  1.00  0.00     0.104 C 
HETATM    5  C2  UNK     1      32.630  -8.529  33.479  1.00  0.00     0.066 A 
HETATM    6  C3  UNK     1      33.326  -8.794  31.078  1.00  0.00     0.081 C 
HETATM    7  C5  UNK     1      33.686  -7.712  33.618  1.00  0.00     0.104 A 
HETATM    8  C6  UNK     1      34.043  -7.153  34.918  1.00  0.00     0.033 A 
HETATM    9  C7  UNK     1      34.364  -7.964  31.316  1.00  0.00     0.155 C 
HETATM   10  C8  UNK     1      31.826  -8.942  34.658  1.00  0.00     0.298 A 
HETATM   11  C9  UNK     1      33.270  -7.504  36.021  1.00  0.00     0.092 A 
HETATM   12  C13 UNK     1      35.118  -6.279  35.119  1.00  0.00     0.017 A 
HETATM   13  C17 UNK     1      33.534  -7.016  37.301  1.00  0.00     0.038 A 
HETATM   14  C18 UNK     1      35.397  -5.780  36.396  1.00  0.00     0.001 A 
HETATM   15  C19 UNK     1      34.606  -6.147  37.485  1.00  0.00     0.003 A 
ENDROOT
BRANCH   4  16
HETATM   16  C4  UNK     1      30.937  -8.504  31.669  1.00  0.00    -0.044 A 
HETATM   17  C10 UNK     1      30.791  -7.127  31.550  1.00  0.00     0.009 A 
HETATM   18  C14 UNK     1      29.570  -6.595  31.136  1.00  0.00     0.017 A 
HETATM   19  C16 UNK     1      28.503  -7.445  30.845  1.00  0.00     0.047 A 
HETATM   20  C15 UNK     1      28.657  -8.826  30.967  1.00  0.00     0.017 A 
HETATM   21  C11 UNK     1      29.879  -9.357  31.381  1.00  0.00     0.009 A 
BRANCH  19  22
HETATM   22  C20 UNK     1      27.197  -6.876  30.401  1.00  0.00     0.417 C 
HETATM   23  F1  UNK     1      26.369  -6.536  31.433  1.00  0.00    -0.166 F 
HETATM   24  F2  UNK     1      27.320  -5.740  29.654  1.00  0.00    -0.166 F 
HETATM   25  F3  UNK     1      26.481  -7.746  29.630  1.00  0.00    -0.166 F 
ENDBRANCH  19  22
ENDBRANCH   4  16
BRANCH   6  26
HETATM   26  C12 UNK     1      33.197  -9.502  29.792  1.00  0.00     0.294 C 
HETATM   27  O5  UNK     1      33.199 -10.714  29.695  1.00  0.00    -0.259 OA
BRANCH  26  28
HETATM   28  O3  UNK     1      33.080  -8.579  28.807  1.00  0.00    -0.323 OA
HETATM   29  C21 UNK     1      31.796  -8.523  28.178  1.00  0.00     0.213 C 
ENDBRANCH  26  28
ENDBRANCH   6  26
BRANCH   9  30
HETATM   30  N1  UNK     1      35.361  -7.641  30.441  1.00  0.00    -0.379 N 
HETATM   31  H8  UNK     1      36.163  -8.247  30.326  1.00  0.00     0.158 HD
HETATM   32  H9  UNK     1      35.288  -6.784  29.909  1.00  0.00     0.158 HD
ENDBRANCH   9  30
TORSDOF 5
ENDMDL
MODEL 4
REMARK VINA RESULT:      -7.9      4.214      7.117
REMARK  5 active torsions:
REMARK  status: ('A' for Active; 'I' for Inactive)
REMARK    1  A    between atoms: C12_21  and  O3_6 
REMARK    2  A    between atoms: C7_16  and  N1_9 
REMARK    3  A    between atoms: C1_10  and  C4_13 
REMARK    4  A    between atoms: C12_21  and  C3_12 
REMARK    5  A    between atoms: C16_25  and  C20_29 
ROOT
HETATM    1  O1  UNK     1      32.685  -4.814  35.699  1.00  0.00    -0.292 OA
HETATM    2  O2  UNK     1      29.893  -7.787  36.630  1.00  0.00    -0.274 OA
HETATM    3  O4  UNK     1      30.923  -9.213  35.180  1.00  0.00    -0.259 OA
HETATM    4  C1  UNK     1      32.880  -7.303  34.280  1.00  0.00     0.104 C 
HETATM    5  C2  UNK     1      31.827  -7.020  35.336  1.00  0.00     0.066 A 
HETATM    6  C3  UNK     1      33.943  -6.218  34.244  1.00  0.00     0.081 C 
HETATM    7  C5  UNK     1      31.782  -5.831  35.956  1.00  0.00     0.104 A 
HETATM    8  C6  UNK     1      30.756  -5.535  36.950  1.00  0.00     0.033 A 
HETATM    9  C7  UNK     1      33.816  -5.054  34.915  1.00  0.00     0.155 C 
HETATM   10  C8  UNK     1      30.868  -8.099  35.689  1.00  0.00     0.298 A 
HETATM   11  C9  UNK     1      29.830  -6.527  37.257  1.00  0.00     0.092 A 
HETATM   12  C13 UNK     1      30.647  -4.305  37.611  1.00  0.00     0.017 A 
HETATM   13  C17 UNK     1      28.812  -6.332  38.191  1.00  0.00     0.038 A 
HETATM   14  C18 UNK     1      29.632  -4.093  38.550  1.00  0.00     0.001 A 
HETATM   15  C19 UNK     1      28.716  -5.104  38.839  1.00  0.00     0.003 A 
ENDROOT
BRANCH   4  16
HETATM   16  C4  UNK     1      32.240  -7.449  32.931  1.00  0.00    -0.044 A 
HETATM   17  C10 UNK     1      31.367  -6.468  32.473  1.00  0.00     0.009 A 
HETATM   18  C14 UNK     1      30.772  -6.604  31.218  1.00  0.00     0.017 A 
HETATM   19  C16 UNK     1      31.055  -7.720  30.431  1.00  0.00     0.047 A 
HETATM   20  C15 UNK     1      31.932  -8.700  30.896  1.00  0.00     0.017 A 
HETATM   21  C11 UNK     1      32.526  -8.563  32.151  1.00  0.00     0.009 A 
BRANCH  19  22
HETATM   22  C20 UNK     1      30.420  -7.865  29.089  1.00  0.00     0.417 C 
HETATM   23  F1  UNK     1      30.339  -9.158  28.658  1.00  0.00    -0.166 F 
HETATM   24  F2  UNK     1      29.140  -7.391  29.035  1.00  0.00    -0.166 F 
HETATM   25  F3  UNK     1      31.099  -7.195  28.111  1.00  0.00    -0.166 F 
ENDBRANCH  19  22
ENDBRANCH   4  16
BRANCH   6  26
HETATM   26  C12 UNK     1      35.151  -6.512  33.452  1.00  0.00     0.294 C 
HETATM   27  O5  UNK     1      35.505  -5.842  32.501  1.00  0.00    -0.259 OA
BRANCH  26  28
HETATM   28  O3  UNK     1      35.746  -7.612  33.973  1.00  0.00    -0.323 OA
HETATM   29  C21 UNK     1      37.016  -7.380  34.589  1.00  0.00     0.213 C 
ENDBRANCH  26  28
ENDBRANCH   6  26
BRANCH   9  30
HETATM   30  N1  UNK     1      34.709  -4.022  34.925  1.00  0.00    -0.379 N 
HETATM   31  H8  UNK     1      34.431  -3.101  35.238  1.00  0.00     0.158 HD
HETATM   32  H9  UNK     1      35.657  -4.190  34.612  1.00  0.00     0.158 HD
ENDBRANCH   9  30
TORSDOF 5
ENDMDL
MODEL 5
REMARK VINA RESULT:      -7.8      1.291      1.959
REMARK  5 active torsions:
REMARK  status: ('A' for Active; 'I' for Inactive)
REMARK    1  A    between atoms: C12_21  and  O3_6 
REMARK    2  A    between atoms: C7_16  and  N1_9 
REMARK    3  A    between atoms: C1_10  and  C4_13 
REMARK    4  A    between atoms: C12_21  and  C3_12 
REMARK    5  A    between atoms: C16_25  and  C20_29 
ROOT
HETATM    1  O1  UNK     1      31.880  -6.860  33.163  1.00  0.00    -0.292 OA
HETATM    2  O2  UNK     1      27.843  -7.169  32.110  1.00  0.00    -0.274 OA
HETATM    3  O4  UNK     1      27.248  -6.231  34.100  1.00  0.00    -0.259 OA
HETATM    4  C1  UNK     1      29.938  -6.025  35.106  1.00  0.00     0.104 C 
HETATM    5  C2  UNK     1      29.573  -6.565  33.735  1.00  0.00     0.066 A 
HETATM    6  C3  UNK     1      31.429  -5.759  35.226  1.00  0.00     0.081 C 
HETATM    7  C5  UNK     1      30.529  -6.949  32.876  1.00  0.00     0.104 A 
HETATM    8  C6  UNK     1      30.192  -7.501  31.567  1.00  0.00     0.033 A 
HETATM    9  C7  UNK     1      32.317  -6.174  34.299  1.00  0.00     0.155 C 
HETATM   10  C8  UNK     1      28.137  -6.629  33.357  1.00  0.00     0.298 A 
HETATM   11  C9  UNK     1      28.847  -7.600  31.221  1.00  0.00     0.092 A 
HETATM   12  C13 UNK     1      31.145  -7.938  30.640  1.00  0.00     0.017 A 
HETATM   13  C17 UNK     1      28.432  -8.117  29.994  1.00  0.00     0.038 A 
HETATM   14  C18 UNK     1      30.745  -8.460  29.405  1.00  0.00     0.001 A 
HETATM   15  C19 UNK     1      29.391  -8.549  29.083  1.00  0.00     0.003 A 
ENDROOT
BRANCH   4  16
HETATM   16  C4  UNK     1      29.492  -6.976  36.178  1.00  0.00    -0.044 A 
HETATM   17  C10 UNK     1      29.886  -8.308  36.124  1.00  0.00     0.009 A 
HETATM   18  C14 UNK     1      29.472  -9.192  37.120  1.00  0.00     0.017 A 
HETATM   19  C16 UNK     1      28.666  -8.738  38.163  1.00  0.00     0.047 A 
HETATM   20  C15 UNK     1      28.274  -7.400  38.212  1.00  0.00     0.017 A 
HETATM   21  C11 UNK     1      28.689  -6.516  37.215  1.00  0.00     0.009 A 
BRANCH  19  22
HETATM   22  C20 UNK     1      28.224  -9.683  39.229  1.00  0.00     0.417 C 
HETATM   23  F1  UNK     1      27.249 -10.549  38.823  1.00  0.00    -0.166 F 
HETATM   24  F2  UNK     1      29.227 -10.475  39.710  1.00  0.00    -0.166 F 
HETATM   25  F3  UNK     1      27.710  -9.041  40.320  1.00  0.00    -0.166 F 
ENDBRANCH  19  22
ENDBRANCH   4  16
BRANCH   6  26
HETATM   26  C12 UNK     1      31.864  -4.989  36.406  1.00  0.00     0.294 C 
HETATM   27  O5  UNK     1      31.423  -3.890  36.684  1.00  0.00    -0.259 OA
BRANCH  26  28
HETATM   28  O3  UNK     1      32.794  -5.715  37.070  1.00  0.00    -0.323 OA
HETATM   29  C21 UNK     1      32.323  -6.365  38.254  1.00  0.00     0.213 C 
ENDBRANCH  26  28
ENDBRANCH   6  26
BRANCH   9  30
HETATM   30  N1  UNK     1      33.670  -5.995  34.334  1.00  0.00    -0.379 N 
HETATM   31  H8  UNK     1      34.076  -5.089  34.138  1.00  0.00     0.158 HD
HETATM   32  H9  UNK     1      34.264  -6.783  34.556  1.00  0.00     0.158 HD
ENDBRANCH   9  30
TORSDOF 5
ENDMDL
MODEL 6
REMARK VINA RESULT:      -7.8      4.048      6.835
REMARK  5 active torsions:
REMARK  status: ('A' for Active; 'I' for Inactive)
REMARK    1  A    between atoms: C12_21  and  O3_6 
REMARK    2  A    between atoms: C7_16  and  N1_9 
REMARK    3  A    between atoms: C1_10  and  C4_13 
REMARK    4  A    between atoms: C12_21  and  C3_12 
REMARK    5  A    between atoms: C16_25  and  C20_29 
ROOT
HETATM    1  O1  UNK     1      30.902  -5.218  37.043  1.00  0.00    -0.292 OA
HETATM    2  O2  UNK     1      30.135  -9.326  36.843  1.00  0.00    -0.274 OA
HETATM    3  O4  UNK     1      31.796  -9.564  35.298  1.00  0.00    -0.259 OA
HETATM    4  C1  UNK     1      32.430  -6.759  35.163  1.00  0.00     0.104 C 
HETATM    5  C2  UNK     1      31.373  -7.357  36.073  1.00  0.00     0.066 A 
HETATM    6  C3  UNK     1      32.742  -5.319  35.535  1.00  0.00     0.081 C 
HETATM    7  C5  UNK     1      30.685  -6.580  36.923  1.00  0.00     0.104 A 
HETATM    8  C6  UNK     1      29.644  -7.136  37.782  1.00  0.00     0.033 A 
HETATM    9  C7  UNK     1      31.997  -4.619  36.416  1.00  0.00     0.155 C 
HETATM   10  C8  UNK     1      31.141  -8.824  36.023  1.00  0.00     0.298 A 
HETATM   11  C9  UNK     1      29.393  -8.504  37.712  1.00  0.00     0.092 A 
HETATM   12  C13 UNK     1      28.879  -6.371  38.671  1.00  0.00     0.017 A 
HETATM   13  C17 UNK     1      28.416  -9.121  38.492  1.00  0.00     0.038 A 
HETATM   14  C18 UNK     1      27.895  -6.975  39.460  1.00  0.00     0.001 A 
HETATM   15  C19 UNK     1      27.663  -8.347  39.371  1.00  0.00     0.003 A 
ENDROOT
BRANCH   4  16
HETATM   16  C4  UNK     1      31.993  -6.842  33.730  1.00  0.00    -0.044 A 
HETATM   17  C10 UNK     1      30.826  -6.201  33.328  1.00  0.00     0.009 A 
HETATM   18  C14 UNK     1      30.419  -6.279  31.996  1.00  0.00     0.017 A 
HETATM   19  C16 UNK     1      31.182  -6.996  31.075  1.00  0.00     0.047 A 
HETATM   20  C15 UNK     1      32.351  -7.637  31.485  1.00  0.00     0.017 A 
HETATM   21  C11 UNK     1      32.758  -7.559  32.818  1.00  0.00     0.009 A 
BRANCH  19  22
HETATM   22  C20 UNK     1      30.747  -7.078  29.651  1.00  0.00     0.417 C 
HETATM   23  F1  UNK     1      29.399  -6.935  29.480  1.00  0.00    -0.166 F 
HETATM   24  F2  UNK     1      31.311  -6.126  28.851  1.00  0.00    -0.166 F 
HETATM   25  F3  UNK     1      31.064  -8.275  29.074  1.00  0.00    -0.166 F 
ENDBRANCH  19  22
ENDBRANCH   4  16
BRANCH   6  26
HETATM   26  C12 UNK     1      33.932  -4.723  34.901  1.00  0.00     0.294 C 
HETATM   27  O5  UNK     1      33.931  -3.620  34.387  1.00  0.00    -0.259 OA
BRANCH  26  28
HETATM   28  O3  UNK     1      34.957  -5.602  35.005  1.00  0.00    -0.323 OA
HETATM   29  C21 UNK     1      35.541  -5.700  36.307  1.00  0.00     0.213 C 
ENDBRANCH  26  28
ENDBRANCH   6  26
BRANCH   9  30
HETATM   30  N1  UNK     1      32.194  -3.323  36.794  1.00  0.00    -0.379 N 
HETATM   31  H8  UNK     1      32.315  -2.595  36.102  1.00  0.00     0.158 HD
HETATM   32  H9  UNK     1      32.220  -3.098  37.781  1.00  0.00     0.158 HD
ENDBRANCH   9  30
TORSDOF 5
ENDMDL
MODEL 7
REMARK VINA RESULT:      -7.8      2.113      2.942
REMARK  5 active torsions:
REMARK  status: ('A' for Active; 'I' for Inactive)
REMARK    1  A    between atoms: C12_21  and  O3_6 
REMARK    2  A    between atoms: C7_16  and  N1_9 
REMARK    3  A    between atoms: C1_10  and  C4_13 
REMARK    4  A    between atoms: C12_21  and  C3_12 
REMARK    5  A    between atoms: C16_25  and  C20_29 
ROOT
HETATM    1  O1  UNK     1      31.335  -9.094  32.849  1.00  0.00    -0.292 OA
HETATM    2  O2  UNK     1      27.666  -7.392  31.778  1.00  0.00    -0.274 OA
HETATM    3  O4  UNK     1      27.733  -6.071  33.635  1.00  0.00    -0.259 OA
HETATM    4  C1  UNK     1      30.192  -7.173  34.650  1.00  0.00     0.104 C 
HETATM    5  C2  UNK     1      29.537  -7.593  33.347  1.00  0.00     0.066 A 
HETATM    6  C3  UNK     1      31.612  -7.702  34.761  1.00  0.00     0.081 C 
HETATM    7  C5  UNK     1      30.117  -8.505  32.554  1.00  0.00     0.104 A 
HETATM    8  C6  UNK     1      29.483  -8.942  31.314  1.00  0.00     0.033 A 
HETATM    9  C7  UNK     1      32.116  -8.613  33.902  1.00  0.00     0.155 C 
HETATM   10  C8  UNK     1      28.255  -6.949  32.958  1.00  0.00     0.298 A 
HETATM   11  C9  UNK     1      28.263  -8.372  30.962  1.00  0.00     0.092 A 
HETATM   12  C13 UNK     1      30.031  -9.906  30.459  1.00  0.00     0.017 A 
HETATM   13  C17 UNK     1      27.583  -8.731  29.798  1.00  0.00     0.038 A 
HETATM   14  C18 UNK     1      29.362 -10.278  29.288  1.00  0.00     0.001 A 
HETATM   15  C19 UNK     1      28.140  -9.692  28.958  1.00  0.00     0.003 A 
ENDROOT
BRANCH   4  16
HETATM   16  C4  UNK     1      29.373  -7.635  35.820  1.00  0.00    -0.044 A 
HETATM   17  C10 UNK     1      28.961  -6.715  36.778  1.00  0.00     0.009 A 
HETATM   18  C14 UNK     1      28.200  -7.144  37.865  1.00  0.00     0.017 A 
HETATM   19  C16 UNK     1      27.857  -8.490  37.987  1.00  0.00     0.047 A 
HETATM   20  C15 UNK     1      28.274  -9.408  37.022  1.00  0.00     0.017 A 
HETATM   21  C11 UNK     1      29.035  -8.978  35.935  1.00  0.00     0.009 A 
BRANCH  19  22
HETATM   22  C20 UNK     1      27.043  -8.950  39.149  1.00  0.00     0.417 C 
HETATM   23  F1  UNK     1      25.786  -8.414  39.184  1.00  0.00    -0.166 F 
HETATM   24  F2  UNK     1      26.855 -10.302  39.186  1.00  0.00    -0.166 F 
HETATM   25  F3  UNK     1      27.611  -8.627  40.348  1.00  0.00    -0.166 F 
ENDBRANCH  19  22
ENDBRANCH   4  16
BRANCH   6  26
HETATM   26  C12 UNK     1      32.436  -7.143  35.848  1.00  0.00     0.294 C 
HETATM   27  O5  UNK     1      32.674  -5.956  35.962  1.00  0.00    -0.259 OA
BRANCH  26  28
HETATM   28  O3  UNK     1      32.844  -8.162  36.641  1.00  0.00    -0.323 OA
HETATM   29  C21 UNK     1      32.296  -8.158  37.963  1.00  0.00     0.213 C 
ENDBRANCH  26  28
ENDBRANCH   6  26
BRANCH   9  30
HETATM   30  N1  UNK     1      33.369  -9.154  33.937  1.00  0.00    -0.379 N 
HETATM   31  H8  UNK     1      33.912  -9.253  33.089  1.00  0.00     0.158 HD
HETATM   32  H9  UNK     1      33.748  -9.458  34.824  1.00  0.00     0.158 HD
ENDBRANCH   9  30
TORSDOF 5
ENDMDL
MODEL 8
REMARK VINA RESULT:      -7.8      2.841      5.042
REMARK  5 active torsions:
REMARK  status: ('A' for Active; 'I' for Inactive)
REMARK    1  A    between atoms: C12_21  and  O3_6 
REMARK    2  A    between atoms: C7_16  and  N1_9 
REMARK    3  A    between atoms: C1_10  and  C4_13 
REMARK    4  A    between atoms: C12_21  and  C3_12 
REMARK    5  A    between atoms: C16_25  and  C20_29 
ROOT
HETATM    1  O1  UNK     1      31.027  -5.483  33.609  1.00  0.00    -0.292 OA
HETATM    2  O2  UNK     1      32.985  -8.374  35.915  1.00  0.00    -0.274 OA
HETATM    3  O4  UNK     1      31.272  -9.833  35.547  1.00  0.00    -0.259 OA
HETATM    4  C1  UNK     1      29.673  -7.981  34.029  1.00  0.00     0.104 C 
HETATM    5  C2  UNK     1      31.045  -7.666  34.596  1.00  0.00     0.066 A 
HETATM    6  C3  UNK     1      29.223  -6.926  33.032  1.00  0.00     0.081 C 
HETATM    7  C5  UNK     1      31.620  -6.474  34.373  1.00  0.00     0.104 A 
HETATM    8  C6  UNK     1      32.925  -6.146  34.939  1.00  0.00     0.033 A 
HETATM    9  C7  UNK     1      29.877  -5.757  32.866  1.00  0.00     0.155 C 
HETATM   10  C8  UNK     1      31.749  -8.716  35.377  1.00  0.00     0.298 A 
HETATM   11  C9  UNK     1      33.572  -7.111  35.705  1.00  0.00     0.092 A 
HETATM   12  C13 UNK     1      33.562  -4.912  34.758  1.00  0.00     0.017 A 
HETATM   13  C17 UNK     1      34.819  -6.885  36.287  1.00  0.00     0.038 A 
HETATM   14  C18 UNK     1      34.812  -4.669  35.336  1.00  0.00     0.001 A 
HETATM   15  C19 UNK     1      35.440  -5.653  36.099  1.00  0.00     0.003 A 
ENDROOT
BRANCH   4  16
HETATM   16  C4  UNK     1      28.668  -8.112  35.135  1.00  0.00    -0.044 A 
HETATM   17  C10 UNK     1      28.000  -9.318  35.318  1.00  0.00     0.009 A 
HETATM   18  C14 UNK     1      27.065  -9.441  36.346  1.00  0.00     0.017 A 
HETATM   19  C16 UNK     1      26.805  -8.357  37.184  1.00  0.00     0.047 A 
HETATM   20  C15 UNK     1      27.479  -7.150  36.995  1.00  0.00     0.017 A 
HETATM   21  C11 UNK     1      28.414  -7.028  35.966  1.00  0.00     0.009 A 
BRANCH  19  22
HETATM   22  C20 UNK     1      25.806  -8.488  38.284  1.00  0.00     0.417 C 
HETATM   23  F1  UNK     1      26.166  -9.388  39.247  1.00  0.00    -0.166 F 
HETATM   24  F2  UNK     1      25.574  -7.322  38.955  1.00  0.00    -0.166 F 
HETATM   25  F3  UNK     1      24.584  -8.902  37.836  1.00  0.00    -0.166 F 
ENDBRANCH  19  22
ENDBRANCH   4  16
BRANCH   6  26
HETATM   26  C12 UNK     1      28.037  -7.257  32.221  1.00  0.00     0.294 C 
HETATM   27  O5  UNK     1      27.111  -6.487  32.050  1.00  0.00    -0.259 OA
BRANCH  26  28
HETATM   28  O3  UNK     1      28.186  -8.513  31.738  1.00  0.00    -0.323 OA
HETATM   29  C21 UNK     1      27.839  -8.678  30.360  1.00  0.00     0.213 C 
ENDBRANCH  26  28
ENDBRANCH   6  26
BRANCH   9  30
HETATM   30  N1  UNK     1      29.535  -4.751  32.009  1.00  0.00    -0.379 N 
HETATM   31  H8  UNK     1      29.827  -3.799  32.188  1.00  0.00     0.158 HD
HETATM   32  H9  UNK     1      28.980  -4.970  31.191  1.00  0.00     0.158 HD
ENDBRANCH   9  30
TORSDOF 5
ENDMDL
MODEL 9
REMARK VINA RESULT:      -7.7     20.675     24.006
REMARK  5 active torsions:
REMARK  status: ('A' for Active; 'I' for Inactive)
REMARK    1  A    between atoms: C12_21  and  O3_6 
REMARK    2  A    between atoms: C7_16  and  N1_9 
REMARK    3  A    between atoms: C1_10  and  C4_13 
REMARK    4  A    between atoms: C12_21  and  C3_12 
REMARK    5  A    between atoms: C16_25  and  C20_29 
ROOT
HETATM    1  O1  UNK     1      19.099  -3.107  12.363  1.00  0.00    -0.292 OA
HETATM    2  O2  UNK     1      18.939  -6.955  13.998  1.00  0.00    -0.274 OA
HETATM    3  O4  UNK     1      19.089  -6.074  16.096  1.00  0.00    -0.259 OA
HETATM    4  C1  UNK     1      19.343  -3.345  15.215  1.00  0.00     0.104 C 
HETATM    5  C2  UNK     1      19.161  -4.533  14.288  1.00  0.00     0.066 A 
HETATM    6  C3  UNK     1      19.139  -2.027  14.485  1.00  0.00     0.081 C 
HETATM    7  C5  UNK     1      19.065  -4.356  12.961  1.00  0.00     0.104 A 
HETATM    8  C6  UNK     1      18.922  -5.491  12.055  1.00  0.00     0.033 A 
HETATM    9  C7  UNK     1      19.039  -1.949  13.142  1.00  0.00     0.155 C 
HETATM   10  C8  UNK     1      19.062  -5.890  14.884  1.00  0.00     0.298 A 
HETATM   11  C9  UNK     1      18.868  -6.769  12.604  1.00  0.00     0.092 A 
HETATM   12  C13 UNK     1      18.840  -5.368  10.663  1.00  0.00     0.017 A 
HETATM   13  C17 UNK     1      18.736  -7.912  11.816  1.00  0.00     0.038 A 
HETATM   14  C18 UNK     1      18.708  -6.504   9.858  1.00  0.00     0.001 A 
HETATM   15  C19 UNK     1      18.657  -7.774  10.433  1.00  0.00     0.003 A 
ENDROOT
BRANCH   4  16
HETATM   16  C4  UNK     1      20.701  -3.382  15.851  1.00  0.00    -0.044 A 
HETATM   17  C10 UNK     1      20.814  -3.321  17.236  1.00  0.00     0.009 A 
HETATM   18  C14 UNK     1      22.077  -3.355  17.828  1.00  0.00     0.017 A 
HETATM   19  C16 UNK     1      23.217  -3.449  17.031  1.00  0.00     0.047 A 
HETATM   20  C15 UNK     1      23.097  -3.510  15.643  1.00  0.00     0.017 A 
HETATM   21  C11 UNK     1      21.833  -3.475  15.051  1.00  0.00     0.009 A 
BRANCH  19  22
HETATM   22  C20 UNK     1      24.567  -3.486  17.664  1.00  0.00     0.417 C 
HETATM   23  F1  UNK     1      24.602  -2.935  18.914  1.00  0.00    -0.166 F 
HETATM   24  F2  UNK     1      25.066  -4.748  17.817  1.00  0.00    -0.166 F 
HETATM   25  F3  UNK     1      25.506  -2.808  16.939  1.00  0.00    -0.166 F 
ENDBRANCH  19  22
ENDBRANCH   4  16
BRANCH   6  26
HETATM   26  C12 UNK     1      19.026  -0.823  15.328  1.00  0.00     0.294 C 
HETATM   27  O5  UNK     1      19.474   0.260  15.006  1.00  0.00    -0.259 OA
BRANCH  26  28
HETATM   28  O3  UNK     1      18.362  -1.156  16.461  1.00  0.00    -0.323 OA
HETATM   29  C21 UNK     1      18.770  -0.445  17.634  1.00  0.00     0.213 C 
ENDBRANCH  26  28
ENDBRANCH   6  26
BRANCH   9  30
HETATM   30  N1  UNK     1      18.873  -0.812  12.406  1.00  0.00    -0.379 N 
HETATM   31  H8  UNK     1      17.962  -0.559  12.044  1.00  0.00     0.158 HD
HETATM   32  H9  UNK     1      19.676  -0.223  12.224  1.00  0.00     0.158 HD
ENDBRANCH   9  30
TORSDOF 5
ENDMDL
MODEL 10
REMARK VINA RESULT:      -7.7      2.243      2.877
REMARK  5 active torsions:
REMARK  status: ('A' for Active; 'I' for Inactive)
REMARK    1  A    between atoms: C12_21  and  O3_6 
REMARK    2  A    between atoms: C7_16  and  N1_9 
REMARK    3  A    between atoms: C1_10  and  C4_13 
REMARK    4  A    between atoms: C12_21  and  C3_12 
REMARK    5  A    between atoms: C16_25  and  C20_29 
ROOT
HETATM    1  O1  UNK     1      34.234  -7.789  35.487  1.00  0.00    -0.292 OA
HETATM    2  O2  UNK     1      31.453  -9.347  32.777  1.00  0.00    -0.274 OA
HETATM    3  O4  UNK     1      29.796  -8.144  33.779  1.00  0.00    -0.259 OA
HETATM    4  C1  UNK     1      31.485  -7.034  35.830  1.00  0.00     0.104 C 
HETATM    5  C2  UNK     1      31.968  -7.958  34.728  1.00  0.00     0.066 A 
HETATM    6  C3  UNK     1      32.644  -6.380  36.564  1.00  0.00     0.081 C 
HETATM    7  C5  UNK     1      33.266  -8.282  34.628  1.00  0.00     0.104 A 
HETATM    8  C6  UNK     1      33.740  -9.195  33.592  1.00  0.00     0.033 A 
HETATM    9  C7  UNK     1      33.926  -6.766  36.386  1.00  0.00     0.155 C 
HETATM   10  C8  UNK     1      30.978  -8.470  33.746  1.00  0.00     0.298 A 
HETATM   11  C9  UNK     1      32.811  -9.709  32.693  1.00  0.00     0.092 A 
HETATM   12  C13 UNK     1      35.078  -9.585  33.454  1.00  0.00     0.017 A 
HETATM   13  C17 UNK     1      33.173 -10.590  31.673  1.00  0.00     0.038 A 
HETATM   14  C18 UNK     1      35.457 -10.468  32.438  1.00  0.00     0.001 A 
HETATM   15  C19 UNK     1      34.506 -10.970  31.549  1.00  0.00     0.003 A 
ENDROOT
BRANCH   4  16
HETATM   16  C4  UNK     1      30.616  -7.783  36.797  1.00  0.00    -0.044 A 
HETATM   17  C10 UNK     1      31.095  -8.943  37.396  1.00  0.00     0.009 A 
HETATM   18  C14 UNK     1      30.287  -9.641  38.295  1.00  0.00     0.017 A 
HETATM   19  C16 UNK     1      29.006  -9.173  38.588  1.00  0.00     0.047 A 
HETATM   20  C15 UNK     1      28.532  -8.009  37.983  1.00  0.00     0.017 A 
HETATM   21  C11 UNK     1      29.341  -7.312  37.084  1.00  0.00     0.009 A 
BRANCH  19  22
HETATM   22  C20 UNK     1      28.143  -9.918  39.549  1.00  0.00     0.417 C 
HETATM   23  F1  UNK     1      27.226 -10.731  38.945  1.00  0.00    -0.166 F 
HETATM   24  F2  UNK     1      28.841 -10.733  40.394  1.00  0.00    -0.166 F 
HETATM   25  F3  UNK     1      27.419  -9.088  40.357  1.00  0.00    -0.166 F 
ENDBRANCH  19  22
ENDBRANCH   4  16
BRANCH   6  26
HETATM   26  C12 UNK     1      32.303  -5.268  37.469  1.00  0.00     0.294 C 
HETATM   27  O5  UNK     1      32.641  -5.231  38.637  1.00  0.00    -0.259 OA
BRANCH  26  28
HETATM   28  O3  UNK     1      31.582  -4.356  36.773  1.00  0.00    -0.323 OA
HETATM   29  C21 UNK     1      32.331  -3.240  36.282  1.00  0.00     0.213 C 
ENDBRANCH  26  28
ENDBRANCH   6  26
BRANCH   9  30
HETATM   30  N1  UNK     1      35.022  -6.249  37.012  1.00  0.00    -0.379 N 
HETATM   31  H8  UNK     1      34.981  -5.977  37.986  1.00  0.00     0.158 HD
HETATM   32  H9  UNK     1      35.880  -6.137  36.487  1.00  0.00     0.158 HD
ENDBRANCH   9  30
TORSDOF 5
ENDMDL
