MODEL 1
REMARK VINA RESULT:      -9.0      0.000      0.000
REMARK  6 active torsions:
REMARK  status: ('A' for Active; 'I' for Inactive)
REMARK    1  A    between atoms: C2_7  and  O1_3 
REMARK    2  A    between atoms: C3_8  and  O1_3 
REMARK    3  A    between atoms: C5_10  and  O2_4 
REMARK    4  A    between atoms: C1_6  and  C2_7 
REMARK    5  A    between atoms: C12_17  and  C4_9 
REMARK    6  A    between atoms: C15_20  and  C16_21 
ROOT
HETATM    1  N1  UNK     1      17.916   2.549  33.711  1.00  0.00    -0.191 NA
HETATM    2  C12 UNK     1      18.512   4.497  30.930  1.00  0.00     0.036 C 
HETATM    3  C15 UNK     1      18.454   3.177  31.246  1.00  0.00     0.055 C 
HETATM    4  C24 UNK     1      18.155   2.839  32.613  1.00  0.00     0.100 C 
ENDROOT
BRANCH   3   5
HETATM    5  C16 UNK     1      18.667   2.104  30.288  1.00  0.00    -0.014 A 
HETATM    6  C18 UNK     1      19.567   1.077  30.577  1.00  0.00     0.036 A 
HETATM    7  C20 UNK     1      19.771   0.049  29.656  1.00  0.00     0.034 A 
HETATM    8 Cl1  UNK     1      20.881  -1.217  30.012  1.00  0.00    -0.084 Cl
HETATM    9  C22 UNK     1      19.076   0.047  28.447  1.00  0.00     0.024 A 
HETATM   10  C21 UNK     1      18.176   1.073  28.159  1.00  0.00     0.003 A 
HETATM   11  C19 UNK     1      17.972   2.101  29.078  1.00  0.00     0.013 A 
ENDBRANCH   3   5
BRANCH   2  12
HETATM   12  C4  UNK     1      18.296   5.613  31.863  1.00  0.00    -0.015 A 
HETATM   13  C6  UNK     1      16.983   5.895  32.221  1.00  0.00     0.052 A 
HETATM   14  C5  UNK     1      16.720   6.941  33.104  1.00  0.00     0.102 A 
HETATM   15  C3  UNK     1      17.772   7.698  33.620  1.00  0.00     0.103 A 
HETATM   16  C7  UNK     1      19.086   7.408  33.255  1.00  0.00     0.059 A 
HETATM   17  C8  UNK     1      19.349   6.361  32.373  1.00  0.00     0.024 A 
HETATM   18 Br1  UNK     1      21.161   6.019  31.916  1.00  0.00    -0.050 Br
BRANCH  14  19
HETATM   19  O2  UNK     1      15.432   7.216  33.453  1.00  0.00    -0.353 OA
HETATM   20  C23 UNK     1      14.489   7.357  32.392  1.00  0.00     0.210 C 
ENDBRANCH  14  19
BRANCH  15  21
HETATM   21  O1  UNK     1      17.527   8.724  34.483  1.00  0.00    -0.344 OA
BRANCH  21  22
HETATM   22  C2  UNK     1      17.458  10.036  33.927  1.00  0.00     0.214 C 
BRANCH  22  23
HETATM   23  C1  UNK     1      16.390  10.815  34.638  1.00  0.00    -0.034 A 
HETATM   24  C9  UNK     1      16.585  12.165  34.906  1.00  0.00     0.010 A 
HETATM   25  C13 UNK     1      15.593  12.888  35.568  1.00  0.00     0.007 A 
HETATM   26  C11 UNK     1      14.412  12.256  35.959  1.00  0.00    -0.062 A 
HETATM   27  C14 UNK     1      14.224  10.900  35.687  1.00  0.00     0.007 A 
HETATM   28  C17 UNK     1      13.352  13.029  36.667  1.00  0.00     0.048 C 
HETATM   29  C10 UNK     1      15.217  10.177  35.025  1.00  0.00     0.010 A 
ENDBRANCH  22  23
ENDBRANCH  21  22
ENDBRANCH  15  21
ENDBRANCH   2  12
TORSDOF 6
ENDMDL
MODEL 2
REMARK VINA RESULT:      -8.7      6.145      8.108
REMARK  6 active torsions:
REMARK  status: ('A' for Active; 'I' for Inactive)
REMARK    1  A    between atoms: C2_7  and  O1_3 
REMARK    2  A    between atoms: C3_8  and  O1_3 
REMARK    3  A    between atoms: C5_10  and  O2_4 
REMARK    4  A    between atoms: C1_6  and  C2_7 
REMARK    5  A    between atoms: C12_17  and  C4_9 
REMARK    6  A    between atoms: C15_20  and  C16_21 
ROOT
HETATM    1  N1  UNK     1      21.951  -1.733  35.364  1.00  0.00    -0.191 NA
HETATM    2  C12 UNK     1      18.611  -2.340  35.970  1.00  0.00     0.036 C 
HETATM    3  C15 UNK     1      19.805  -2.959  36.169  1.00  0.00     0.055 C 
HETATM    4  C24 UNK     1      20.987  -2.272  35.720  1.00  0.00     0.100 C 
ENDROOT
BRANCH   3   5
HETATM    5  C16 UNK     1      19.946  -4.257  36.809  1.00  0.00    -0.014 A 
HETATM    6  C18 UNK     1      21.096  -4.554  37.542  1.00  0.00     0.036 A 
HETATM    7  C20 UNK     1      21.229  -5.799  38.156  1.00  0.00     0.034 A 
HETATM    8 Cl1  UNK     1      22.648  -6.166  39.059  1.00  0.00    -0.084 Cl
HETATM    9  C22 UNK     1      20.215  -6.748  38.037  1.00  0.00     0.024 A 
HETATM   10  C21 UNK     1      19.065  -6.451  37.305  1.00  0.00     0.003 A 
HETATM   11  C19 UNK     1      18.931  -5.207  36.691  1.00  0.00     0.013 A 
ENDBRANCH   3   5
BRANCH   2  12
HETATM   12  C4  UNK     1      18.422  -1.026  35.335  1.00  0.00    -0.015 A 
HETATM   13  C6  UNK     1      18.632  -0.949  33.964  1.00  0.00     0.052 A 
HETATM   14  C5  UNK     1      18.465   0.271  33.310  1.00  0.00     0.102 A 
HETATM   15  C3  UNK     1      18.092   1.404  34.033  1.00  0.00     0.103 A 
HETATM   16  C7  UNK     1      17.885   1.316  35.409  1.00  0.00     0.059 A 
HETATM   17  C8  UNK     1      18.050   0.096  36.063  1.00  0.00     0.024 A 
HETATM   18 Br1  UNK     1      17.751   0.046  37.939  1.00  0.00    -0.050 Br
BRANCH  14  19
HETATM   19  O2  UNK     1      18.672   0.345  31.965  1.00  0.00    -0.353 OA
HETATM   20  C23 UNK     1      19.580  -0.597  31.396  1.00  0.00     0.210 C 
ENDBRANCH  14  19
BRANCH  15  21
HETATM   21  O1  UNK     1      17.927   2.602  33.405  1.00  0.00    -0.344 OA
BRANCH  21  22
HETATM   22  C2  UNK     1      18.529   3.742  34.017  1.00  0.00     0.214 C 
BRANCH  22  23
HETATM   23  C1  UNK     1      17.936   4.987  33.424  1.00  0.00    -0.034 A 
HETATM   24  C9  UNK     1      17.992   5.190  32.050  1.00  0.00     0.010 A 
HETATM   25  C13 UNK     1      17.442   6.347  31.500  1.00  0.00     0.007 A 
HETATM   26  C11 UNK     1      16.838   7.294  32.328  1.00  0.00    -0.062 A 
HETATM   27  C14 UNK     1      16.786   7.084  33.706  1.00  0.00     0.007 A 
HETATM   28  C17 UNK     1      16.250   8.532  31.739  1.00  0.00     0.048 C 
HETATM   29  C10 UNK     1      17.337   5.926  34.256  1.00  0.00     0.010 A 
ENDBRANCH  22  23
ENDBRANCH  21  22
ENDBRANCH  15  21
ENDBRANCH   2  12
TORSDOF 6
ENDMDL
MODEL 3
REMARK VINA RESULT:      -8.6     18.489     20.279
REMARK  6 active torsions:
REMARK  status: ('A' for Active; 'I' for Inactive)
REMARK    1  A    between atoms: C2_7  and  O1_3 
REMARK    2  A    between atoms: C3_8  and  O1_3 
REMARK    3  A    between atoms: C5_10  and  O2_4 
REMARK    4  A    between atoms: C1_6  and  C2_7 
REMARK    5  A    between atoms: C12_17  and  C4_9 
REMARK    6  A    between atoms: C15_20  and  C16_21 
ROOT
HETATM    1  N1  UNK     1      27.225 -10.235  39.829  1.00  0.00    -0.191 NA
HETATM    2  C12 UNK     1      27.467  -8.860  36.676  1.00  0.00     0.036 C 
HETATM    3  C15 UNK     1      26.633  -9.689  37.357  1.00  0.00     0.055 C 
HETATM    4  C24 UNK     1      26.969  -9.985  38.725  1.00  0.00     0.100 C 
ENDROOT
BRANCH   3   5
HETATM    5  C16 UNK     1      25.432 -10.278  36.785  1.00  0.00    -0.014 A 
HETATM    6  C18 UNK     1      24.262  -9.524  36.689  1.00  0.00     0.036 A 
HETATM    7  C20 UNK     1      23.111 -10.090  36.139  1.00  0.00     0.034 A 
HETATM    8 Cl1  UNK     1      21.667  -9.161  36.021  1.00  0.00    -0.084 Cl
HETATM    9  C22 UNK     1      23.130 -11.409  35.687  1.00  0.00     0.024 A 
HETATM   10  C21 UNK     1      24.301 -12.162  35.782  1.00  0.00     0.003 A 
HETATM   11  C19 UNK     1      25.451 -11.597  36.332  1.00  0.00     0.013 A 
ENDBRANCH   3   5
BRANCH   2  12
HETATM   12  C4  UNK     1      28.685  -8.237  37.216  1.00  0.00    -0.015 A 
HETATM   13  C6  UNK     1      29.897  -8.847  36.913  1.00  0.00     0.052 A 
HETATM   14  C5  UNK     1      31.083  -8.298  37.398  1.00  0.00     0.102 A 
HETATM   15  C3  UNK     1      31.048  -7.144  38.181  1.00  0.00     0.103 A 
HETATM   16  C7  UNK     1      29.828  -6.540  38.480  1.00  0.00     0.059 A 
HETATM   17  C8  UNK     1      28.641  -7.088  37.994  1.00  0.00     0.024 A 
HETATM   18 Br1  UNK     1      27.013  -6.214  38.437  1.00  0.00    -0.050 Br
BRANCH  14  19
HETATM   19  O2  UNK     1      32.270  -8.898  37.101  1.00  0.00    -0.353 OA
HETATM   20  C23 UNK     1      32.641  -8.953  35.725  1.00  0.00     0.210 C 
ENDBRANCH  14  19
BRANCH  15  21
HETATM   21  O1  UNK     1      32.201  -6.599  38.661  1.00  0.00    -0.344 OA
BRANCH  21  22
HETATM   22  C2  UNK     1      32.579  -5.324  38.145  1.00  0.00     0.214 C 
BRANCH  22  23
HETATM   23  C1  UNK     1      33.358  -5.519  36.878  1.00  0.00    -0.034 A 
HETATM   24  C9  UNK     1      34.642  -6.048  36.933  1.00  0.00     0.010 A 
HETATM   25  C13 UNK     1      35.367  -6.229  35.754  1.00  0.00     0.007 A 
HETATM   26  C11 UNK     1      34.801  -5.879  34.528  1.00  0.00    -0.062 A 
HETATM   27  C14 UNK     1      33.512  -5.348  34.480  1.00  0.00     0.007 A 
HETATM   28  C17 UNK     1      35.576  -6.071  33.268  1.00  0.00     0.048 C 
HETATM   29  C10 UNK     1      32.788  -5.167  35.660  1.00  0.00     0.010 A 
ENDBRANCH  22  23
ENDBRANCH  21  22
ENDBRANCH  15  21
ENDBRANCH   2  12
TORSDOF 6
ENDMDL
MODEL 4
REMARK VINA RESULT:      -8.5      6.516      9.091
REMARK  6 active torsions:
REMARK  status: ('A' for Active; 'I' for Inactive)
REMARK    1  A    between atoms: C2_7  and  O1_3 
REMARK    2  A    between atoms: C3_8  and  O1_3 
REMARK    3  A    between atoms: C5_10  and  O2_4 
REMARK    4  A    between atoms: C1_6  and  C2_7 
REMARK    5  A    between atoms: C12_17  and  C4_9 
REMARK    6  A    between atoms: C15_20  and  C16_21 
ROOT
HETATM    1  N1  UNK     1      22.051  -1.868  35.408  1.00  0.00    -0.191 NA
HETATM    2  C12 UNK     1      18.882  -2.747  36.443  1.00  0.00     0.036 C 
HETATM    3  C15 UNK     1      20.147  -3.237  36.529  1.00  0.00     0.055 C 
HETATM    4  C24 UNK     1      21.194  -2.472  35.905  1.00  0.00     0.100 C 
ENDROOT
BRANCH   3   5
HETATM    5  C16 UNK     1      20.491  -4.472  37.216  1.00  0.00    -0.014 A 
HETATM    6  C18 UNK     1      19.573  -5.521  37.268  1.00  0.00     0.036 A 
HETATM    7  C20 UNK     1      19.905  -6.706  37.926  1.00  0.00     0.034 A 
HETATM    8 Cl1  UNK     1      18.772  -8.000  37.992  1.00  0.00    -0.084 Cl
HETATM    9  C22 UNK     1      21.153  -6.841  38.533  1.00  0.00     0.024 A 
HETATM   10  C21 UNK     1      22.071  -5.792  38.480  1.00  0.00     0.003 A 
HETATM   11  C19 UNK     1      21.740  -4.608  37.822  1.00  0.00     0.013 A 
ENDBRANCH   3   5
BRANCH   2  12
HETATM   12  C4  UNK     1      18.489  -1.501  35.767  1.00  0.00    -0.015 A 
HETATM   13  C6  UNK     1      18.609  -1.466  34.383  1.00  0.00     0.052 A 
HETATM   14  C5  UNK     1      18.250  -0.310  33.691  1.00  0.00     0.102 A 
HETATM   15  C3  UNK     1      17.774   0.801  34.388  1.00  0.00     0.103 A 
HETATM   16  C7  UNK     1      17.658   0.756  35.777  1.00  0.00     0.059 A 
HETATM   17  C8  UNK     1      18.016  -0.400  36.469  1.00  0.00     0.024 A 
HETATM   18 Br1  UNK     1      17.833  -0.395  38.360  1.00  0.00    -0.050 Br
BRANCH  14  19
HETATM   19  O2  UNK     1      18.368  -0.277  32.334  1.00  0.00    -0.353 OA
HETATM   20  C23 UNK     1      19.406  -1.066  31.755  1.00  0.00     0.210 C 
ENDBRANCH  14  19
BRANCH  15  21
HETATM   21  O1  UNK     1      17.421   1.936  33.722  1.00  0.00    -0.344 OA
BRANCH  21  22
HETATM   22  C2  UNK     1      18.012   3.157  34.164  1.00  0.00     0.214 C 
BRANCH  22  23
HETATM   23  C1  UNK     1      18.487   3.932  32.971  1.00  0.00    -0.034 A 
HETATM   24  C9  UNK     1      18.991   5.217  33.140  1.00  0.00     0.010 A 
HETATM   25  C13 UNK     1      19.432   5.938  32.031  1.00  0.00     0.007 A 
HETATM   26  C11 UNK     1      19.366   5.369  30.758  1.00  0.00    -0.062 A 
HETATM   27  C14 UNK     1      18.858   4.080  30.596  1.00  0.00     0.007 A 
HETATM   28  C17 UNK     1      19.837   6.141  29.572  1.00  0.00     0.048 C 
HETATM   29  C10 UNK     1      18.417   3.359  31.706  1.00  0.00     0.010 A 
ENDBRANCH  22  23
ENDBRANCH  21  22
ENDBRANCH  15  21
ENDBRANCH   2  12
TORSDOF 6
ENDMDL
MODEL 5
REMARK VINA RESULT:      -8.4      3.992     10.304
REMARK  6 active torsions:
REMARK  status: ('A' for Active; 'I' for Inactive)
REMARK    1  A    between atoms: C2_7  and  O1_3 
REMARK    2  A    between atoms: C3_8  and  O1_3 
REMARK    3  A    between atoms: C5_10  and  O2_4 
REMARK    4  A    between atoms: C1_6  and  C2_7 
REMARK    5  A    between atoms: C12_17  and  C4_9 
REMARK    6  A    between atoms: C15_20  and  C16_21 
ROOT
HETATM    1  N1  UNK     1      21.693   6.089  32.670  1.00  0.00    -0.191 NA
HETATM    2  C12 UNK     1      18.250   6.180  32.841  1.00  0.00     0.036 C 
HETATM    3  C15 UNK     1      19.299   7.001  33.113  1.00  0.00     0.055 C 
HETATM    4  C24 UNK     1      20.620   6.487  32.865  1.00  0.00     0.100 C 
ENDROOT
BRANCH   3   5
HETATM    5  C16 UNK     1      19.155   8.353  33.629  1.00  0.00    -0.014 A 
HETATM    6  C18 UNK     1      17.923   9.004  33.550  1.00  0.00     0.036 A 
HETATM    7  C20 UNK     1      17.787  10.301  34.046  1.00  0.00     0.034 A 
HETATM    8 Cl1  UNK     1      16.268  11.104  33.948  1.00  0.00    -0.084 Cl
HETATM    9  C22 UNK     1      18.882  10.948  34.618  1.00  0.00     0.024 A 
HETATM   10  C21 UNK     1      20.113  10.297  34.697  1.00  0.00     0.003 A 
HETATM   11  C19 UNK     1      20.250   9.001  34.202  1.00  0.00     0.013 A 
ENDBRANCH   3   5
BRANCH   2  12
HETATM   12  C4  UNK     1      18.348   4.811  32.313  1.00  0.00    -0.015 A 
HETATM   13  C6  UNK     1      18.170   3.769  33.215  1.00  0.00     0.052 A 
HETATM   14  C5  UNK     1      18.251   2.451  32.769  1.00  0.00     0.102 A 
HETATM   15  C3  UNK     1      18.509   2.185  31.424  1.00  0.00     0.103 A 
HETATM   16  C7  UNK     1      18.686   3.237  30.526  1.00  0.00     0.059 A 
HETATM   17  C8  UNK     1      18.604   4.556  30.973  1.00  0.00     0.024 A 
HETATM   18 Br1  UNK     1      18.854   5.942  29.697  1.00  0.00    -0.050 Br
BRANCH  14  19
HETATM   19  O2  UNK     1      18.078   1.431  33.655  1.00  0.00    -0.353 OA
HETATM   20  C23 UNK     1      17.745   1.787  34.996  1.00  0.00     0.210 C 
ENDBRANCH  14  19
BRANCH  15  21
HETATM   21  O1  UNK     1      18.591   0.901  30.976  1.00  0.00    -0.344 OA
BRANCH  21  22
HETATM   22  C2  UNK     1      19.745   0.553  30.213  1.00  0.00     0.214 C 
BRANCH  22  23
HETATM   23  C1  UNK     1      20.219  -0.807  30.632  1.00  0.00    -0.034 A 
HETATM   24  C9  UNK     1      20.380  -1.094  31.983  1.00  0.00     0.010 A 
HETATM   25  C13 UNK     1      20.822  -2.358  32.373  1.00  0.00     0.007 A 
HETATM   26  C11 UNK     1      21.101  -3.327  31.409  1.00  0.00    -0.062 A 
HETATM   27  C14 UNK     1      20.938  -3.032  30.055  1.00  0.00     0.007 A 
HETATM   28  C17 UNK     1      21.574  -4.679  31.826  1.00  0.00     0.048 C 
HETATM   29  C10 UNK     1      20.496  -1.767  29.665  1.00  0.00     0.010 A 
ENDBRANCH  22  23
ENDBRANCH  21  22
ENDBRANCH  15  21
ENDBRANCH   2  12
TORSDOF 6
ENDMDL
MODEL 6
REMARK VINA RESULT:      -8.4      7.577     10.316
REMARK  6 active torsions:
REMARK  status: ('A' for Active; 'I' for Inactive)
REMARK    1  A    between atoms: C2_7  and  O1_3 
REMARK    2  A    between atoms: C3_8  and  O1_3 
REMARK    3  A    between atoms: C5_10  and  O2_4 
REMARK    4  A    between atoms: C1_6  and  C2_7 
REMARK    5  A    between atoms: C12_17  and  C4_9 
REMARK    6  A    between atoms: C15_20  and  C16_21 
ROOT
HETATM    1  N1  UNK     1      17.580  -5.291  36.416  1.00  0.00    -0.191 NA
HETATM    2  C12 UNK     1      20.541  -3.551  36.714  1.00  0.00     0.036 C 
HETATM    3  C15 UNK     1      20.017  -4.735  37.127  1.00  0.00     0.055 C 
HETATM    4  C24 UNK     1      18.667  -5.034  36.729  1.00  0.00     0.100 C 
ENDROOT
BRANCH   3   5
HETATM    5  C16 UNK     1      20.743  -5.704  37.934  1.00  0.00    -0.014 A 
HETATM    6  C18 UNK     1      20.130  -6.900  38.308  1.00  0.00     0.036 A 
HETATM    7  C20 UNK     1      20.828  -7.828  39.082  1.00  0.00     0.034 A 
HETATM    8 Cl1  UNK     1      20.072  -9.304  39.545  1.00  0.00    -0.084 Cl
HETATM    9  C22 UNK     1      22.136  -7.560  39.482  1.00  0.00     0.024 A 
HETATM   10  C21 UNK     1      22.749  -6.364  39.107  1.00  0.00     0.003 A 
HETATM   11  C19 UNK     1      22.053  -5.436  38.334  1.00  0.00     0.013 A 
ENDBRANCH   3   5
BRANCH   2  12
HETATM   12  C4  UNK     1      19.848  -2.547  35.893  1.00  0.00    -0.015 A 
HETATM   13  C6  UNK     1      20.157  -2.514  34.538  1.00  0.00     0.052 A 
HETATM   14  C5  UNK     1      19.528  -1.582  33.713  1.00  0.00     0.102 A 
HETATM   15  C3  UNK     1      18.598  -0.692  34.247  1.00  0.00     0.103 A 
HETATM   16  C7  UNK     1      18.295  -0.733  35.608  1.00  0.00     0.059 A 
HETATM   17  C8  UNK     1      18.923  -1.665  36.434  1.00  0.00     0.024 A 
HETATM   18 Br1  UNK     1      18.464  -1.667  38.278  1.00  0.00    -0.050 Br
BRANCH  14  19
HETATM   19  O2  UNK     1      19.833  -1.551  32.384  1.00  0.00    -0.353 OA
HETATM   20  C23 UNK     1      20.898  -2.391  31.944  1.00  0.00     0.210 C 
ENDBRANCH  14  19
BRANCH  15  21
HETATM   21  O1  UNK     1      17.978   0.223  33.450  1.00  0.00    -0.344 OA
BRANCH  21  22
HETATM   22  C2  UNK     1      17.765   1.522  33.999  1.00  0.00     0.214 C 
BRANCH  22  23
HETATM   23  C1  UNK     1      18.122   2.554  32.970  1.00  0.00    -0.034 A 
HETATM   24  C9  UNK     1      18.368   2.163  31.659  1.00  0.00     0.010 A 
HETATM   25  C13 UNK     1      18.701   3.123  30.703  1.00  0.00     0.007 A 
HETATM   26  C11 UNK     1      18.786   4.468  31.065  1.00  0.00    -0.062 A 
HETATM   27  C14 UNK     1      18.538   4.852  32.383  1.00  0.00     0.007 A 
HETATM   28  C17 UNK     1      19.142   5.493  30.043  1.00  0.00     0.048 C 
HETATM   29  C10 UNK     1      18.205   3.892  33.339  1.00  0.00     0.010 A 
ENDBRANCH  22  23
ENDBRANCH  21  22
ENDBRANCH  15  21
ENDBRANCH   2  12
TORSDOF 6
ENDMDL
MODEL 7
REMARK VINA RESULT:      -8.3      2.052      2.672
REMARK  6 active torsions:
REMARK  status: ('A' for Active; 'I' for Inactive)
REMARK    1  A    between atoms: C2_7  and  O1_3 
REMARK    2  A    between atoms: C3_8  and  O1_3 
REMARK    3  A    between atoms: C5_10  and  O2_4 
REMARK    4  A    between atoms: C1_6  and  C2_7 
REMARK    5  A    between atoms: C12_17  and  C4_9 
REMARK    6  A    between atoms: C15_20  and  C16_21 
ROOT
HETATM    1  N1  UNK     1      20.043   6.195  29.762  1.00  0.00    -0.191 NA
HETATM    2  C12 UNK     1      17.817   4.771  31.977  1.00  0.00     0.036 C 
HETATM    3  C15 UNK     1      18.573   4.387  30.915  1.00  0.00     0.055 C 
HETATM    4  C24 UNK     1      19.384   5.395  30.283  1.00  0.00     0.100 C 
ENDROOT
BRANCH   3   5
HETATM    5  C16 UNK     1      18.609   3.029  30.396  1.00  0.00    -0.014 A 
HETATM    6  C18 UNK     1      19.039   1.980  31.211  1.00  0.00     0.036 A 
HETATM    7  C20 UNK     1      19.072   0.678  30.711  1.00  0.00     0.034 A 
HETATM    8 Cl1  UNK     1      19.603  -0.615  31.716  1.00  0.00    -0.084 Cl
HETATM    9  C22 UNK     1      18.677   0.424  29.399  1.00  0.00     0.024 A 
HETATM   10  C21 UNK     1      18.247   1.472  28.584  1.00  0.00     0.003 A 
HETATM   11  C19 UNK     1      18.214   2.773  29.082  1.00  0.00     0.013 A 
ENDBRANCH   3   5
BRANCH   2  12
HETATM   12  C4  UNK     1      17.755   6.128  32.539  1.00  0.00    -0.015 A 
HETATM   13  C6  UNK     1      16.736   6.957  32.086  1.00  0.00     0.052 A 
HETATM   14  C5  UNK     1      16.630   8.254  32.586  1.00  0.00     0.102 A 
HETATM   15  C3  UNK     1      17.544   8.712  33.535  1.00  0.00     0.103 A 
HETATM   16  C7  UNK     1      18.563   7.873  33.984  1.00  0.00     0.059 A 
HETATM   17  C8  UNK     1      18.669   6.575  33.485  1.00  0.00     0.024 A 
HETATM   18 Br1  UNK     1      20.080   5.484  34.139  1.00  0.00    -0.050 Br
BRANCH  14  19
HETATM   19  O2  UNK     1      15.631   9.066  32.139  1.00  0.00    -0.353 OA
HETATM   20  C23 UNK     1      14.415   9.066  32.885  1.00  0.00     0.210 C 
ENDBRANCH  14  19
BRANCH  15  21
HETATM   21  O1  UNK     1      17.451   9.978  34.031  1.00  0.00    -0.344 OA
BRANCH  21  22
HETATM   22  C2  UNK     1      18.609  10.803  33.924  1.00  0.00     0.214 C 
BRANCH  22  23
HETATM   23  C1  UNK     1      18.201  12.241  34.048  1.00  0.00    -0.034 A 
HETATM   24  C9  UNK     1      17.248  12.607  34.992  1.00  0.00     0.010 A 
HETATM   25  C13 UNK     1      16.867  13.944  35.107  1.00  0.00     0.007 A 
HETATM   26  C11 UNK     1      17.442  14.907  34.276  1.00  0.00    -0.062 A 
HETATM   27  C14 UNK     1      18.397  14.531  33.330  1.00  0.00     0.007 A 
HETATM   28  C17 UNK     1      17.034  16.336  34.398  1.00  0.00     0.048 C 
HETATM   29  C10 UNK     1      18.777  13.194  33.216  1.00  0.00     0.010 A 
ENDBRANCH  22  23
ENDBRANCH  21  22
ENDBRANCH  15  21
ENDBRANCH   2  12
TORSDOF 6
ENDMDL
MODEL 8
REMARK VINA RESULT:      -8.2     17.577     20.034
REMARK  6 active torsions:
REMARK  status: ('A' for Active; 'I' for Inactive)
REMARK    1  A    between atoms: C2_7  and  O1_3 
REMARK    2  A    between atoms: C3_8  and  O1_3 
REMARK    3  A    between atoms: C5_10  and  O2_4 
REMARK    4  A    between atoms: C1_6  and  C2_7 
REMARK    5  A    between atoms: C12_17  and  C4_9 
REMARK    6  A    between atoms: C15_20  and  C16_21 
ROOT
HETATM    1  N1  UNK     1      27.467 -10.343  39.586  1.00  0.00    -0.191 NA
HETATM    2  C12 UNK     1      27.414  -8.793  36.507  1.00  0.00     0.036 C 
HETATM    3  C15 UNK     1      26.665  -9.690  37.201  1.00  0.00     0.055 C 
HETATM    4  C24 UNK     1      27.117 -10.045  38.520  1.00  0.00     0.100 C 
ENDROOT
BRANCH   3   5
HETATM    5  C16 UNK     1      25.445 -10.294  36.689  1.00  0.00    -0.014 A 
HETATM    6  C18 UNK     1      24.274  -9.540  36.604  1.00  0.00     0.036 A 
HETATM    7  C20 UNK     1      23.105 -10.121  36.112  1.00  0.00     0.034 A 
HETATM    8 Cl1  UNK     1      21.660  -9.192  36.009  1.00  0.00    -0.084 Cl
HETATM    9  C22 UNK     1      23.106 -11.455  35.707  1.00  0.00     0.024 A 
HETATM   10  C21 UNK     1      24.278 -12.209  35.790  1.00  0.00     0.003 A 
HETATM   11  C19 UNK     1      25.446 -11.629  36.282  1.00  0.00     0.013 A 
ENDBRANCH   3   5
BRANCH   2  12
HETATM   12  C4  UNK     1      28.648  -8.152  36.987  1.00  0.00    -0.015 A 
HETATM   13  C6  UNK     1      28.509  -7.115  37.900  1.00  0.00     0.052 A 
HETATM   14  C5  UNK     1      29.645  -6.472  38.389  1.00  0.00     0.102 A 
HETATM   15  C3  UNK     1      30.911  -6.871  37.961  1.00  0.00     0.103 A 
HETATM   16  C7  UNK     1      31.040  -7.914  37.044  1.00  0.00     0.059 A 
HETATM   17  C8  UNK     1      29.904  -8.557  36.555  1.00  0.00     0.024 A 
HETATM   18 Br1  UNK     1      30.150  -9.970  35.308  1.00  0.00    -0.050 Br
BRANCH  14  19
HETATM   19  O2  UNK     1      29.507  -5.454  39.285  1.00  0.00    -0.353 OA
HETATM   20  C23 UNK     1      29.020  -4.211  38.782  1.00  0.00     0.210 C 
ENDBRANCH  14  19
BRANCH  15  21
HETATM   21  O1  UNK     1      32.029  -6.250  38.431  1.00  0.00    -0.344 OA
BRANCH  21  22
HETATM   22  C2  UNK     1      32.442  -5.062  37.758  1.00  0.00     0.214 C 
BRANCH  22  23
HETATM   23  C1  UNK     1      33.344  -5.433  36.618  1.00  0.00    -0.034 A 
HETATM   24  C9  UNK     1      32.908  -5.261  35.310  1.00  0.00     0.010 A 
HETATM   25  C13 UNK     1      33.746  -5.607  34.250  1.00  0.00     0.007 A 
HETATM   26  C11 UNK     1      35.016  -6.124  34.506  1.00  0.00    -0.062 A 
HETATM   27  C14 UNK     1      35.448  -6.295  35.822  1.00  0.00     0.007 A 
HETATM   28  C17 UNK     1      35.912  -6.494  33.373  1.00  0.00     0.048 C 
HETATM   29  C10 UNK     1      34.609  -5.949  36.882  1.00  0.00     0.010 A 
ENDBRANCH  22  23
ENDBRANCH  21  22
ENDBRANCH  15  21
ENDBRANCH   2  12
TORSDOF 6
ENDMDL
MODEL 9
REMARK VINA RESULT:      -8.2     16.996     18.889
REMARK  6 active torsions:
REMARK  status: ('A' for Active; 'I' for Inactive)
REMARK    1  A    between atoms: C2_7  and  O1_3 
REMARK    2  A    between atoms: C3_8  and  O1_3 
REMARK    3  A    between atoms: C5_10  and  O2_4 
REMARK    4  A    between atoms: C1_6  and  C2_7 
REMARK    5  A    between atoms: C12_17  and  C4_9 
REMARK    6  A    between atoms: C15_20  and  C16_21 
ROOT
HETATM    1  N1  UNK     1      29.324  -6.218  34.759  1.00  0.00    -0.191 NA
HETATM    2  C12 UNK     1      30.569  -7.026  37.871  1.00  0.00     0.036 C 
HETATM    3  C15 UNK     1      31.043  -6.594  36.673  1.00  0.00     0.055 C 
HETATM    4  C24 UNK     1      30.083  -6.389  35.619  1.00  0.00     0.100 C 
ENDROOT
BRANCH   3   5
HETATM    5  C16 UNK     1      32.447  -6.327  36.406  1.00  0.00    -0.014 A 
HETATM    6  C18 UNK     1      32.815  -5.220  35.640  1.00  0.00     0.036 A 
HETATM    7  C20 UNK     1      34.163  -4.964  35.386  1.00  0.00     0.034 A 
HETATM    8 Cl1  UNK     1      34.617  -3.600  34.441  1.00  0.00    -0.084 Cl
HETATM    9  C22 UNK     1      35.142  -5.815  35.897  1.00  0.00     0.024 A 
HETATM   10  C21 UNK     1      34.775  -6.922  36.664  1.00  0.00     0.003 A 
HETATM   11  C19 UNK     1      33.428  -7.177  36.917  1.00  0.00     0.013 A 
ENDBRANCH   3   5
BRANCH   2  12
HETATM   12  C4  UNK     1      29.159  -7.301  38.187  1.00  0.00    -0.015 A 
HETATM   13  C6  UNK     1      28.701  -8.595  37.970  1.00  0.00     0.052 A 
HETATM   14  C5  UNK     1      27.374  -8.912  38.253  1.00  0.00     0.102 A 
HETATM   15  C3  UNK     1      26.514  -7.932  38.750  1.00  0.00     0.103 A 
HETATM   16  C7  UNK     1      26.982  -6.637  38.964  1.00  0.00     0.059 A 
HETATM   17  C8  UNK     1      28.311  -6.320  38.682  1.00  0.00     0.024 A 
HETATM   18 Br1  UNK     1      28.884  -4.536  38.997  1.00  0.00    -0.050 Br
BRANCH  14  19
HETATM   19  O2  UNK     1      26.927 -10.181  38.039  1.00  0.00    -0.353 OA
HETATM   20  C23 UNK     1      26.308 -10.447  36.781  1.00  0.00     0.210 C 
ENDBRANCH  14  19
BRANCH  15  21
HETATM   21  O1  UNK     1      25.214  -8.230  39.030  1.00  0.00    -0.344 OA
BRANCH  21  22
HETATM   22  C2  UNK     1      24.261  -7.181  38.872  1.00  0.00     0.214 C 
BRANCH  22  23
HETATM   23  C1  UNK     1      22.898  -7.781  38.684  1.00  0.00    -0.034 A 
HETATM   24  C9  UNK     1      22.636  -8.555  37.559  1.00  0.00     0.010 A 
HETATM   25  C13 UNK     1      21.369  -9.111  37.383  1.00  0.00     0.007 A 
HETATM   26  C11 UNK     1      20.372  -8.889  38.334  1.00  0.00    -0.062 A 
HETATM   27  C14 UNK     1      20.642  -8.110  39.460  1.00  0.00     0.007 A 
HETATM   28  C17 UNK     1      19.018  -9.484  38.145  1.00  0.00     0.048 C 
HETATM   29  C10 UNK     1      21.910  -7.554  39.635  1.00  0.00     0.010 A 
ENDBRANCH  22  23
ENDBRANCH  21  22
ENDBRANCH  15  21
ENDBRANCH   2  12
TORSDOF 6
ENDMDL
MODEL 10
REMARK VINA RESULT:      -8.1      7.505     12.111
REMARK  6 active torsions:
REMARK  status: ('A' for Active; 'I' for Inactive)
REMARK    1  A    between atoms: C2_7  and  O1_3 
REMARK    2  A    between atoms: C3_8  and  O1_3 
REMARK    3  A    between atoms: C5_10  and  O2_4 
REMARK    4  A    between atoms: C1_6  and  C2_7 
REMARK    5  A    between atoms: C12_17  and  C4_9 
REMARK    6  A    between atoms: C15_20  and  C16_21 
ROOT
HETATM    1  N1  UNK     1      20.117   2.604  36.489  1.00  0.00    -0.191 NA
HETATM    2  C12 UNK     1      18.019   1.249  34.112  1.00  0.00     0.036 C 
HETATM    3  C15 UNK     1      18.520   2.468  34.442  1.00  0.00     0.055 C 
HETATM    4  C24 UNK     1      19.403   2.533  35.577  1.00  0.00     0.100 C 
ENDROOT
BRANCH   3   5
HETATM    5  C16 UNK     1      18.219   3.691  33.715  1.00  0.00    -0.014 A 
HETATM    6  C18 UNK     1      18.030   4.888  34.407  1.00  0.00     0.036 A 
HETATM    7  C20 UNK     1      17.742   6.060  33.708  1.00  0.00     0.034 A 
HETATM    8 Cl1  UNK     1      17.506   7.536  34.561  1.00  0.00    -0.084 Cl
HETATM    9  C22 UNK     1      17.642   6.036  32.317  1.00  0.00     0.024 A 
HETATM   10  C21 UNK     1      17.833   4.840  31.625  1.00  0.00     0.003 A 
HETATM   11  C19 UNK     1      18.121   3.668  32.323  1.00  0.00     0.013 A 
ENDBRANCH   3   5
BRANCH   2  12
HETATM   12  C4  UNK     1      18.301  -0.013  34.813  1.00  0.00    -0.015 A 
HETATM   13  C6  UNK     1      19.239  -0.862  34.238  1.00  0.00     0.052 A 
HETATM   14  C5  UNK     1      19.546  -2.071  34.861  1.00  0.00     0.102 A 
HETATM   15  C3  UNK     1      18.913  -2.421  36.053  1.00  0.00     0.103 A 
HETATM   16  C7  UNK     1      17.974  -1.562  36.623  1.00  0.00     0.059 A 
HETATM   17  C8  UNK     1      17.667  -0.353  36.001  1.00  0.00     0.024 A 
HETATM   18 Br1  UNK     1      16.379   0.771  36.830  1.00  0.00    -0.050 Br
BRANCH  14  19
HETATM   19  O2  UNK     1      20.465  -2.903  34.294  1.00  0.00    -0.353 OA
HETATM   20  C23 UNK     1      20.812  -2.653  32.933  1.00  0.00     0.210 C 
ENDBRANCH  14  19
BRANCH  15  21
HETATM   21  O1  UNK     1      19.205  -3.600  36.671  1.00  0.00    -0.344 OA
BRANCH  21  22
HETATM   22  C2  UNK     1      20.485  -3.709  37.290  1.00  0.00     0.214 C 
BRANCH  22  23
HETATM   23  C1  UNK     1      20.654  -5.099  37.828  1.00  0.00    -0.034 A 
HETATM   24  C9  UNK     1      21.881  -5.492  38.350  1.00  0.00     0.010 A 
HETATM   25  C13 UNK     1      22.038  -6.784  38.849  1.00  0.00     0.007 A 
HETATM   26  C11 UNK     1      20.966  -7.677  38.823  1.00  0.00    -0.062 A 
HETATM   27  C14 UNK     1      19.737  -7.276  38.297  1.00  0.00     0.007 A 
HETATM   28  C17 UNK     1      21.134  -9.059  39.356  1.00  0.00     0.048 C 
HETATM   29  C10 UNK     1      19.581  -5.983  37.798  1.00  0.00     0.010 A 
ENDBRANCH  22  23
ENDBRANCH  21  22
ENDBRANCH  15  21
ENDBRANCH   2  12
TORSDOF 6
ENDMDL
