MODEL 1
REMARK VINA RESULT:      -7.7      0.000      0.000
REMARK  3 active torsions:
REMARK  status: ('A' for Active; 'I' for Inactive)
REMARK    1  A    between atoms: C1_3  and  C2_4 
REMARK    2  A    between atoms: C10_12  and  C7_9 
REMARK    3  A    between atoms: C11_13  and  C12_14 
ROOT
HETATM    1  N1  UNK     1      19.933   9.670  34.622  1.00  0.00    -0.191 NA
HETATM    2  C10 UNK     1      19.718   6.688  32.871  1.00  0.00     0.034 C 
HETATM    3  C11 UNK     1      18.905   7.671  33.334  1.00  0.00     0.055 C 
HETATM    4  C18 UNK     1      19.475   8.774  34.044  1.00  0.00     0.100 C 
ENDROOT
BRANCH   3   5
HETATM    5  C12 UNK     1      17.444   7.656  33.127  1.00  0.00    -0.015 A 
HETATM    6  C13 UNK     1      16.934   7.951  31.874  1.00  0.00     0.014 A 
HETATM    7  C15 UNK     1      15.553   7.937  31.679  1.00  0.00     0.024 A 
HETATM    8  C17 UNK     1      14.703   7.626  32.740  1.00  0.00     0.034 A 
HETATM    9  C16 UNK     1      15.233   7.332  33.996  1.00  0.00     0.024 A 
HETATM   10 Cl1  UNK     1      12.998   7.608  32.500  1.00  0.00    -0.084 Cl
HETATM   11  C14 UNK     1      16.614   7.346  34.191  1.00  0.00     0.014 A 
ENDBRANCH   3   5
BRANCH   2  12
HETATM   12  C7  UNK     1      19.318   5.489  32.152  1.00  0.00    -0.035 A 
HETATM   13  C8  UNK     1      18.666   4.458  32.825  1.00  0.00     0.012 A 
HETATM   14  C5  UNK     1      18.283   3.307  32.136  1.00  0.00     0.008 A 
HETATM   15  C2  UNK     1      18.552   3.189  30.772  1.00  0.00    -0.055 A 
HETATM   16  C6  UNK     1      19.205   4.221  30.099  1.00  0.00     0.008 A 
HETATM   17  C9  UNK     1      19.588   5.371  30.788  1.00  0.00     0.012 A 
BRANCH  15  18
HETATM   18  C1  UNK     1      18.143   1.959  30.036  1.00  0.00     0.010 C 
HETATM   19  C3  UNK     1      19.176   0.823  30.168  1.00  0.00     0.015 C 
HETATM   20  C4  UNK     1      17.854   2.231  28.547  1.00  0.00     0.015 C 
ENDBRANCH  15  18
ENDBRANCH   2  12
TORSDOF 3
ENDMDL
MODEL 2
REMARK VINA RESULT:      -7.1     17.503     19.560
REMARK  3 active torsions:
REMARK  status: ('A' for Active; 'I' for Inactive)
REMARK    1  A    between atoms: C1_3  and  C2_4 
REMARK    2  A    between atoms: C10_12  and  C7_9 
REMARK    3  A    between atoms: C11_13  and  C12_14 
ROOT
HETATM    1  N1  UNK     1      29.427  -3.768  39.847  1.00  0.00    -0.191 NA
HETATM    2  C10 UNK     1      32.054  -4.668  37.777  1.00  0.00     0.034 C 
HETATM    3  C11 UNK     1      30.792  -5.070  38.073  1.00  0.00     0.055 C 
HETATM    4  C18 UNK     1      30.040  -4.350  39.053  1.00  0.00     0.100 C 
ENDROOT
BRANCH   3   5
HETATM    5  C12 UNK     1      30.152  -6.227  37.415  1.00  0.00    -0.015 A 
HETATM    6  C13 UNK     1      30.168  -7.459  38.047  1.00  0.00     0.014 A 
HETATM    7  C15 UNK     1      29.563  -8.550  37.425  1.00  0.00     0.024 A 
HETATM    8  C17 UNK     1      28.950  -8.394  36.181  1.00  0.00     0.034 A 
HETATM    9  C16 UNK     1      28.944  -7.146  35.559  1.00  0.00     0.024 A 
HETATM   10 Cl1  UNK     1      28.204  -9.742  35.414  1.00  0.00    -0.084 Cl
HETATM   11  C14 UNK     1      29.548  -6.053  36.181  1.00  0.00     0.014 A 
ENDBRANCH   3   5
BRANCH   2  12
HETATM   12  C7  UNK     1      32.969  -5.287  36.831  1.00  0.00    -0.035 A 
HETATM   13  C8  UNK     1      33.032  -4.823  35.518  1.00  0.00     0.012 A 
HETATM   14  C5  UNK     1      33.909  -5.417  34.609  1.00  0.00     0.008 A 
HETATM   15  C2  UNK     1      34.723  -6.475  35.016  1.00  0.00    -0.055 A 
HETATM   16  C6  UNK     1      34.660  -6.939  36.329  1.00  0.00     0.008 A 
HETATM   17  C9  UNK     1      33.783  -6.345  37.238  1.00  0.00     0.012 A 
BRANCH  15  18
HETATM   18  C1  UNK     1      35.659  -7.109  34.044  1.00  0.00     0.010 C 
HETATM   19  C3  UNK     1      37.087  -7.246  34.606  1.00  0.00     0.015 C 
HETATM   20  C4  UNK     1      35.699  -6.369  32.694  1.00  0.00     0.015 C 
ENDBRANCH  15  18
ENDBRANCH   2  12
TORSDOF 3
ENDMDL
MODEL 3
REMARK VINA RESULT:      -7.0      3.355      6.501
REMARK  3 active torsions:
REMARK  status: ('A' for Active; 'I' for Inactive)
REMARK    1  A    between atoms: C1_3  and  C2_4 
REMARK    2  A    between atoms: C10_12  and  C7_9 
REMARK    3  A    between atoms: C11_13  and  C12_14 
ROOT
HETATM    1  N1  UNK     1      18.513   1.601  28.635  1.00  0.00    -0.191 NA
HETATM    2  C10 UNK     1      18.847   4.566  30.394  1.00  0.00     0.034 C 
HETATM    3  C11 UNK     1      18.638   3.247  30.631  1.00  0.00     0.055 C 
HETATM    4  C18 UNK     1      18.569   2.340  29.528  1.00  0.00     0.100 C 
ENDROOT
BRANCH   3   5
HETATM    5  C12 UNK     1      18.484   2.699  31.993  1.00  0.00    -0.015 A 
HETATM    6  C13 UNK     1      18.198   3.559  33.040  1.00  0.00     0.014 A 
HETATM    7  C15 UNK     1      18.052   3.041  34.326  1.00  0.00     0.024 A 
HETATM    8  C17 UNK     1      18.194   1.671  34.547  1.00  0.00     0.034 A 
HETATM    9  C16 UNK     1      18.482   0.819  33.482  1.00  0.00     0.024 A 
HETATM   10 Cl1  UNK     1      18.014   1.033  36.136  1.00  0.00    -0.084 Cl
HETATM   11  C14 UNK     1      18.627   1.337  32.194  1.00  0.00     0.014 A 
ENDBRANCH   3   5
BRANCH   2  12
HETATM   12  C7  UNK     1      18.924   5.631  31.382  1.00  0.00    -0.035 A 
HETATM   13  C8  UNK     1      17.780   6.357  31.713  1.00  0.00     0.012 A 
HETATM   14  C5  UNK     1      17.854   7.379  32.660  1.00  0.00     0.008 A 
HETATM   15  C2  UNK     1      19.071   7.674  33.275  1.00  0.00    -0.055 A 
HETATM   16  C6  UNK     1      20.214   6.948  32.943  1.00  0.00     0.008 A 
HETATM   17  C9  UNK     1      20.141   5.926  31.996  1.00  0.00     0.012 A 
BRANCH  15  18
HETATM   18  C1  UNK     1      19.148   8.766  34.287  1.00  0.00     0.010 C 
HETATM   19  C3  UNK     1      18.188   9.929  33.973  1.00  0.00     0.015 C 
HETATM   20  C4  UNK     1      20.581   9.306  34.462  1.00  0.00     0.015 C 
ENDBRANCH  15  18
ENDBRANCH   2  12
TORSDOF 3
ENDMDL
MODEL 4
REMARK VINA RESULT:      -6.9     17.451     18.943
REMARK  3 active torsions:
REMARK  status: ('A' for Active; 'I' for Inactive)
REMARK    1  A    between atoms: C1_3  and  C2_4 
REMARK    2  A    between atoms: C10_12  and  C7_9 
REMARK    3  A    between atoms: C11_13  and  C12_14 
ROOT
HETATM    1  N1  UNK     1      29.455  -3.601  40.007  1.00  0.00    -0.191 NA
HETATM    2  C10 UNK     1      28.857  -6.081  37.663  1.00  0.00     0.034 C 
HETATM    3  C11 UNK     1      29.890  -5.338  38.135  1.00  0.00     0.055 C 
HETATM    4  C18 UNK     1      29.648  -4.379  39.168  1.00  0.00     0.100 C 
ENDROOT
BRANCH   3   5
HETATM    5  C12 UNK     1      31.269  -5.481  37.627  1.00  0.00    -0.015 A 
HETATM    6  C13 UNK     1      32.108  -6.421  38.202  1.00  0.00     0.014 A 
HETATM    7  C15 UNK     1      33.410  -6.555  37.722  1.00  0.00     0.024 A 
HETATM    8  C17 UNK     1      33.853  -5.750  36.673  1.00  0.00     0.034 A 
HETATM    9  C16 UNK     1      32.996  -4.809  36.105  1.00  0.00     0.024 A 
HETATM   10 Cl1  UNK     1      35.461  -5.917  36.081  1.00  0.00    -0.084 Cl
HETATM   11  C14 UNK     1      31.693  -4.674  36.585  1.00  0.00     0.014 A 
ENDBRANCH   3   5
BRANCH   2  12
HETATM   12  C7  UNK     1      28.910  -7.081  36.608  1.00  0.00    -0.035 A 
HETATM   13  C8  UNK     1      28.681  -6.708  35.284  1.00  0.00     0.012 A 
HETATM   14  C5  UNK     1      28.730  -7.667  34.272  1.00  0.00     0.008 A 
HETATM   15  C2  UNK     1      29.009  -8.998  34.584  1.00  0.00    -0.055 A 
HETATM   16  C6  UNK     1      29.238  -9.370  35.908  1.00  0.00     0.008 A 
HETATM   17  C9  UNK     1      29.189  -8.411  36.921  1.00  0.00     0.012 A 
BRANCH  15  18
HETATM   18  C1  UNK     1      29.061 -10.022  33.502  1.00  0.00     0.010 C 
HETATM   19  C3  UNK     1      30.366 -10.840  33.527  1.00  0.00     0.015 C 
HETATM   20  C4  UNK     1      28.855  -9.411  32.102  1.00  0.00     0.015 C 
ENDBRANCH  15  18
ENDBRANCH   2  12
TORSDOF 3
ENDMDL
MODEL 5
REMARK VINA RESULT:      -6.8     21.917     23.925
REMARK  3 active torsions:
REMARK  status: ('A' for Active; 'I' for Inactive)
REMARK    1  A    between atoms: C1_3  and  C2_4 
REMARK    2  A    between atoms: C10_12  and  C7_9 
REMARK    3  A    between atoms: C11_13  and  C12_14 
ROOT
HETATM    1  N1  UNK     1      17.958   7.255  10.524  1.00  0.00    -0.191 NA
HETATM    2  C10 UNK     1      14.944   6.374   9.062  1.00  0.00     0.034 C 
HETATM    3  C11 UNK     1      15.503   7.423   9.717  1.00  0.00     0.055 C 
HETATM    4  C18 UNK     1      16.859   7.328  10.162  1.00  0.00     0.100 C 
ENDROOT
BRANCH   3   5
HETATM    5  C12 UNK     1      14.767   8.673   9.987  1.00  0.00    -0.015 A 
HETATM    6  C13 UNK     1      14.994   9.779   9.186  1.00  0.00     0.014 A 
HETATM    7  C15 UNK     1      14.298  10.960   9.442  1.00  0.00     0.024 A 
HETATM    8  C17 UNK     1      13.384  11.017  10.495  1.00  0.00     0.034 A 
HETATM    9  C16 UNK     1      13.168   9.894  11.292  1.00  0.00     0.024 A 
HETATM   10 Cl1  UNK     1      12.526  12.476  10.810  1.00  0.00    -0.084 Cl
HETATM   11  C14 UNK     1      13.863   8.713  11.036  1.00  0.00     0.014 A 
ENDBRANCH   3   5
BRANCH   2  12
HETATM   12  C7  UNK     1      13.583   6.282   8.559  1.00  0.00    -0.035 A 
HETATM   13  C8  UNK     1      13.282   6.737   7.276  1.00  0.00     0.012 A 
HETATM   14  C5  UNK     1      11.976   6.651   6.793  1.00  0.00     0.008 A 
HETATM   15  C2  UNK     1      10.970   6.109   7.595  1.00  0.00    -0.055 A 
HETATM   16  C6  UNK     1      11.272   5.654   8.879  1.00  0.00     0.008 A 
HETATM   17  C9  UNK     1      12.578   5.740   9.361  1.00  0.00     0.012 A 
BRANCH  15  18
HETATM   18  C1  UNK     1       9.575   6.017   7.079  1.00  0.00     0.010 C 
HETATM   19  C3  UNK     1       9.454   6.496   5.620  1.00  0.00     0.015 C 
HETATM   20  C4  UNK     1       8.569   6.779   7.963  1.00  0.00     0.015 C 
ENDBRANCH  15  18
ENDBRANCH   2  12
TORSDOF 3
ENDMDL
MODEL 6
REMARK VINA RESULT:      -6.7     10.805     12.474
REMARK  3 active torsions:
REMARK  status: ('A' for Active; 'I' for Inactive)
REMARK    1  A    between atoms: C1_3  and  C2_4 
REMARK    2  A    between atoms: C10_12  and  C7_9 
REMARK    3  A    between atoms: C11_13  and  C12_14 
ROOT
HETATM    1  N1  UNK     1      13.020   6.561  26.119  1.00  0.00    -0.191 NA
HETATM    2  C10 UNK     1      12.718   7.406  22.773  1.00  0.00     0.034 C 
HETATM    3  C11 UNK     1      13.030   7.989  23.957  1.00  0.00     0.055 C 
HETATM    4  C18 UNK     1      13.024   7.199  25.149  1.00  0.00     0.100 C 
ENDROOT
BRANCH   3   5
HETATM    5  C12 UNK     1      13.387   9.417  24.070  1.00  0.00    -0.015 A 
HETATM    6  C13 UNK     1      14.706   9.802  23.898  1.00  0.00     0.014 A 
HETATM    7  C15 UNK     1      15.041  11.151  24.005  1.00  0.00     0.024 A 
HETATM    8  C17 UNK     1      14.053  12.096  24.281  1.00  0.00     0.034 A 
HETATM    9  C16 UNK     1      12.729  11.692  24.451  1.00  0.00     0.024 A 
HETATM   10 Cl1  UNK     1      14.468  13.761  24.412  1.00  0.00    -0.084 Cl
HETATM   11  C14 UNK     1      12.393  10.342  24.344  1.00  0.00     0.014 A 
ENDBRANCH   3   5
BRANCH   2  12
HETATM   12  C7  UNK     1      12.652   8.052  21.471  1.00  0.00    -0.035 A 
HETATM   13  C8  UNK     1      11.436   8.544  20.999  1.00  0.00     0.012 A 
HETATM   14  C5  UNK     1      11.372   9.162  19.750  1.00  0.00     0.008 A 
HETATM   15  C2  UNK     1      12.525   9.288  18.974  1.00  0.00    -0.055 A 
HETATM   16  C6  UNK     1      13.741   8.795  19.446  1.00  0.00     0.008 A 
HETATM   17  C9  UNK     1      13.805   8.177  20.695  1.00  0.00     0.012 A 
BRANCH  15  18
HETATM   18  C1  UNK     1      12.455   9.949  17.639  1.00  0.00     0.010 C 
HETATM   19  C3  UNK     1      11.391   9.315  16.723  1.00  0.00     0.015 C 
HETATM   20  C4  UNK     1      13.818   9.968  16.920  1.00  0.00     0.015 C 
ENDBRANCH  15  18
ENDBRANCH   2  12
TORSDOF 3
ENDMDL
MODEL 7
REMARK VINA RESULT:      -6.7     10.808     12.509
REMARK  3 active torsions:
REMARK  status: ('A' for Active; 'I' for Inactive)
REMARK    1  A    between atoms: C1_3  and  C2_4 
REMARK    2  A    between atoms: C10_12  and  C7_9 
REMARK    3  A    between atoms: C11_13  and  C12_14 
ROOT
HETATM    1  N1  UNK     1      13.014   6.571  26.124  1.00  0.00    -0.191 NA
HETATM    2  C10 UNK     1      12.700   7.414  22.779  1.00  0.00     0.034 C 
HETATM    3  C11 UNK     1      13.024   7.996  23.961  1.00  0.00     0.055 C 
HETATM    4  C18 UNK     1      13.018   7.207  25.154  1.00  0.00     0.100 C 
ENDROOT
BRANCH   3   5
HETATM    5  C12 UNK     1      13.394   9.421  24.070  1.00  0.00    -0.015 A 
HETATM    6  C13 UNK     1      12.410  10.356  24.343  1.00  0.00     0.014 A 
HETATM    7  C15 UNK     1      12.761  11.702  24.445  1.00  0.00     0.024 A 
HETATM    8  C17 UNK     1      14.089  12.092  24.275  1.00  0.00     0.034 A 
HETATM    9  C16 UNK     1      15.067  11.137  24.000  1.00  0.00     0.024 A 
HETATM   10 Cl1  UNK     1      14.521  13.754  24.401  1.00  0.00    -0.084 Cl
HETATM   11  C14 UNK     1      14.717   9.790  23.898  1.00  0.00     0.014 A 
ENDBRANCH   3   5
BRANCH   2  12
HETATM   12  C7  UNK     1      12.631   8.058  21.477  1.00  0.00    -0.035 A 
HETATM   13  C8  UNK     1      13.777   8.158  20.689  1.00  0.00     0.012 A 
HETATM   14  C5  UNK     1      13.712   8.777  19.440  1.00  0.00     0.008 A 
HETATM   15  C2  UNK     1      12.501   9.296  18.981  1.00  0.00    -0.055 A 
HETATM   16  C6  UNK     1      11.356   9.196  19.770  1.00  0.00     0.008 A 
HETATM   17  C9  UNK     1      11.420   8.577  21.018  1.00  0.00     0.012 A 
BRANCH  15  18
HETATM   18  C1  UNK     1      12.433   9.958  17.647  1.00  0.00     0.010 C 
HETATM   19  C3  UNK     1      11.367   9.328  16.730  1.00  0.00     0.015 C 
HETATM   20  C4  UNK     1      13.795   9.976  16.927  1.00  0.00     0.015 C 
ENDBRANCH  15  18
ENDBRANCH   2  12
TORSDOF 3
ENDMDL
MODEL 8
REMARK VINA RESULT:      -6.7     16.823     19.250
REMARK  3 active torsions:
REMARK  status: ('A' for Active; 'I' for Inactive)
REMARK    1  A    between atoms: C1_3  and  C2_4 
REMARK    2  A    between atoms: C10_12  and  C7_9 
REMARK    3  A    between atoms: C11_13  and  C12_14 
ROOT
HETATM    1  N1  UNK     1      28.251 -10.415  40.069  1.00  0.00    -0.191 NA
HETATM    2  C10 UNK     1      28.024  -9.219  36.826  1.00  0.00     0.034 C 
HETATM    3  C11 UNK     1      28.886  -9.195  37.874  1.00  0.00     0.055 C 
HETATM    4  C18 UNK     1      28.534  -9.869  39.085  1.00  0.00     0.100 C 
ENDROOT
BRANCH   3   5
HETATM    5  C12 UNK     1      30.188  -8.502  37.815  1.00  0.00    -0.015 A 
HETATM    6  C13 UNK     1      31.286  -9.168  37.299  1.00  0.00     0.014 A 
HETATM    7  C15 UNK     1      32.516  -8.512  37.245  1.00  0.00     0.024 A 
HETATM    8  C17 UNK     1      32.628  -7.200  37.705  1.00  0.00     0.034 A 
HETATM    9  C16 UNK     1      31.512  -6.544  38.223  1.00  0.00     0.024 A 
HETATM   10 Cl1  UNK     1      34.147  -6.392  37.638  1.00  0.00    -0.084 Cl
HETATM   11  C14 UNK     1      30.281  -7.200  38.277  1.00  0.00     0.014 A 
ENDBRANCH   3   5
BRANCH   2  12
HETATM   12  C7  UNK     1      28.201  -8.576  35.533  1.00  0.00    -0.035 A 
HETATM   13  C8  UNK     1      28.613  -9.327  34.433  1.00  0.00     0.012 A 
HETATM   14  C5  UNK     1      28.785  -8.711  33.193  1.00  0.00     0.008 A 
HETATM   15  C2  UNK     1      28.544  -7.344  33.054  1.00  0.00    -0.055 A 
HETATM   16  C6  UNK     1      28.132  -6.593  34.155  1.00  0.00     0.008 A 
HETATM   17  C9  UNK     1      27.960  -7.209  35.395  1.00  0.00     0.012 A 
BRANCH  15  18
HETATM   18  C1  UNK     1      28.728  -6.686  31.729  1.00  0.00     0.010 C 
HETATM   19  C3  UNK     1      29.260  -5.246  31.855  1.00  0.00     0.015 C 
HETATM   20  C4  UNK     1      27.440  -6.694  30.883  1.00  0.00     0.015 C 
ENDBRANCH  15  18
ENDBRANCH   2  12
TORSDOF 3
ENDMDL
MODEL 9
REMARK VINA RESULT:      -6.5     16.169     18.285
REMARK  3 active torsions:
REMARK  status: ('A' for Active; 'I' for Inactive)
REMARK    1  A    between atoms: C1_3  and  C2_4 
REMARK    2  A    between atoms: C10_12  and  C7_9 
REMARK    3  A    between atoms: C11_13  and  C12_14 
ROOT
HETATM    1  N1  UNK     1      30.024  -2.841  29.990  1.00  0.00    -0.191 NA
HETATM    2  C10 UNK     1      30.239  -5.057  32.643  1.00  0.00     0.034 C 
HETATM    3  C11 UNK     1      29.886  -5.051  31.333  1.00  0.00     0.055 C 
HETATM    4  C18 UNK     1      29.963  -3.830  30.593  1.00  0.00     0.100 C 
ENDROOT
BRANCH   3   5
HETATM    5  C12 UNK     1      29.429  -6.265  30.628  1.00  0.00    -0.015 A 
HETATM    6  C13 UNK     1      30.324  -6.966  29.837  1.00  0.00     0.014 A 
HETATM    7  C15 UNK     1      29.891  -8.113  29.172  1.00  0.00     0.024 A 
HETATM    8  C17 UNK     1      28.571  -8.542  29.309  1.00  0.00     0.034 A 
HETATM    9  C16 UNK     1      27.683  -7.824  30.109  1.00  0.00     0.024 A 
HETATM   10 Cl1  UNK     1      28.037  -9.957  28.487  1.00  0.00    -0.084 Cl
HETATM   11  C14 UNK     1      28.116  -6.677  30.775  1.00  0.00     0.014 A 
ENDBRANCH   3   5
BRANCH   2  12
HETATM   12  C7  UNK     1      30.205  -6.192  33.553  1.00  0.00    -0.035 A 
HETATM   13  C8  UNK     1      29.062  -6.442  34.312  1.00  0.00     0.012 A 
HETATM   14  C5  UNK     1      29.029  -7.529  35.185  1.00  0.00     0.008 A 
HETATM   15  C2  UNK     1      30.140  -8.366  35.299  1.00  0.00    -0.055 A 
HETATM   16  C6  UNK     1      31.283  -8.115  34.540  1.00  0.00     0.008 A 
HETATM   17  C9  UNK     1      31.316  -7.028  33.666  1.00  0.00     0.012 A 
BRANCH  15  18
HETATM   18  C1  UNK     1      30.104  -9.528  36.233  1.00  0.00     0.010 C 
HETATM   19  C3  UNK     1      29.796  -9.109  37.682  1.00  0.00     0.015 C 
HETATM   20  C4  UNK     1      31.404 -10.355  36.194  1.00  0.00     0.015 C 
ENDBRANCH  15  18
ENDBRANCH   2  12
TORSDOF 3
ENDMDL
MODEL 10
REMARK VINA RESULT:      -6.4     16.614     18.760
REMARK  3 active torsions:
REMARK  status: ('A' for Active; 'I' for Inactive)
REMARK    1  A    between atoms: C1_3  and  C2_4 
REMARK    2  A    between atoms: C10_12  and  C7_9 
REMARK    3  A    between atoms: C11_13  and  C12_14 
ROOT
HETATM    1  N1  UNK     1      26.009  -5.435  39.040  1.00  0.00    -0.191 NA
HETATM    2  C10 UNK     1      29.354  -5.041  38.232  1.00  0.00     0.034 C 
HETATM    3  C11 UNK     1      28.300  -5.828  37.897  1.00  0.00     0.055 C 
HETATM    4  C18 UNK     1      27.036  -5.609  38.529  1.00  0.00     0.100 C 
ENDROOT
BRANCH   3   5
HETATM    5  C12 UNK     1      28.400  -6.905  36.893  1.00  0.00    -0.015 A 
HETATM    6  C13 UNK     1      28.604  -8.208  37.316  1.00  0.00     0.014 A 
HETATM    7  C15 UNK     1      28.698  -9.225  36.366  1.00  0.00     0.024 A 
HETATM    8  C17 UNK     1      28.585  -8.925  35.009  1.00  0.00     0.034 A 
HETATM    9  C16 UNK     1      28.380  -7.607  34.600  1.00  0.00     0.024 A 
HETATM   10 Cl1  UNK     1      28.702 -10.181  33.838  1.00  0.00    -0.084 Cl
HETATM   11  C14 UNK     1      28.286  -6.590  35.550  1.00  0.00     0.014 A 
ENDBRANCH   3   5
BRANCH   2  12
HETATM   12  C7  UNK     1      30.710  -5.130  37.713  1.00  0.00    -0.035 A 
HETATM   13  C8  UNK     1      31.587  -6.088  38.218  1.00  0.00     0.012 A 
HETATM   14  C5  UNK     1      32.888  -6.173  37.722  1.00  0.00     0.008 A 
HETATM   15  C2  UNK     1      33.311  -5.299  36.719  1.00  0.00    -0.055 A 
HETATM   16  C6  UNK     1      32.433  -4.340  36.215  1.00  0.00     0.008 A 
HETATM   17  C9  UNK     1      31.132  -4.255  36.711  1.00  0.00     0.012 A 
BRANCH  15  18
HETATM   18  C1  UNK     1      34.702  -5.390  36.190  1.00  0.00     0.010 C 
HETATM   19  C3  UNK     1      34.860  -4.690  34.827  1.00  0.00     0.015 C 
HETATM   20  C4  UNK     1      35.201  -6.844  36.091  1.00  0.00     0.015 C 
ENDBRANCH  15  18
ENDBRANCH   2  12
TORSDOF 3
ENDMDL
