MODEL 1
REMARK VINA RESULT:      -7.6      0.000      0.000
REMARK  6 active torsions:
REMARK  status: ('A' for Active; 'I' for Inactive)
REMARK    1  A    between atoms: C3_7  and  O1_1 
REMARK    2  A    between atoms: C6_10  and  O2_2 
REMARK    3  A    between atoms: C13_17  and  O4_4 
REMARK    4  A    between atoms: C1_5  and  C4_8 
REMARK    5  A    between atoms: C2_6  and  C5_9 
REMARK    6  A    between atoms: C5_9  and  C9_13 
ROOT
HETATM    1  O3  UNK     1      16.762   7.857  30.976  1.00  0.00    -0.287 OA
HETATM    2  C5  UNK     1      17.292   7.139  31.817  1.00  0.00     0.184 C 
ENDROOT
BRANCH   2   3
HETATM    3  C2  UNK     1      18.701   6.715  31.639  1.00  0.00     0.047 A 
HETATM    4  C6  UNK     1      19.170   6.293  30.395  1.00  0.00     0.082 A 
HETATM    5  C11 UNK     1      20.501   5.900  30.247  1.00  0.00     0.074 A 
HETATM    6  C13 UNK     1      21.361   5.928  31.345  1.00  0.00     0.068 A 
HETATM    7  C12 UNK     1      20.892   6.349  32.589  1.00  0.00     0.037 A 
HETATM    8  C8  UNK     1      19.562   6.743  32.736  1.00  0.00     0.021 A 
BRANCH   4   9
HETATM    9  O2  UNK     1      18.345   6.259  29.311  1.00  0.00    -0.360 OA
HETATM   10  H10 UNK     1      18.201   7.155  28.967  1.00  0.00     0.217 HD
ENDBRANCH   4   9
BRANCH   6  11
HETATM   11  O4  UNK     1      22.659   5.542  31.201  1.00  0.00    -0.361 OA
HETATM   12  H14 UNK     1      22.761   5.093  30.344  1.00  0.00     0.217 HD
ENDBRANCH   6  11
ENDBRANCH   2   3
BRANCH   2  13
HETATM   13  C9  UNK     1      16.584   6.687  33.048  1.00  0.00     0.056 C 
HETATM   14  C4  UNK     1      16.349   7.556  34.055  1.00  0.00     0.018 C 
BRANCH  14  15
HETATM   15  C1  UNK     1      16.737   8.960  34.059  1.00  0.00    -0.003 A 
HETATM   16  C3  UNK     1      15.780   9.972  33.973  1.00  0.00     0.078 A 
HETATM   17  C10 UNK     1      16.177  11.309  33.978  1.00  0.00     0.037 A 
HETATM   18  C15 UNK     1      17.530  11.635  34.069  1.00  0.00     0.003 A 
HETATM   19  C14 UNK     1      18.486  10.624  34.154  1.00  0.00     0.001 A 
HETATM   20  C7  UNK     1      18.090   9.286  34.149  1.00  0.00     0.014 A 
BRANCH  16  21
HETATM   21  O1  UNK     1      14.451   9.681  33.884  1.00  0.00    -0.355 OA
HETATM   22  C16 UNK     1      13.578  10.750  33.526  1.00  0.00     0.210 C 
ENDBRANCH  16  21
ENDBRANCH  14  15
ENDBRANCH   2  13
TORSDOF 6
ENDMDL
MODEL 2
REMARK VINA RESULT:      -7.5     22.508     24.782
REMARK  6 active torsions:
REMARK  status: ('A' for Active; 'I' for Inactive)
REMARK    1  A    between atoms: C3_7  and  O1_1 
REMARK    2  A    between atoms: C6_10  and  O2_2 
REMARK    3  A    between atoms: C13_17  and  O4_4 
REMARK    4  A    between atoms: C1_5  and  C4_8 
REMARK    5  A    between atoms: C2_6  and  C5_9 
REMARK    6  A    between atoms: C5_9  and  C9_13 
ROOT
HETATM    1  O3  UNK     1      13.954   6.652   7.424  1.00  0.00    -0.287 OA
HETATM    2  C5  UNK     1      13.094   6.044   8.053  1.00  0.00     0.184 C 
ENDROOT
BRANCH   2   3
HETATM    3  C2  UNK     1      11.661   6.287   7.761  1.00  0.00     0.047 A 
HETATM    4  C6  UNK     1      11.192   6.315   6.447  1.00  0.00     0.082 A 
HETATM    5  C11 UNK     1       9.840   6.544   6.193  1.00  0.00     0.074 A 
HETATM    6  C13 UNK     1       8.956   6.746   7.254  1.00  0.00     0.068 A 
HETATM    7  C12 UNK     1       9.424   6.719   8.567  1.00  0.00     0.037 A 
HETATM    8  C8  UNK     1      10.777   6.489   8.820  1.00  0.00     0.021 A 
BRANCH   4   9
HETATM    9  O2  UNK     1      12.040   6.120   5.398  1.00  0.00    -0.360 OA
HETATM   10  H10 UNK     1      12.956   6.056   5.712  1.00  0.00     0.217 HD
ENDBRANCH   4   9
BRANCH   6  11
HETATM   11  O4  UNK     1       7.636   6.972   7.006  1.00  0.00    -0.361 OA
HETATM   12  H14 UNK     1       7.120   6.220   7.342  1.00  0.00     0.217 HD
ENDBRANCH   6  11
ENDBRANCH   2   3
BRANCH   2  13
HETATM   13  C9  UNK     1      13.426   5.033   9.095  1.00  0.00     0.056 C 
HETATM   14  C4  UNK     1      14.345   5.310  10.045  1.00  0.00     0.018 C 
BRANCH  14  15
HETATM   15  C1  UNK     1      15.082   6.562  10.158  1.00  0.00    -0.003 A 
HETATM   16  C3  UNK     1      14.462   7.723  10.622  1.00  0.00     0.078 A 
HETATM   17  C10 UNK     1      15.188   8.909  10.721  1.00  0.00     0.037 A 
HETATM   18  C15 UNK     1      16.534   8.936  10.356  1.00  0.00     0.003 A 
HETATM   19  C14 UNK     1      17.154   7.776   9.892  1.00  0.00     0.001 A 
HETATM   20  C7  UNK     1      16.428   6.588   9.793  1.00  0.00     0.014 A 
BRANCH  16  21
HETATM   21  O1  UNK     1      13.148   7.724  10.985  1.00  0.00    -0.355 OA
HETATM   22  C16 UNK     1      12.470   8.977  10.953  1.00  0.00     0.210 C 
ENDBRANCH  16  21
ENDBRANCH  14  15
ENDBRANCH   2  13
TORSDOF 6
ENDMDL
MODEL 3
REMARK VINA RESULT:      -7.4     22.766     24.630
REMARK  6 active torsions:
REMARK  status: ('A' for Active; 'I' for Inactive)
REMARK    1  A    between atoms: C3_7  and  O1_1 
REMARK    2  A    between atoms: C6_10  and  O2_2 
REMARK    3  A    between atoms: C13_17  and  O4_4 
REMARK    4  A    between atoms: C1_5  and  C4_8 
REMARK    5  A    between atoms: C2_6  and  C5_9 
REMARK    6  A    between atoms: C5_9  and  C9_13 
ROOT
HETATM    1  O3  UNK     1      12.662   6.925  10.466  1.00  0.00    -0.287 OA
HETATM    2  C5  UNK     1      13.680   6.608   9.859  1.00  0.00     0.184 C 
ENDROOT
BRANCH   2   3
HETATM    3  C2  UNK     1      14.769   7.597   9.684  1.00  0.00     0.047 A 
HETATM    4  C6  UNK     1      14.541   8.806   9.026  1.00  0.00     0.082 A 
HETATM    5  C11 UNK     1      15.579   9.725   8.872  1.00  0.00     0.074 A 
HETATM    6  C13 UNK     1      16.847   9.434   9.376  1.00  0.00     0.068 A 
HETATM    7  C12 UNK     1      17.076   8.225  10.033  1.00  0.00     0.037 A 
HETATM    8  C8  UNK     1      16.037   7.307  10.187  1.00  0.00     0.021 A 
BRANCH   4   9
HETATM    9  O2  UNK     1      13.309   9.108   8.527  1.00  0.00    -0.360 OA
HETATM   10  H10 UNK     1      12.626   8.579   8.969  1.00  0.00     0.217 HD
ENDBRANCH   4   9
BRANCH   6  11
HETATM   11  O4  UNK     1      17.861  10.329   9.224  1.00  0.00    -0.361 OA
HETATM   12  H14 UNK     1      18.329  10.421  10.072  1.00  0.00     0.217 HD
ENDBRANCH   6  11
ENDBRANCH   2   3
BRANCH   2  13
HETATM   13  C9  UNK     1      13.890   5.241   9.305  1.00  0.00     0.056 C 
HETATM   14  C4  UNK     1      13.049   4.748   8.370  1.00  0.00     0.018 C 
BRANCH  14  15
HETATM   15  C1  UNK     1      11.898   5.454   7.822  1.00  0.00    -0.003 A 
HETATM   16  C3  UNK     1      10.638   5.343   8.411  1.00  0.00     0.078 A 
HETATM   17  C10 UNK     1       9.552   6.029   7.868  1.00  0.00     0.037 A 
HETATM   18  C15 UNK     1       9.725   6.827   6.737  1.00  0.00     0.003 A 
HETATM   19  C14 UNK     1      10.984   6.938   6.148  1.00  0.00     0.001 A 
HETATM   20  C7  UNK     1      12.072   6.252   6.691  1.00  0.00     0.014 A 
BRANCH  16  21
HETATM   21  O1  UNK     1      10.442   4.571   9.517  1.00  0.00    -0.355 OA
HETATM   22  C16 UNK     1       9.109   4.484  10.016  1.00  0.00     0.210 C 
ENDBRANCH  16  21
ENDBRANCH  14  15
ENDBRANCH   2  13
TORSDOF 6
ENDMDL
MODEL 4
REMARK VINA RESULT:      -7.4      4.189      5.744
REMARK  6 active torsions:
REMARK  status: ('A' for Active; 'I' for Inactive)
REMARK    1  A    between atoms: C3_7  and  O1_1 
REMARK    2  A    between atoms: C6_10  and  O2_2 
REMARK    3  A    between atoms: C13_17  and  O4_4 
REMARK    4  A    between atoms: C1_5  and  C4_8 
REMARK    5  A    between atoms: C2_6  and  C5_9 
REMARK    6  A    between atoms: C5_9  and  C9_13 
ROOT
HETATM    1  O3  UNK     1      17.973   3.359  31.799  1.00  0.00    -0.287 OA
HETATM    2  C5  UNK     1      18.485   3.014  30.739  1.00  0.00     0.184 C 
ENDROOT
BRANCH   2   3
HETATM    3  C2  UNK     1      18.981   1.626  30.581  1.00  0.00     0.047 A 
HETATM    4  C6  UNK     1      19.029   0.754  31.668  1.00  0.00     0.082 A 
HETATM    5  C11 UNK     1      19.499  -0.549  31.498  1.00  0.00     0.074 A 
HETATM    6  C13 UNK     1      19.921  -0.979  30.241  1.00  0.00     0.068 A 
HETATM    7  C12 UNK     1      19.874  -0.107  29.153  1.00  0.00     0.037 A 
HETATM    8  C8  UNK     1      19.404   1.195  29.323  1.00  0.00     0.021 A 
BRANCH   4   9
HETATM    9  O2  UNK     1      18.621   1.155  32.905  1.00  0.00    -0.360 OA
HETATM   10  H10 UNK     1      18.004   0.509  33.284  1.00  0.00     0.217 HD
ENDBRANCH   4   9
BRANCH   6  11
HETATM   11  O4  UNK     1      20.382  -2.250  30.075  1.00  0.00    -0.361 OA
HETATM   12  H14 UNK     1      20.761  -2.333  29.183  1.00  0.00     0.217 HD
ENDBRANCH   6  11
ENDBRANCH   2   3
BRANCH   2  13
HETATM   13  C9  UNK     1      18.607   3.930  29.571  1.00  0.00     0.056 C 
HETATM   14  C4  UNK     1      19.029   5.202  29.744  1.00  0.00     0.018 C 
BRANCH  14  15
HETATM   15  C1  UNK     1      19.394   5.796  31.022  1.00  0.00    -0.003 A 
HETATM   16  C3  UNK     1      18.449   6.466  31.801  1.00  0.00     0.078 A 
HETATM   17  C10 UNK     1      18.823   7.027  33.022  1.00  0.00     0.037 A 
HETATM   18  C15 UNK     1      20.142   6.919  33.465  1.00  0.00     0.003 A 
HETATM   19  C14 UNK     1      21.086   6.250  32.687  1.00  0.00     0.001 A 
HETATM   20  C7  UNK     1      20.712   5.688  31.465  1.00  0.00     0.014 A 
BRANCH  16  21
HETATM   21  O1  UNK     1      17.154   6.586  31.391  1.00  0.00    -0.355 OA
HETATM   22  C16 UNK     1      16.527   7.850  31.595  1.00  0.00     0.210 C 
ENDBRANCH  16  21
ENDBRANCH  14  15
ENDBRANCH   2  13
TORSDOF 6
ENDMDL
MODEL 5
REMARK VINA RESULT:      -7.2     22.200     24.079
REMARK  6 active torsions:
REMARK  status: ('A' for Active; 'I' for Inactive)
REMARK    1  A    between atoms: C3_7  and  O1_1 
REMARK    2  A    between atoms: C6_10  and  O2_2 
REMARK    3  A    between atoms: C13_17  and  O4_4 
REMARK    4  A    between atoms: C1_5  and  C4_8 
REMARK    5  A    between atoms: C2_6  and  C5_9 
REMARK    6  A    between atoms: C5_9  and  C9_13 
ROOT
HETATM    1  O3  UNK     1      11.927   5.239  10.491  1.00  0.00    -0.287 OA
HETATM    2  C5  UNK     1      12.664   5.471   9.538  1.00  0.00     0.184 C 
ENDROOT
BRANCH   2   3
HETATM    3  C2  UNK     1      14.040   5.967   9.776  1.00  0.00     0.047 A 
HETATM    4  C6  UNK     1      14.264   7.138  10.501  1.00  0.00     0.082 A 
HETATM    5  C11 UNK     1      15.567   7.588  10.715  1.00  0.00     0.074 A 
HETATM    6  C13 UNK     1      16.646   6.867  10.203  1.00  0.00     0.068 A 
HETATM    7  C12 UNK     1      16.422   5.697   9.478  1.00  0.00     0.037 A 
HETATM    8  C8  UNK     1      15.119   5.247   9.264  1.00  0.00     0.021 A 
BRANCH   4   9
HETATM    9  O2  UNK     1      13.223   7.856  11.009  1.00  0.00    -0.360 OA
HETATM   10  H10 UNK     1      12.958   7.502  11.873  1.00  0.00     0.217 HD
ENDBRANCH   4   9
BRANCH   6  11
HETATM   11  O4  UNK     1      17.918   7.307  10.410  1.00  0.00    -0.361 OA
HETATM   12  H14 UNK     1      18.089   7.336  11.367  1.00  0.00     0.217 HD
ENDBRANCH   6  11
ENDBRANCH   2   3
BRANCH   2  13
HETATM   13  C9  UNK     1      12.244   5.244   8.126  1.00  0.00     0.056 C 
HETATM   14  C4  UNK     1      11.154   5.869   7.632  1.00  0.00     0.018 C 
BRANCH  14  15
HETATM   15  C1  UNK     1      10.305   6.788   8.377  1.00  0.00    -0.003 A 
HETATM   16  C3  UNK     1       9.023   6.415   8.784  1.00  0.00     0.078 A 
HETATM   17  C10 UNK     1       8.229   7.313   9.497  1.00  0.00     0.037 A 
HETATM   18  C15 UNK     1       8.715   8.584   9.803  1.00  0.00     0.003 A 
HETATM   19  C14 UNK     1       9.995   8.958   9.395  1.00  0.00     0.001 A 
HETATM   20  C7  UNK     1      10.791   8.059   8.683  1.00  0.00     0.014 A 
BRANCH  16  21
HETATM   21  O1  UNK     1       8.524   5.179   8.499  1.00  0.00    -0.355 OA
HETATM   22  C16 UNK     1       7.395   4.748   9.256  1.00  0.00     0.210 C 
ENDBRANCH  16  21
ENDBRANCH  14  15
ENDBRANCH   2  13
TORSDOF 6
ENDMDL
MODEL 6
REMARK VINA RESULT:      -7.2      2.283      3.151
REMARK  6 active torsions:
REMARK  status: ('A' for Active; 'I' for Inactive)
REMARK    1  A    between atoms: C3_7  and  O1_1 
REMARK    2  A    between atoms: C6_10  and  O2_2 
REMARK    3  A    between atoms: C13_17  and  O4_4 
REMARK    4  A    between atoms: C1_5  and  C4_8 
REMARK    5  A    between atoms: C2_6  and  C5_9 
REMARK    6  A    between atoms: C5_9  and  C9_13 
ROOT
HETATM    1  O3  UNK     1      18.087   7.462  31.228  1.00  0.00    -0.287 OA
HETATM    2  C5  UNK     1      18.585   6.636  31.987  1.00  0.00     0.184 C 
ENDROOT
BRANCH   2   3
HETATM    3  C2  UNK     1      18.559   5.199  31.628  1.00  0.00     0.047 A 
HETATM    4  C6  UNK     1      18.906   4.774  30.345  1.00  0.00     0.082 A 
HETATM    5  C11 UNK     1      18.876   3.416  30.027  1.00  0.00     0.074 A 
HETATM    6  C13 UNK     1      18.498   2.483  30.992  1.00  0.00     0.068 A 
HETATM    7  C12 UNK     1      18.150   2.907  32.274  1.00  0.00     0.037 A 
HETATM    8  C8  UNK     1      18.180   4.264  32.592  1.00  0.00     0.021 A 
BRANCH   4   9
HETATM    9  O2  UNK     1      19.278   5.671  29.389  1.00  0.00    -0.360 OA
HETATM   10  H10 UNK     1      18.733   5.562  28.593  1.00  0.00     0.217 HD
ENDBRANCH   4   9
BRANCH   6  11
HETATM   11  O4  UNK     1      18.466   1.157  30.681  1.00  0.00    -0.361 OA
HETATM   12  H14 UNK     1      19.294   0.744  30.981  1.00  0.00     0.217 HD
ENDBRANCH   6  11
ENDBRANCH   2   3
BRANCH   2  13
HETATM   13  C9  UNK     1      19.253   7.019  33.262  1.00  0.00     0.056 C 
HETATM   14  C4  UNK     1      18.574   7.704  34.208  1.00  0.00     0.018 C 
BRANCH  14  15
HETATM   15  C1  UNK     1      17.184   8.126  34.101  1.00  0.00    -0.003 A 
HETATM   16  C3  UNK     1      16.854   9.438  33.758  1.00  0.00     0.078 A 
HETATM   17  C10 UNK     1      15.516   9.818  33.662  1.00  0.00     0.037 A 
HETATM   18  C15 UNK     1      14.507   8.887  33.909  1.00  0.00     0.003 A 
HETATM   19  C14 UNK     1      14.836   7.576  34.252  1.00  0.00     0.001 A 
HETATM   20  C7  UNK     1      16.175   7.195  34.347  1.00  0.00     0.014 A 
BRANCH  16  21
HETATM   21  O1  UNK     1      17.822  10.367  33.513  1.00  0.00    -0.355 OA
HETATM   22  C16 UNK     1      17.709  11.613  34.197  1.00  0.00     0.210 C 
ENDBRANCH  16  21
ENDBRANCH  14  15
ENDBRANCH   2  13
TORSDOF 6
ENDMDL
MODEL 7
REMARK VINA RESULT:      -7.2     22.858     24.462
REMARK  6 active torsions:
REMARK  status: ('A' for Active; 'I' for Inactive)
REMARK    1  A    between atoms: C3_7  and  O1_1 
REMARK    2  A    between atoms: C6_10  and  O2_2 
REMARK    3  A    between atoms: C13_17  and  O4_4 
REMARK    4  A    between atoms: C1_5  and  C4_8 
REMARK    5  A    between atoms: C2_6  and  C5_9 
REMARK    6  A    between atoms: C5_9  and  C9_13 
ROOT
HETATM    1  O3  UNK     1      12.134   6.054  10.284  1.00  0.00    -0.287 OA
HETATM    2  C5  UNK     1      12.847   7.034  10.094  1.00  0.00     0.184 C 
ENDROOT
BRANCH   2   3
HETATM    3  C2  UNK     1      14.308   6.857   9.923  1.00  0.00     0.047 A 
HETATM    4  C6  UNK     1      14.845   5.615   9.583  1.00  0.00     0.082 A 
HETATM    5  C11 UNK     1      16.224   5.469   9.426  1.00  0.00     0.074 A 
HETATM    6  C13 UNK     1      17.065   6.566   9.609  1.00  0.00     0.068 A 
HETATM    7  C12 UNK     1      16.529   7.808   9.949  1.00  0.00     0.037 A 
HETATM    8  C8  UNK     1      15.151   7.953  10.105  1.00  0.00     0.021 A 
BRANCH   4   9
HETATM    9  O2  UNK     1      14.039   4.531   9.401  1.00  0.00    -0.360 OA
HETATM   10  H10 UNK     1      13.372   4.484  10.104  1.00  0.00     0.217 HD
ENDBRANCH   4   9
BRANCH   6  11
HETATM   11  O4  UNK     1      18.411   6.424   9.458  1.00  0.00    -0.361 OA
HETATM   12  H14 UNK     1      18.855   6.756  10.258  1.00  0.00     0.217 HD
ENDBRANCH   6  11
ENDBRANCH   2   3
BRANCH   2  13
HETATM   13  C9  UNK     1      12.301   8.416   9.994  1.00  0.00     0.056 C 
HETATM   14  C4  UNK     1      11.346   8.706   9.083  1.00  0.00     0.018 C 
BRANCH  14  15
HETATM   15  C1  UNK     1      10.768   7.756   8.143  1.00  0.00    -0.003 A 
HETATM   16  C3  UNK     1       9.554   7.123   8.413  1.00  0.00     0.078 A 
HETATM   17  C10 UNK     1       9.021   6.216   7.496  1.00  0.00     0.037 A 
HETATM   18  C15 UNK     1       9.702   5.942   6.310  1.00  0.00     0.003 A 
HETATM   19  C14 UNK     1      10.915   6.574   6.040  1.00  0.00     0.001 A 
HETATM   20  C7  UNK     1      11.449   7.481   6.956  1.00  0.00     0.014 A 
BRANCH  16  21
HETATM   21  O1  UNK     1       8.869   7.373   9.565  1.00  0.00    -0.355 OA
HETATM   22  C16 UNK     1       7.463   7.578   9.448  1.00  0.00     0.210 C 
ENDBRANCH  16  21
ENDBRANCH  14  15
ENDBRANCH   2  13
TORSDOF 6
ENDMDL
MODEL 8
REMARK VINA RESULT:      -7.2      1.019      2.064
REMARK  6 active torsions:
REMARK  status: ('A' for Active; 'I' for Inactive)
REMARK    1  A    between atoms: C3_7  and  O1_1 
REMARK    2  A    between atoms: C6_10  and  O2_2 
REMARK    3  A    between atoms: C13_17  and  O4_4 
REMARK    4  A    between atoms: C1_5  and  C4_8 
REMARK    5  A    between atoms: C2_6  and  C5_9 
REMARK    6  A    between atoms: C5_9  and  C9_13 
ROOT
HETATM    1  O3  UNK     1      16.687   7.964  31.005  1.00  0.00    -0.287 OA
HETATM    2  C5  UNK     1      17.164   7.111  31.746  1.00  0.00     0.184 C 
ENDROOT
BRANCH   2   3
HETATM    3  C2  UNK     1      18.581   6.706  31.583  1.00  0.00     0.047 A 
HETATM    4  C6  UNK     1      19.075   6.315  30.338  1.00  0.00     0.082 A 
HETATM    5  C11 UNK     1      20.412   5.938  30.205  1.00  0.00     0.074 A 
HETATM    6  C13 UNK     1      21.254   5.953  31.317  1.00  0.00     0.068 A 
HETATM    7  C12 UNK     1      20.760   6.344  32.561  1.00  0.00     0.037 A 
HETATM    8  C8  UNK     1      19.424   6.721  32.694  1.00  0.00     0.021 A 
BRANCH   4   9
HETATM    9  O2  UNK     1      18.268   6.294  29.240  1.00  0.00    -0.360 OA
HETATM   10  H10 UNK     1      18.799   6.220  28.432  1.00  0.00     0.217 HD
ENDBRANCH   4   9
BRANCH   6  11
HETATM   11  O4  UNK     1      22.558   5.583  31.188  1.00  0.00    -0.361 OA
HETATM   12  H14 UNK     1      23.022   6.249  30.651  1.00  0.00     0.217 HD
ENDBRANCH   6  11
ENDBRANCH   2   3
BRANCH   2  13
HETATM   13  C9  UNK     1      16.384   6.472  32.842  1.00  0.00     0.056 C 
HETATM   14  C4  UNK     1      15.671   7.231  33.702  1.00  0.00     0.018 C 
BRANCH  14  15
HETATM   15  C1  UNK     1      15.583   8.685  33.663  1.00  0.00    -0.003 A 
HETATM   16  C3  UNK     1      16.632   9.482  34.124  1.00  0.00     0.078 A 
HETATM   17  C10 UNK     1      16.525  10.871  34.076  1.00  0.00     0.037 A 
HETATM   18  C15 UNK     1      15.370  11.465  33.566  1.00  0.00     0.003 A 
HETATM   19  C14 UNK     1      14.322  10.669  33.106  1.00  0.00     0.001 A 
HETATM   20  C7  UNK     1      14.428   9.278  33.153  1.00  0.00     0.014 A 
BRANCH  16  21
HETATM   21  O1  UNK     1      17.771   8.927  34.627  1.00  0.00    -0.355 OA
HETATM   22  C16 UNK     1      19.004   9.549  34.271  1.00  0.00     0.210 C 
ENDBRANCH  16  21
ENDBRANCH  14  15
ENDBRANCH   2  13
TORSDOF 6
ENDMDL
MODEL 9
REMARK VINA RESULT:      -7.2      1.720      5.967
REMARK  6 active torsions:
REMARK  status: ('A' for Active; 'I' for Inactive)
REMARK    1  A    between atoms: C3_7  and  O1_1 
REMARK    2  A    between atoms: C6_10  and  O2_2 
REMARK    3  A    between atoms: C13_17  and  O4_4 
REMARK    4  A    between atoms: C1_5  and  C4_8 
REMARK    5  A    between atoms: C2_6  and  C5_9 
REMARK    6  A    between atoms: C5_9  and  C9_13 
ROOT
HETATM    1  O3  UNK     1      16.435   8.561  30.885  1.00  0.00    -0.287 OA
HETATM    2  C5  UNK     1      15.971   8.130  31.936  1.00  0.00     0.184 C 
ENDROOT
BRANCH   2   3
HETATM    3  C2  UNK     1      15.703   9.061  33.057  1.00  0.00     0.047 A 
HETATM    4  C6  UNK     1      16.721   9.851  33.592  1.00  0.00     0.082 A 
HETATM    5  C11 UNK     1      16.448  10.722  34.647  1.00  0.00     0.074 A 
HETATM    6  C13 UNK     1      15.157  10.803  35.167  1.00  0.00     0.068 A 
HETATM    7  C12 UNK     1      14.139  10.013  34.633  1.00  0.00     0.037 A 
HETATM    8  C8  UNK     1      14.412   9.143  33.578  1.00  0.00     0.021 A 
BRANCH   4   9
HETATM    9  O2  UNK     1      17.989   9.786  33.096  1.00  0.00    -0.360 OA
HETATM   10  H10 UNK     1      18.635   9.977  33.795  1.00  0.00     0.217 HD
ENDBRANCH   4   9
BRANCH   6  11
HETATM   11  O4  UNK     1      14.891  11.652  36.198  1.00  0.00    -0.361 OA
HETATM   12  H14 UNK     1      13.926  11.738  36.293  1.00  0.00     0.217 HD
ENDBRANCH   6  11
ENDBRANCH   2   3
BRANCH   2  13
HETATM   13  C9  UNK     1      15.630   6.693  32.132  1.00  0.00     0.056 C 
HETATM   14  C4  UNK     1      16.587   5.808  32.487  1.00  0.00     0.018 C 
BRANCH  14  15
HETATM   15  C1  UNK     1      17.989   6.134  32.706  1.00  0.00    -0.003 A 
HETATM   16  C3  UNK     1      18.931   5.990  31.686  1.00  0.00     0.078 A 
HETATM   17  C10 UNK     1      20.268   6.309  31.921  1.00  0.00     0.037 A 
HETATM   18  C15 UNK     1      20.665   6.772  33.175  1.00  0.00     0.003 A 
HETATM   19  C14 UNK     1      19.725   6.916  34.195  1.00  0.00     0.001 A 
HETATM   20  C7  UNK     1      18.386   6.598  33.961  1.00  0.00     0.014 A 
BRANCH  16  21
HETATM   21  O1  UNK     1      18.569   5.540  30.451  1.00  0.00    -0.355 OA
HETATM   22  C16 UNK     1      18.932   4.201  30.120  1.00  0.00     0.210 C 
ENDBRANCH  16  21
ENDBRANCH  14  15
ENDBRANCH   2  13
TORSDOF 6
ENDMDL
MODEL 10
REMARK VINA RESULT:      -7.1      1.712      2.187
REMARK  6 active torsions:
REMARK  status: ('A' for Active; 'I' for Inactive)
REMARK    1  A    between atoms: C3_7  and  O1_1 
REMARK    2  A    between atoms: C6_10  and  O2_2 
REMARK    3  A    between atoms: C13_17  and  O4_4 
REMARK    4  A    between atoms: C1_5  and  C4_8 
REMARK    5  A    between atoms: C2_6  and  C5_9 
REMARK    6  A    between atoms: C5_9  and  C9_13 
ROOT
HETATM    1  O3  UNK     1      14.976   7.915  32.282  1.00  0.00    -0.287 OA
HETATM    2  C5  UNK     1      15.761   7.225  32.923  1.00  0.00     0.184 C 
ENDROOT
BRANCH   2   3
HETATM    3  C2  UNK     1      16.892   6.562  32.230  1.00  0.00     0.047 A 
HETATM    4  C6  UNK     1      17.397   7.071  31.034  1.00  0.00     0.082 A 
HETATM    5  C11 UNK     1      18.461   6.433  30.397  1.00  0.00     0.074 A 
HETATM    6  C13 UNK     1      19.021   5.285  30.958  1.00  0.00     0.068 A 
HETATM    7  C12 UNK     1      18.516   4.775  32.154  1.00  0.00     0.037 A 
HETATM    8  C8  UNK     1      17.452   5.414  32.790  1.00  0.00     0.021 A 
BRANCH   4   9
HETATM    9  O2  UNK     1      16.863   8.192  30.470  1.00  0.00    -0.360 OA
HETATM   10  H10 UNK     1      16.895   8.131  29.502  1.00  0.00     0.217 HD
ENDBRANCH   4   9
BRANCH   6  11
HETATM   11  O4  UNK     1      20.059   4.660  30.336  1.00  0.00    -0.361 OA
HETATM   12  H14 UNK     1      20.554   4.142  30.994  1.00  0.00     0.217 HD
ENDBRANCH   6  11
ENDBRANCH   2   3
BRANCH   2  13
HETATM   13  C9  UNK     1      15.651   7.042  34.397  1.00  0.00     0.056 C 
HETATM   14  C4  UNK     1      16.514   7.667  35.228  1.00  0.00     0.018 C 
BRANCH  14  15
HETATM   15  C1  UNK     1      17.597   8.545  34.804  1.00  0.00    -0.003 A 
HETATM   16  C3  UNK     1      17.346   9.862  34.418  1.00  0.00     0.078 A 
HETATM   17  C10 UNK     1      18.400  10.683  34.017  1.00  0.00     0.037 A 
HETATM   18  C15 UNK     1      19.704  10.188  34.002  1.00  0.00     0.003 A 
HETATM   19  C14 UNK     1      19.954   8.872  34.387  1.00  0.00     0.001 A 
HETATM   20  C7  UNK     1      18.901   8.050  34.789  1.00  0.00     0.014 A 
BRANCH  16  21
HETATM   21  O1  UNK     1      16.081  10.371  34.424  1.00  0.00    -0.355 OA
HETATM   22  C16 UNK     1      15.939  11.752  34.099  1.00  0.00     0.210 C 
ENDBRANCH  16  21
ENDBRANCH  14  15
ENDBRANCH   2  13
TORSDOF 6
ENDMDL
