MODEL 1
REMARK VINA RESULT:      -7.0      0.000      0.000
REMARK  1 active torsions:
REMARK  status: ('A' for Active; 'I' for Inactive)
REMARK       I    between atoms: C9_14  and  N1_5 
REMARK    1  A    between atoms: C4_9  and  C9_14 
ROOT
HETATM    1 Br1  UNK     1      18.273   2.443  28.961  1.00  0.00    -0.051 Br
HETATM    2  O1  UNK     1      20.819  -2.737  30.833  1.00  0.00    -0.274 OA
HETATM    3  O2  UNK     1      21.395  -4.170  32.517  1.00  0.00    -0.259 OA
HETATM    4  C1  UNK     1      19.661  -0.665  31.363  1.00  0.00     0.000 A 
HETATM    5  C2  UNK     1      20.221  -1.528  30.426  1.00  0.00     0.089 A 
HETATM    6  C3  UNK     1      19.703  -1.032  32.770  1.00  0.00     0.037 A 
HETATM    7  C4  UNK     1      20.270  -2.183  33.151  1.00  0.00     0.108 A 
HETATM    8  C5  UNK     1      19.077   0.525  30.920  1.00  0.00     0.033 A 
HETATM    9  C6  UNK     1      20.214  -1.235  29.063  1.00  0.00     0.039 A 
HETATM   10  C7  UNK     1      20.873  -3.114  32.172  1.00  0.00     0.304 A 
HETATM   11  C8  UNK     1      19.063   0.831  29.556  1.00  0.00     0.011 A 
HETATM   12  C10 UNK     1      19.631  -0.048  28.630  1.00  0.00     0.022 A 
ENDROOT
BRANCH   7  13
HETATM   13  C9  UNK     1      20.262  -2.463  34.591  1.00  0.00     0.257 C 
HETATM   14  O3  UNK     1      20.535  -1.585  35.408  1.00  0.00    -0.267 OA
HETATM   15  N1  UNK     1      19.929  -3.774  34.881  1.00  0.00    -0.361 N 
HETATM   16  C11 UNK     1      19.858  -4.289  36.230  1.00  0.00     0.149 C 
HETATM   17  H5  UNK     1      19.674  -4.414  34.136  1.00  0.00     0.162 HD
ENDBRANCH   7  13
TORSDOF 1
ENDMDL
MODEL 2
REMARK VINA RESULT:      -6.9     24.220     26.142
REMARK  1 active torsions:
REMARK  status: ('A' for Active; 'I' for Inactive)
REMARK       I    between atoms: C9_14  and  N1_5 
REMARK    1  A    between atoms: C4_9  and  C9_14 
ROOT
HETATM    1 Br1  UNK     1      17.017  10.315  10.150  1.00  0.00    -0.051 Br
HETATM    2  O1  UNK     1      13.975   5.147   9.225  1.00  0.00    -0.274 OA
HETATM    3  O2  UNK     1      12.261   4.003   8.239  1.00  0.00    -0.259 OA
HETATM    4  C1  UNK     1      14.234   7.526   8.795  1.00  0.00     0.000 A 
HETATM    5  C2  UNK     1      14.663   6.360   9.422  1.00  0.00     0.089 A 
HETATM    6  C3  UNK     1      13.064   7.471   7.933  1.00  0.00     0.037 A 
HETATM    7  C4  UNK     1      12.415   6.316   7.748  1.00  0.00     0.108 A 
HETATM    8  C5  UNK     1      14.943   8.710   9.016  1.00  0.00     0.033 A 
HETATM    9  C6  UNK     1      15.777   6.345  10.260  1.00  0.00     0.039 A 
HETATM   10  C7  UNK     1      12.853   5.064   8.405  1.00  0.00     0.304 A 
HETATM   11  C8  UNK     1      16.062   8.709   9.854  1.00  0.00     0.011 A 
HETATM   12  C10 UNK     1      16.477   7.529  10.474  1.00  0.00     0.022 A 
ENDROOT
BRANCH   7  13
HETATM   13  C9  UNK     1      11.247   6.363   6.861  1.00  0.00     0.257 C 
HETATM   14  O3  UNK     1      11.376   6.566   5.656  1.00  0.00    -0.267 OA
HETATM   15  N1  UNK     1      10.054   6.162   7.533  1.00  0.00    -0.361 N 
HETATM   16  C11 UNK     1       8.768   6.166   6.873  1.00  0.00     0.149 C 
HETATM   17  H5  UNK     1      10.055   5.955   8.526  1.00  0.00     0.162 HD
ENDBRANCH   7  13
TORSDOF 1
ENDMDL
MODEL 3
REMARK VINA RESULT:      -6.9      5.071      6.011
REMARK  1 active torsions:
REMARK  status: ('A' for Active; 'I' for Inactive)
REMARK       I    between atoms: C9_14  and  N1_5 
REMARK    1  A    between atoms: C4_9  and  C9_14 
ROOT
HETATM    1 Br1  UNK     1      18.147   8.789  33.781  1.00  0.00    -0.051 Br
HETATM    2  O1  UNK     1      18.536   3.280  31.269  1.00  0.00    -0.274 OA
HETATM    3  O2  UNK     1      18.524   1.003  31.467  1.00  0.00    -0.259 OA
HETATM    4  C1  UNK     1      18.249   4.658  33.252  1.00  0.00     0.000 A 
HETATM    5  C2  UNK     1      18.442   4.546  31.878  1.00  0.00     0.089 A 
HETATM    6  C3  UNK     1      18.146   3.445  34.048  1.00  0.00     0.037 A 
HETATM    7  C4  UNK     1      18.235   2.245  33.464  1.00  0.00     0.108 A 
HETATM    8  C5  UNK     1      18.161   5.932  33.819  1.00  0.00     0.033 A 
HETATM    9  C6  UNK     1      18.548   5.668  31.059  1.00  0.00     0.039 A 
HETATM   10  C7  UNK     1      18.441   2.102  32.006  1.00  0.00     0.304 A 
HETATM   11  C8  UNK     1      18.266   7.067  33.008  1.00  0.00     0.011 A 
HETATM   12  C10 UNK     1      18.460   6.934  31.631  1.00  0.00     0.022 A 
ENDROOT
BRANCH   7  13
HETATM   13  C9  UNK     1      18.119   1.082  34.353  1.00  0.00     0.257 C 
HETATM   14  O3  UNK     1      19.001   0.819  35.168  1.00  0.00    -0.267 OA
HETATM   15  N1  UNK     1      16.952   0.368  34.152  1.00  0.00    -0.361 N 
HETATM   16  C11 UNK     1      16.615  -0.819  34.906  1.00  0.00     0.149 C 
HETATM   17  H5  UNK     1      16.261   0.693  33.484  1.00  0.00     0.162 HD
ENDBRANCH   7  13
TORSDOF 1
ENDMDL
MODEL 4
REMARK VINA RESULT:      -6.8      6.631      9.151
REMARK  1 active torsions:
REMARK  status: ('A' for Active; 'I' for Inactive)
REMARK       I    between atoms: C9_14  and  N1_5 
REMARK    1  A    between atoms: C4_9  and  C9_14 
ROOT
HETATM    1 Br1  UNK     1      23.503 -11.450  35.922  1.00  0.00    -0.051 Br
HETATM    2  O1  UNK     1      18.533  -8.165  37.069  1.00  0.00    -0.274 OA
HETATM    3  O2  UNK     1      17.447  -6.155  37.103  1.00  0.00    -0.259 OA
HETATM    4  C1  UNK     1      20.837  -8.272  36.300  1.00  0.00     0.000 A 
HETATM    5  C2  UNK     1      19.700  -8.904  36.794  1.00  0.00     0.089 A 
HETATM    6  C3  UNK     1      20.800  -6.835  36.073  1.00  0.00     0.037 A 
HETATM    7  C4  UNK     1      19.688  -6.139  36.335  1.00  0.00     0.108 A 
HETATM    8  C5  UNK     1      21.976  -9.039  36.040  1.00  0.00     0.033 A 
HETATM    9  C6  UNK     1      19.669 -10.277  37.033  1.00  0.00     0.039 A 
HETATM   10  C7  UNK     1      18.468  -6.790  36.861  1.00  0.00     0.304 A 
HETATM   11  C8  UNK     1      21.959 -10.417  36.275  1.00  0.00     0.011 A 
HETATM   12  C10 UNK     1      20.808 -11.033  36.771  1.00  0.00     0.022 A 
ENDROOT
BRANCH   7  13
HETATM   13  C9  UNK     1      19.750  -4.696  36.074  1.00  0.00     0.257 C 
HETATM   14  O3  UNK     1      20.247  -4.262  35.036  1.00  0.00    -0.267 OA
HETATM   15  N1  UNK     1      19.208  -3.941  37.098  1.00  0.00    -0.361 N 
HETATM   16  C11 UNK     1      19.157  -2.496  37.070  1.00  0.00     0.149 C 
HETATM   17  H5  UNK     1      18.778  -4.396  37.897  1.00  0.00     0.162 HD
ENDBRANCH   7  13
TORSDOF 1
ENDMDL
MODEL 5
REMARK VINA RESULT:      -6.7      4.895      6.759
REMARK  1 active torsions:
REMARK  status: ('A' for Active; 'I' for Inactive)
REMARK       I    between atoms: C9_14  and  N1_5 
REMARK    1  A    between atoms: C4_9  and  C9_14 
ROOT
HETATM    1 Br1  UNK     1      17.812  -0.458  37.631  1.00  0.00    -0.051 Br
HETATM    2  O1  UNK     1      18.819   0.479  31.722  1.00  0.00    -0.274 OA
HETATM    3  O2  UNK     1      18.958   1.893  29.932  1.00  0.00    -0.259 OA
HETATM    4  C1  UNK     1      18.264   1.370  33.915  1.00  0.00     0.000 A 
HETATM    5  C2  UNK     1      18.580   0.290  33.097  1.00  0.00     0.089 A 
HETATM    6  C3  UNK     1      18.183   2.698  33.327  1.00  0.00     0.037 A 
HETATM    7  C4  UNK     1      18.412   2.872  32.020  1.00  0.00     0.108 A 
HETATM    8  C5  UNK     1      18.035   1.142  35.274  1.00  0.00     0.033 A 
HETATM    9  C6  UNK     1      18.674  -1.007  33.598  1.00  0.00     0.039 A 
HETATM   10  C7  UNK     1      18.749   1.738  31.131  1.00  0.00     0.304 A 
HETATM   11  C8  UNK     1      18.125  -0.154  35.791  1.00  0.00     0.011 A 
HETATM   12  C10 UNK     1      18.444  -1.226  34.953  1.00  0.00     0.022 A 
ENDROOT
BRANCH   7  13
HETATM   13  C9  UNK     1      18.307   4.249  31.521  1.00  0.00     0.257 C 
HETATM   14  O3  UNK     1      17.370   4.972  31.855  1.00  0.00    -0.267 OA
HETATM   15  N1  UNK     1      19.344   4.593  30.674  1.00  0.00    -0.361 N 
HETATM   16  C11 UNK     1      19.457   5.895  30.055  1.00  0.00     0.149 C 
HETATM   17  H5  UNK     1      20.099   3.939  30.496  1.00  0.00     0.162 HD
ENDBRANCH   7  13
TORSDOF 1
ENDMDL
MODEL 6
REMARK VINA RESULT:      -6.7      3.536      5.690
REMARK  1 active torsions:
REMARK  status: ('A' for Active; 'I' for Inactive)
REMARK       I    between atoms: C9_14  and  N1_5 
REMARK    1  A    between atoms: C4_9  and  C9_14 
ROOT
HETATM    1 Br1  UNK     1      17.182   1.312  37.596  1.00  0.00    -0.051 Br
HETATM    2  O1  UNK     1      19.704  -1.918  33.122  1.00  0.00    -0.274 OA
HETATM    3  O2  UNK     1      20.315  -2.133  30.931  1.00  0.00    -0.259 OA
HETATM    4  C1  UNK     1      18.600   0.117  33.866  1.00  0.00     0.000 A 
HETATM    5  C2  UNK     1      19.114  -1.147  34.142  1.00  0.00     0.089 A 
HETATM    6  C3  UNK     1      18.684   0.628  32.507  1.00  0.00     0.037 A 
HETATM    7  C4  UNK     1      19.247  -0.108  31.542  1.00  0.00     0.108 A 
HETATM    8  C5  UNK     1      18.022   0.851  34.904  1.00  0.00     0.033 A 
HETATM    9  C6  UNK     1      19.065  -1.694  35.422  1.00  0.00     0.039 A 
HETATM   10  C7  UNK     1      19.799  -1.454  31.812  1.00  0.00     0.304 A 
HETATM   11  C8  UNK     1      17.967   0.314  36.194  1.00  0.00     0.011 A 
HETATM   12  C10 UNK     1      18.487  -0.956  36.451  1.00  0.00     0.022 A 
ENDROOT
BRANCH   7  13
HETATM   13  C9  UNK     1      19.284   0.495  30.204  1.00  0.00     0.257 C 
HETATM   14  O3  UNK     1      20.301   0.446  29.516  1.00  0.00    -0.267 OA
HETATM   15  N1  UNK     1      18.086   1.091  29.851  1.00  0.00    -0.361 N 
HETATM   16  C11 UNK     1      17.879   1.753  28.583  1.00  0.00     0.149 C 
HETATM   17  H5  UNK     1      17.286   1.037  30.472  1.00  0.00     0.162 HD
ENDBRANCH   7  13
TORSDOF 1
ENDMDL
MODEL 7
REMARK VINA RESULT:      -6.6      4.703      6.660
REMARK  1 active torsions:
REMARK  status: ('A' for Active; 'I' for Inactive)
REMARK       I    between atoms: C9_14  and  N1_5 
REMARK    1  A    between atoms: C4_9  and  C9_14 
ROOT
HETATM    1 Br1  UNK     1      17.608   8.287  32.836  1.00  0.00    -0.051 Br
HETATM    2  O1  UNK     1      18.483   2.284  32.903  1.00  0.00    -0.274 OA
HETATM    3  O2  UNK     1      18.762   0.306  31.793  1.00  0.00    -0.259 OA
HETATM    4  C1  UNK     1      18.173   4.337  31.639  1.00  0.00     0.000 A 
HETATM    5  C2  UNK     1      18.280   3.677  32.858  1.00  0.00     0.089 A 
HETATM    6  C3  UNK     1      18.275   3.565  30.410  1.00  0.00     0.037 A 
HETATM    7  C4  UNK     1      18.469   2.242  30.458  1.00  0.00     0.108 A 
HETATM    8  C5  UNK     1      17.972   5.720  31.636  1.00  0.00     0.033 A 
HETATM    9  C6  UNK     1      18.192   4.358  34.072  1.00  0.00     0.039 A 
HETATM   10  C7  UNK     1      18.585   1.519  31.744  1.00  0.00     0.304 A 
HETATM   11  C8  UNK     1      17.882   6.416  32.845  1.00  0.00     0.011 A 
HETATM   12  C10 UNK     1      17.992   5.735  34.060  1.00  0.00     0.022 A 
ENDROOT
BRANCH   7  13
HETATM   13  C9  UNK     1      18.557   1.553  29.166  1.00  0.00     0.257 C 
HETATM   14  O3  UNK     1      18.096   2.061  28.145  1.00  0.00    -0.267 OA
HETATM   15  N1  UNK     1      19.191   0.326  29.254  1.00  0.00    -0.361 N 
HETATM   16  C11 UNK     1      19.395  -0.539  28.114  1.00  0.00     0.149 C 
HETATM   17  H5  UNK     1      19.581   0.014  30.137  1.00  0.00     0.162 HD
ENDBRANCH   7  13
TORSDOF 1
ENDMDL
MODEL 8
REMARK VINA RESULT:      -6.6      2.876      3.817
REMARK  1 active torsions:
REMARK  status: ('A' for Active; 'I' for Inactive)
REMARK       I    between atoms: C9_14  and  N1_5 
REMARK    1  A    between atoms: C4_9  and  C9_14 
ROOT
HETATM    1 Br1  UNK     1      20.106  -0.643  28.855  1.00  0.00    -0.051 Br
HETATM    2  O1  UNK     1      19.993  -2.517  34.625  1.00  0.00    -0.274 OA
HETATM    3  O2  UNK     1      19.192  -2.330  36.757  1.00  0.00    -0.259 OA
HETATM    4  C1  UNK     1      19.195  -0.994  32.905  1.00  0.00     0.000 A 
HETATM    5  C2  UNK     1      19.999  -2.061  33.292  1.00  0.00     0.089 A 
HETATM    6  C3  UNK     1      18.346  -0.357  33.900  1.00  0.00     0.037 A 
HETATM    7  C4  UNK     1      18.343  -0.795  35.164  1.00  0.00     0.108 A 
HETATM    8  C5  UNK     1      19.229  -0.572  31.573  1.00  0.00     0.033 A 
HETATM    9  C6  UNK     1      20.835  -2.716  32.388  1.00  0.00     0.039 A 
HETATM   10  C7  UNK     1      19.191  -1.927  35.598  1.00  0.00     0.304 A 
HETATM   11  C8  UNK     1      20.062  -1.219  30.656  1.00  0.00     0.011 A 
HETATM   12  C10 UNK     1      20.864  -2.289  31.064  1.00  0.00     0.022 A 
ENDROOT
BRANCH   7  13
HETATM   13  C9  UNK     1      17.454  -0.086  36.093  1.00  0.00     0.257 C 
HETATM   14  O3  UNK     1      16.236  -0.083  35.923  1.00  0.00    -0.267 OA
HETATM   15  N1  UNK     1      18.138   0.539  37.119  1.00  0.00    -0.361 N 
HETATM   16  C11 UNK     1      17.479   1.301  38.156  1.00  0.00     0.149 C 
HETATM   17  H5  UNK     1      19.144   0.438  37.199  1.00  0.00     0.162 HD
ENDBRANCH   7  13
TORSDOF 1
ENDMDL
MODEL 9
REMARK VINA RESULT:      -6.6      7.898      9.500
REMARK  1 active torsions:
REMARK  status: ('A' for Active; 'I' for Inactive)
REMARK       I    between atoms: C9_14  and  N1_5 
REMARK    1  A    between atoms: C4_9  and  C9_14 
ROOT
HETATM    1 Br1  UNK     1      14.242  10.212  34.605  1.00  0.00    -0.051 Br
HETATM    2  O1  UNK     1      19.465   7.602  32.955  1.00  0.00    -0.274 OA
HETATM    3  O2  UNK     1      20.615   5.799  32.150  1.00  0.00    -0.259 OA
HETATM    4  C1  UNK     1      17.053   7.460  33.234  1.00  0.00     0.000 A 
HETATM    5  C2  UNK     1      18.238   8.183  33.331  1.00  0.00     0.089 A 
HETATM    6  C3  UNK     1      17.102   6.094  32.737  1.00  0.00     0.037 A 
HETATM    7  C4  UNK     1      18.270   5.547  32.379  1.00  0.00     0.108 A 
HETATM    8  C5  UNK     1      15.857   8.072  33.616  1.00  0.00     0.033 A 
HETATM    9  C6  UNK     1      18.260   9.496  33.799  1.00  0.00     0.039 A 
HETATM   10  C7  UNK     1      19.542   6.297  32.476  1.00  0.00     0.304 A 
HETATM   11  C8  UNK     1      15.864   9.389  34.087  1.00  0.00     0.011 A 
HETATM   12  C10 UNK     1      17.064  10.098  34.178  1.00  0.00     0.022 A 
ENDROOT
BRANCH   7  13
HETATM   13  C9  UNK     1      18.215   4.164  31.891  1.00  0.00     0.257 C 
HETATM   14  O3  UNK     1      17.799   3.257  32.608  1.00  0.00    -0.267 OA
HETATM   15  N1  UNK     1      18.673   4.036  30.592  1.00  0.00    -0.361 N 
HETATM   16  C11 UNK     1      18.718   2.770  29.894  1.00  0.00     0.149 C 
HETATM   17  H5  UNK     1      18.953   4.856  30.064  1.00  0.00     0.162 HD
ENDBRANCH   7  13
TORSDOF 1
ENDMDL
MODEL 10
REMARK VINA RESULT:      -6.5     13.688     16.155
REMARK  1 active torsions:
REMARK  status: ('A' for Active; 'I' for Inactive)
REMARK       I    between atoms: C9_14  and  N1_5 
REMARK    1  A    between atoms: C4_9  and  C9_14 
ROOT
HETATM    1 Br1  UNK     1      18.210  -5.315  14.989  1.00  0.00    -0.051 Br
HETATM    2  O1  UNK     1      19.388   0.632  14.761  1.00  0.00    -0.274 OA
HETATM    3  O2  UNK     1      19.627   2.650  15.807  1.00  0.00    -0.259 OA
HETATM    4  C1  UNK     1      18.821  -1.338  16.068  1.00  0.00     0.000 A 
HETATM    5  C2  UNK     1      19.111  -0.746  14.843  1.00  0.00     0.089 A 
HETATM    6  C3  UNK     1      18.808  -0.509  17.263  1.00  0.00     0.037 A 
HETATM    7  C4  UNK     1      19.073   0.800  17.180  1.00  0.00     0.108 A 
HETATM    8  C5  UNK     1      18.551  -2.708  16.108  1.00  0.00     0.033 A 
HETATM    9  C6  UNK     1      19.140  -1.484  13.660  1.00  0.00     0.039 A 
HETATM   10  C7  UNK     1      19.384   1.450  15.888  1.00  0.00     0.304 A 
HETATM   11  C8  UNK     1      18.576  -3.460  14.930  1.00  0.00     0.011 A 
HETATM   12  C10 UNK     1      18.870  -2.848  13.709  1.00  0.00     0.022 A 
ENDROOT
BRANCH   7  13
HETATM   13  C9  UNK     1      19.036   1.550  18.441  1.00  0.00     0.257 C 
HETATM   14  O3  UNK     1      18.623   2.708  18.476  1.00  0.00    -0.267 OA
HETATM   15  N1  UNK     1      19.504   0.816  19.517  1.00  0.00    -0.361 N 
HETATM   16  C11 UNK     1      19.567   1.342  20.862  1.00  0.00     0.149 C 
HETATM   17  H5  UNK     1      19.780  -0.152  19.394  1.00  0.00     0.162 HD
ENDBRANCH   7  13
TORSDOF 1
ENDMDL
