MODEL 1
REMARK VINA RESULT:      -7.7      0.000      0.000
REMARK  4 active torsions:
REMARK  status: ('A' for Active; 'I' for Inactive)
REMARK    1  A    between atoms: C5_10  and  O2_2 
REMARK    2  A    between atoms: C9_14  and  O3_3 
REMARK    3  A    between atoms: C15_20  and  O5_5 
REMARK    4  A    between atoms: C3_8  and  C4_9 
ROOT
HETATM    1  O1  UNK     1      16.953   7.502  32.286  1.00  0.00    -0.306 OA
HETATM    2  O4  UNK     1      19.793   9.339  34.559  1.00  0.00    -0.284 OA
HETATM    3  C1  UNK     1      17.591   9.357  33.716  1.00  0.00     0.053 A 
HETATM    4  C2  UNK     1      16.665   8.681  32.923  1.00  0.00     0.090 A 
HETATM    5  C3  UNK     1      18.216   6.955  32.447  1.00  0.00     0.123 A 
HETATM    6  C5  UNK     1      19.201   7.509  33.177  1.00  0.00     0.152 A 
HETATM    7  C6  UNK     1      18.936   8.788  33.881  1.00  0.00     0.220 A 
HETATM    8  C7  UNK     1      17.241  10.557  34.341  1.00  0.00     0.055 A 
HETATM    9  C8  UNK     1      15.382   9.202  32.750  1.00  0.00     0.041 A 
HETATM   10  C9  UNK     1      15.956  11.075  34.167  1.00  0.00     0.069 A 
HETATM   11  C10 UNK     1      15.030  10.399  33.373  1.00  0.00     0.039 A 
ENDROOT
BRANCH   5  12
HETATM   12  C4  UNK     1      18.393   5.690  31.710  1.00  0.00     0.001 A 
HETATM   13  C11 UNK     1      18.047   4.479  32.309  1.00  0.00     0.017 A 
HETATM   14  C13 UNK     1      18.216   3.283  31.610  1.00  0.00     0.037 A 
HETATM   15  C15 UNK     1      18.730   3.298  30.314  1.00  0.00     0.068 A 
HETATM   16  C14 UNK     1      19.077   4.510  29.716  1.00  0.00     0.037 A 
HETATM   17  C12 UNK     1      18.908   5.706  30.414  1.00  0.00     0.017 A 
BRANCH  15  18
HETATM   18  O5  UNK     1      18.895   2.132  29.634  1.00  0.00    -0.356 OA
HETATM   19  C17 UNK     1      17.954   1.844  28.601  1.00  0.00     0.210 C 
ENDBRANCH  15  18
ENDBRANCH   5  12
BRANCH   6  20
HETATM   20  O2  UNK     1      20.457   6.955  33.291  1.00  0.00    -0.355 OA
HETATM   21  H8  UNK     1      20.477   6.089  32.852  1.00  0.00     0.218 HD
ENDBRANCH   6  20
BRANCH  10  22
HETATM   22  O3  UNK     1      15.608  12.243  34.772  1.00  0.00    -0.356 OA
HETATM   23  C16 UNK     1      16.660  13.012  35.353  1.00  0.00     0.210 C 
ENDBRANCH  10  22
TORSDOF 4
ENDMDL
MODEL 2
REMARK VINA RESULT:      -7.6      3.416      8.144
REMARK  4 active torsions:
REMARK  status: ('A' for Active; 'I' for Inactive)
REMARK    1  A    between atoms: C5_10  and  O2_2 
REMARK    2  A    between atoms: C9_14  and  O3_3 
REMARK    3  A    between atoms: C15_20  and  O5_5 
REMARK    4  A    between atoms: C3_8  and  C4_9 
ROOT
HETATM    1  O1  UNK     1      18.268   3.812  34.694  1.00  0.00    -0.306 OA
HETATM    2  O4  UNK     1      18.368   1.438  31.383  1.00  0.00    -0.284 OA
HETATM    3  C1  UNK     1      18.340   1.582  33.736  1.00  0.00     0.053 A 
HETATM    4  C2  UNK     1      18.308   2.449  34.828  1.00  0.00     0.090 A 
HETATM    5  C3  UNK     1      18.250   4.350  33.417  1.00  0.00     0.123 A 
HETATM    6  C5  UNK     1      18.286   3.627  32.282  1.00  0.00     0.152 A 
HETATM    7  C6  UNK     1      18.333   2.148  32.379  1.00  0.00     0.220 A 
HETATM    8  C7  UNK     1      18.381   0.200  33.935  1.00  0.00     0.055 A 
HETATM    9  C8  UNK     1      18.315   1.937  36.126  1.00  0.00     0.041 A 
HETATM   10  C9  UNK     1      18.387  -0.310  35.234  1.00  0.00     0.069 A 
HETATM   11  C10 UNK     1      18.355   0.556  36.327  1.00  0.00     0.039 A 
ENDROOT
BRANCH   5  12
HETATM   12  C4  UNK     1      18.208   5.824  33.414  1.00  0.00     0.001 A 
HETATM   13  C11 UNK     1      19.345   6.556  33.756  1.00  0.00     0.017 A 
HETATM   14  C13 UNK     1      19.303   7.951  33.754  1.00  0.00     0.037 A 
HETATM   15  C15 UNK     1      18.125   8.613  33.409  1.00  0.00     0.068 A 
HETATM   16  C14 UNK     1      16.988   7.881  33.067  1.00  0.00     0.037 A 
HETATM   17  C12 UNK     1      17.030   6.486  33.069  1.00  0.00     0.017 A 
BRANCH  15  18
HETATM   18  O5  UNK     1      18.085   9.973  33.407  1.00  0.00    -0.356 OA
HETATM   19  C17 UNK     1      17.008  10.593  34.107  1.00  0.00     0.210 C 
ENDBRANCH  15  18
ENDBRANCH   5  12
BRANCH   6  20
HETATM   20  O2  UNK     1      18.299   4.195  31.027  1.00  0.00    -0.355 OA
HETATM   21  H8  UNK     1      19.085   3.902  30.540  1.00  0.00     0.218 HD
ENDBRANCH   6  20
BRANCH  10  22
HETATM   22  O3  UNK     1      18.427  -1.655  35.436  1.00  0.00    -0.356 OA
HETATM   23  C16 UNK     1      18.074  -2.127  36.735  1.00  0.00     0.210 C 
ENDBRANCH  10  22
TORSDOF 4
ENDMDL
MODEL 3
REMARK VINA RESULT:      -7.5      8.768     12.163
REMARK  4 active torsions:
REMARK  status: ('A' for Active; 'I' for Inactive)
REMARK    1  A    between atoms: C5_10  and  O2_2 
REMARK    2  A    between atoms: C9_14  and  O3_3 
REMARK    3  A    between atoms: C15_20  and  O5_5 
REMARK    4  A    between atoms: C3_8  and  C4_9 
ROOT
HETATM    1  O1  UNK     1      20.303  -3.398  34.819  1.00  0.00    -0.306 OA
HETATM    2  O4  UNK     1      17.832  -0.424  36.107  1.00  0.00    -0.284 OA
HETATM    3  C1  UNK     1      19.076  -1.360  34.336  1.00  0.00     0.053 A 
HETATM    4  C2  UNK     1      19.921  -2.403  33.958  1.00  0.00     0.090 A 
HETATM    5  C3  UNK     1      19.821  -3.370  36.118  1.00  0.00     0.123 A 
HETATM    6  C5  UNK     1      19.008  -2.417  36.611  1.00  0.00     0.152 A 
HETATM    7  C6  UNK     1      18.571  -1.318  35.716  1.00  0.00     0.220 A 
HETATM    8  C7  UNK     1      18.720  -0.372  33.414  1.00  0.00     0.055 A 
HETATM    9  C8  UNK     1      20.415  -2.463  32.655  1.00  0.00     0.041 A 
HETATM   10  C9  UNK     1      19.215  -0.435  32.110  1.00  0.00     0.069 A 
HETATM   11  C10 UNK     1      20.060  -1.478  31.732  1.00  0.00     0.039 A 
ENDROOT
BRANCH   5  12
HETATM   12  C4  UNK     1      20.308  -4.494  36.937  1.00  0.00     0.001 A 
HETATM   13  C11 UNK     1      21.517  -4.385  37.625  1.00  0.00     0.017 A 
HETATM   14  C13 UNK     1      21.978  -5.451  38.399  1.00  0.00     0.037 A 
HETATM   15  C15 UNK     1      21.229  -6.625  38.486  1.00  0.00     0.068 A 
HETATM   16  C14 UNK     1      20.021  -6.734  37.798  1.00  0.00     0.037 A 
HETATM   17  C12 UNK     1      19.560  -5.668  37.024  1.00  0.00     0.017 A 
BRANCH  15  18
HETATM   18  O5  UNK     1      21.679  -7.663  39.241  1.00  0.00    -0.356 OA
HETATM   19  C17 UNK     1      20.967  -8.895  39.141  1.00  0.00     0.210 C 
ENDBRANCH  15  18
ENDBRANCH   5  12
BRANCH   6  20
HETATM   20  O2  UNK     1      18.571  -2.402  37.917  1.00  0.00    -0.355 OA
HETATM   21  H8  UNK     1      19.247  -2.000  38.486  1.00  0.00     0.218 HD
ENDBRANCH   6  20
BRANCH  10  22
HETATM   22  O3  UNK     1      18.874   0.523  31.207  1.00  0.00    -0.356 OA
HETATM   23  C16 UNK     1      19.592   0.539  29.974  1.00  0.00     0.210 C 
ENDBRANCH  10  22
TORSDOF 4
ENDMDL
MODEL 4
REMARK VINA RESULT:      -7.4      2.624      8.173
REMARK  4 active torsions:
REMARK  status: ('A' for Active; 'I' for Inactive)
REMARK    1  A    between atoms: C5_10  and  O2_2 
REMARK    2  A    between atoms: C9_14  and  O3_3 
REMARK    3  A    between atoms: C15_20  and  O5_5 
REMARK    4  A    between atoms: C3_8  and  C4_9 
ROOT
HETATM    1  O1  UNK     1      18.013   3.689  33.202  1.00  0.00    -0.306 OA
HETATM    2  O4  UNK     1      19.201   2.357  29.539  1.00  0.00    -0.284 OA
HETATM    3  C1  UNK     1      18.677   1.838  31.779  1.00  0.00     0.053 A 
HETATM    4  C2  UNK     1      18.270   2.358  33.007  1.00  0.00     0.090 A 
HETATM    5  C3  UNK     1      18.154   4.554  32.128  1.00  0.00     0.123 A 
HETATM    6  C5  UNK     1      18.547   4.184  30.896  1.00  0.00     0.152 A 
HETATM    7  C6  UNK     1      18.840   2.753  30.639  1.00  0.00     0.220 A 
HETATM    8  C7  UNK     1      18.925   0.471  31.639  1.00  0.00     0.055 A 
HETATM    9  C8  UNK     1      18.109   1.510  34.104  1.00  0.00     0.041 A 
HETATM   10  C9  UNK     1      18.763  -0.375  32.738  1.00  0.00     0.069 A 
HETATM   11  C10 UNK     1      18.357   0.144  33.967  1.00  0.00     0.039 A 
ENDROOT
BRANCH   5  12
HETATM   12  C4  UNK     1      17.848   5.954  32.474  1.00  0.00     0.001 A 
HETATM   13  C11 UNK     1      16.568   6.463  32.257  1.00  0.00     0.017 A 
HETATM   14  C13 UNK     1      16.280   7.789  32.583  1.00  0.00     0.037 A 
HETATM   15  C15 UNK     1      17.272   8.605  33.128  1.00  0.00     0.068 A 
HETATM   16  C14 UNK     1      18.552   8.096  33.345  1.00  0.00     0.037 A 
HETATM   17  C12 UNK     1      18.840   6.770  33.018  1.00  0.00     0.017 A 
BRANCH  15  18
HETATM   18  O5  UNK     1      16.990   9.897  33.446  1.00  0.00    -0.356 OA
HETATM   19  C17 UNK     1      15.699  10.166  33.989  1.00  0.00     0.210 C 
ENDBRANCH  15  18
ENDBRANCH   5  12
BRANCH   6  20
HETATM   20  O2  UNK     1      18.708   5.075  29.857  1.00  0.00    -0.355 OA
HETATM   21  H8  UNK     1      18.916   4.594  29.040  1.00  0.00     0.218 HD
ENDBRANCH   6  20
BRANCH  10  22
HETATM   22  O3  UNK     1      19.004  -1.708  32.610  1.00  0.00    -0.356 OA
HETATM   23  C16 UNK     1      20.281  -2.092  32.103  1.00  0.00     0.210 C 
ENDBRANCH  10  22
TORSDOF 4
ENDMDL
MODEL 5
REMARK VINA RESULT:      -7.4      2.499      8.373
REMARK  4 active torsions:
REMARK  status: ('A' for Active; 'I' for Inactive)
REMARK    1  A    between atoms: C5_10  and  O2_2 
REMARK    2  A    between atoms: C9_14  and  O3_3 
REMARK    3  A    between atoms: C15_20  and  O5_5 
REMARK    4  A    between atoms: C3_8  and  C4_9 
ROOT
HETATM    1  O1  UNK     1      18.523   3.758  31.108  1.00  0.00    -0.306 OA
HETATM    2  O4  UNK     1      18.665   0.973  34.080  1.00  0.00    -0.284 OA
HETATM    3  C1  UNK     1      18.874   1.452  31.781  1.00  0.00     0.053 A 
HETATM    4  C2  UNK     1      18.808   2.451  30.811  1.00  0.00     0.090 A 
HETATM    5  C3  UNK     1      18.302   4.101  32.432  1.00  0.00     0.123 A 
HETATM    6  C5  UNK     1      18.328   3.234  33.461  1.00  0.00     0.152 A 
HETATM    7  C6  UNK     1      18.628   1.808  33.186  1.00  0.00     0.220 A 
HETATM    8  C7  UNK     1      19.168   0.135  31.418  1.00  0.00     0.055 A 
HETATM    9  C8  UNK     1      19.037   2.138  29.470  1.00  0.00     0.041 A 
HETATM   10  C9  UNK     1      19.397  -0.175  30.076  1.00  0.00     0.069 A 
HETATM   11  C10 UNK     1      19.331   0.824  29.105  1.00  0.00     0.039 A 
ENDROOT
BRANCH   5  12
HETATM   12  C4  UNK     1      18.006   5.534  32.613  1.00  0.00     0.001 A 
HETATM   13  C11 UNK     1      19.006   6.404  33.050  1.00  0.00     0.017 A 
HETATM   14  C13 UNK     1      18.725   7.760  33.221  1.00  0.00     0.037 A 
HETATM   15  C15 UNK     1      17.444   8.246  32.956  1.00  0.00     0.068 A 
HETATM   16  C14 UNK     1      16.445   7.376  32.519  1.00  0.00     0.037 A 
HETATM   17  C12 UNK     1      16.726   6.020  32.348  1.00  0.00     0.017 A 
BRANCH  15  18
HETATM   18  O5  UNK     1      17.171   9.568  33.123  1.00  0.00    -0.356 OA
HETATM   19  C17 UNK     1      16.398   9.932  34.265  1.00  0.00     0.210 C 
ENDBRANCH  15  18
ENDBRANCH   5  12
BRANCH   6  20
HETATM   20  O2  UNK     1      18.071   3.603  34.763  1.00  0.00    -0.355 OA
HETATM   21  H8  UNK     1      17.572   2.901  35.213  1.00  0.00     0.218 HD
ENDBRANCH   6  20
BRANCH  10  22
HETATM   22  O3  UNK     1      19.684  -1.455  29.714  1.00  0.00    -0.356 OA
HETATM   23  C16 UNK     1      20.430  -2.240  30.643  1.00  0.00     0.210 C 
ENDBRANCH  10  22
TORSDOF 4
ENDMDL
MODEL 6
REMARK VINA RESULT:      -7.3     23.111     25.097
REMARK  4 active torsions:
REMARK  status: ('A' for Active; 'I' for Inactive)
REMARK    1  A    between atoms: C5_10  and  O2_2 
REMARK    2  A    between atoms: C9_14  and  O3_3 
REMARK    3  A    between atoms: C15_20  and  O5_5 
REMARK    4  A    between atoms: C3_8  and  C4_9 
ROOT
HETATM    1  O1  UNK     1      13.545   8.068   7.912  1.00  0.00    -0.306 OA
HETATM    2  O4  UNK     1      10.486   9.125  10.388  1.00  0.00    -0.284 OA
HETATM    3  C1  UNK     1      11.231   7.793   8.591  1.00  0.00     0.053 A 
HETATM    4  C2  UNK     1      12.316   7.478   7.775  1.00  0.00     0.090 A 
HETATM    5  C3  UNK     1      13.717   9.011   8.912  1.00  0.00     0.123 A 
HETATM    6  C5  UNK     1      12.751   9.411   9.760  1.00  0.00     0.152 A 
HETATM    7  C6  UNK     1      11.404   8.802   9.645  1.00  0.00     0.220 A 
HETATM    8  C7  UNK     1      10.000   7.158   8.403  1.00  0.00     0.055 A 
HETATM    9  C8  UNK     1      12.176   6.524   6.765  1.00  0.00     0.041 A 
HETATM   10  C9  UNK     1       9.863   6.205   7.394  1.00  0.00     0.069 A 
HETATM   11  C10 UNK     1      10.948   5.888   6.577  1.00  0.00     0.039 A 
ENDROOT
BRANCH   5  12
HETATM   12  C4  UNK     1      15.082   9.567   8.950  1.00  0.00     0.001 A 
HETATM   13  C11 UNK     1      16.060   8.964   9.741  1.00  0.00     0.017 A 
HETATM   14  C13 UNK     1      17.352   9.491   9.776  1.00  0.00     0.037 A 
HETATM   15  C15 UNK     1      17.665  10.621   9.020  1.00  0.00     0.068 A 
HETATM   16  C14 UNK     1      16.687  11.224   8.229  1.00  0.00     0.037 A 
HETATM   17  C12 UNK     1      15.396  10.696   8.193  1.00  0.00     0.017 A 
BRANCH  15  18
HETATM   18  O5  UNK     1      18.924  11.134   9.055  1.00  0.00    -0.356 OA
HETATM   19  C17 UNK     1      19.382  11.812   7.886  1.00  0.00     0.210 C 
ENDBRANCH  15  18
ENDBRANCH   5  12
BRANCH   6  20
HETATM   20  O2  UNK     1      12.947  10.376  10.723  1.00  0.00    -0.355 OA
HETATM   21  H8  UNK     1      12.159  10.938  10.792  1.00  0.00     0.218 HD
ENDBRANCH   6  20
BRANCH  10  22
HETATM   22  O3  UNK     1       8.668   5.582   7.205  1.00  0.00    -0.356 OA
HETATM   23  C16 UNK     1       7.844   5.396   8.355  1.00  0.00     0.210 C 
ENDBRANCH  10  22
TORSDOF 4
ENDMDL
MODEL 7
REMARK VINA RESULT:      -7.2     17.248     18.826
REMARK  4 active torsions:
REMARK  status: ('A' for Active; 'I' for Inactive)
REMARK    1  A    between atoms: C5_10  and  O2_2 
REMARK    2  A    between atoms: C9_14  and  O3_3 
REMARK    3  A    between atoms: C15_20  and  O5_5 
REMARK    4  A    between atoms: C3_8  and  C4_9 
ROOT
HETATM    1  O1  UNK     1      25.910  -6.572  38.555  1.00  0.00    -0.306 OA
HETATM    2  O4  UNK     1      28.877  -9.359  38.736  1.00  0.00    -0.284 OA
HETATM    3  C1  UNK     1      28.280  -7.079  38.688  1.00  0.00     0.053 A 
HETATM    4  C2  UNK     1      27.220  -6.176  38.621  1.00  0.00     0.090 A 
HETATM    5  C3  UNK     1      25.628  -7.929  38.566  1.00  0.00     0.123 A 
HETATM    6  C5  UNK     1      26.557  -8.902  38.618  1.00  0.00     0.152 A 
HETATM    7  C6  UNK     1      27.988  -8.520  38.686  1.00  0.00     0.220 A 
HETATM    8  C7  UNK     1      29.597  -6.616  38.753  1.00  0.00     0.055 A 
HETATM    9  C8  UNK     1      27.471  -4.804  38.619  1.00  0.00     0.041 A 
HETATM   10  C9  UNK     1      29.845  -5.242  38.751  1.00  0.00     0.069 A 
HETATM   11  C10 UNK     1      28.785  -4.339  38.685  1.00  0.00     0.039 A 
ENDROOT
BRANCH   5  12
HETATM   12  C4  UNK     1      24.184  -8.218  38.490  1.00  0.00     0.001 A 
HETATM   13  C11 UNK     1      23.629  -8.699  37.305  1.00  0.00     0.017 A 
HETATM   14  C13 UNK     1      22.263  -8.971  37.234  1.00  0.00     0.037 A 
HETATM   15  C15 UNK     1      21.451  -8.762  38.350  1.00  0.00     0.068 A 
HETATM   16  C14 UNK     1      22.006  -8.280  39.535  1.00  0.00     0.037 A 
HETATM   17  C12 UNK     1      23.373  -8.009  39.605  1.00  0.00     0.017 A 
BRANCH  15  18
HETATM   18  O5  UNK     1      20.119  -9.028  38.280  1.00  0.00    -0.356 OA
HETATM   19  C17 UNK     1      19.735 -10.393  38.129  1.00  0.00     0.210 C 
ENDBRANCH  15  18
ENDBRANCH   5  12
BRANCH   6  20
HETATM   20  O2  UNK     1      26.244 -10.243  38.595  1.00  0.00    -0.355 OA
HETATM   21  H8  UNK     1      26.543 -10.637  37.759  1.00  0.00     0.218 HD
ENDBRANCH   6  20
BRANCH  10  22
HETATM   22  O3  UNK     1      31.125  -4.784  38.814  1.00  0.00    -0.356 OA
HETATM   23  C16 UNK     1      32.152  -5.660  38.351  1.00  0.00     0.210 C 
ENDBRANCH  10  22
TORSDOF 4
ENDMDL
MODEL 8
REMARK VINA RESULT:      -7.1      1.427      7.559
REMARK  4 active torsions:
REMARK  status: ('A' for Active; 'I' for Inactive)
REMARK    1  A    between atoms: C5_10  and  O2_2 
REMARK    2  A    between atoms: C9_14  and  O3_3 
REMARK    3  A    between atoms: C15_20  and  O5_5 
REMARK    4  A    between atoms: C3_8  and  C4_9 
ROOT
HETATM    1  O1  UNK     1      18.156   7.508  31.830  1.00  0.00    -0.306 OA
HETATM    2  O4  UNK     1      17.775   4.301  34.314  1.00  0.00    -0.284 OA
HETATM    3  C1  UNK     1      18.260   5.104  32.151  1.00  0.00     0.053 A 
HETATM    4  C2  UNK     1      18.372   6.241  31.353  1.00  0.00     0.090 A 
HETATM    5  C3  UNK     1      17.823   7.664  33.166  1.00  0.00     0.123 A 
HETATM    6  C5  UNK     1      17.675   6.651  34.039  1.00  0.00     0.152 A 
HETATM    7  C6  UNK     1      17.895   5.262  33.567  1.00  0.00     0.220 A 
HETATM    8  C7  UNK     1      18.491   3.837  31.610  1.00  0.00     0.055 A 
HETATM    9  C8  UNK     1      18.716   6.118  30.006  1.00  0.00     0.041 A 
HETATM   10  C9  UNK     1      18.836   3.716  30.262  1.00  0.00     0.069 A 
HETATM   11  C10 UNK     1      18.947   4.853  29.463  1.00  0.00     0.039 A 
ENDROOT
BRANCH   5  12
HETATM   12  C4  UNK     1      17.619   9.073  33.547  1.00  0.00     0.001 A 
HETATM   13  C11 UNK     1      18.715   9.880  33.852  1.00  0.00     0.017 A 
HETATM   14  C13 UNK     1      18.520  11.214  34.214  1.00  0.00     0.037 A 
HETATM   15  C15 UNK     1      17.230  11.740  34.270  1.00  0.00     0.068 A 
HETATM   16  C14 UNK     1      16.134  10.933  33.965  1.00  0.00     0.037 A 
HETATM   17  C12 UNK     1      16.328   9.599  33.603  1.00  0.00     0.017 A 
BRANCH  15  18
HETATM   18  O5  UNK     1      17.040  13.040  34.622  1.00  0.00    -0.356 OA
HETATM   19  C17 UNK     1      16.603  13.295  35.956  1.00  0.00     0.210 C 
ENDBRANCH  15  18
ENDBRANCH   5  12
BRANCH   6  20
HETATM   20  O2  UNK     1      17.312   6.838  35.355  1.00  0.00    -0.355 OA
HETATM   21  H8  UNK     1      16.728   7.610  35.429  1.00  0.00     0.218 HD
ENDBRANCH   6  20
BRANCH  10  22
HETATM   22  O3  UNK     1      19.062   2.486  29.727  1.00  0.00    -0.356 OA
HETATM   23  C16 UNK     1      18.055   1.958  28.863  1.00  0.00     0.210 C 
ENDBRANCH  10  22
TORSDOF 4
ENDMDL
MODEL 9
REMARK VINA RESULT:      -7.1     22.470     24.443
REMARK  4 active torsions:
REMARK  status: ('A' for Active; 'I' for Inactive)
REMARK    1  A    between atoms: C5_10  and  O2_2 
REMARK    2  A    between atoms: C9_14  and  O3_3 
REMARK    3  A    between atoms: C15_20  and  O5_5 
REMARK    4  A    between atoms: C3_8  and  C4_9 
ROOT
HETATM    1  O1  UNK     1      14.292   9.251   8.226  1.00  0.00    -0.306 OA
HETATM    2  O4  UNK     1      16.717   7.738  11.131  1.00  0.00    -0.284 OA
HETATM    3  C1  UNK     1      16.296   9.463   9.579  1.00  0.00     0.053 A 
HETATM    4  C2  UNK     1      15.427   9.925   8.592  1.00  0.00     0.090 A 
HETATM    5  C3  UNK     1      13.991   8.063   8.874  1.00  0.00     0.123 A 
HETATM    6  C5  UNK     1      14.749   7.504   9.836  1.00  0.00     0.152 A 
HETATM    7  C6  UNK     1      15.989   8.198  10.261  1.00  0.00     0.220 A 
HETATM    8  C7  UNK     1      17.440  10.194   9.910  1.00  0.00     0.055 A 
HETATM    9  C8  UNK     1      15.698  11.123   7.929  1.00  0.00     0.041 A 
HETATM   10  C9  UNK     1      17.708  11.392   9.246  1.00  0.00     0.069 A 
HETATM   11  C10 UNK     1      16.839  11.855   8.258  1.00  0.00     0.039 A 
ENDROOT
BRANCH   5  12
HETATM   12  C4  UNK     1      12.747   7.441   8.386  1.00  0.00     0.001 A 
HETATM   13  C11 UNK     1      11.530   7.737   9.001  1.00  0.00     0.017 A 
HETATM   14  C13 UNK     1      10.353   7.146   8.538  1.00  0.00     0.037 A 
HETATM   15  C15 UNK     1      10.394   6.261   7.461  1.00  0.00     0.068 A 
HETATM   16  C14 UNK     1      11.610   5.965   6.846  1.00  0.00     0.037 A 
HETATM   17  C12 UNK     1      12.787   6.556   7.309  1.00  0.00     0.017 A 
BRANCH  15  18
HETATM   18  O5  UNK     1       9.246   5.686   7.010  1.00  0.00    -0.356 OA
HETATM   19  C17 UNK     1       8.099   5.778   7.853  1.00  0.00     0.210 C 
ENDBRANCH  15  18
ENDBRANCH   5  12
BRANCH   6  20
HETATM   20  O2  UNK     1      14.437   6.305  10.438  1.00  0.00    -0.355 OA
HETATM   21  H8  UNK     1      14.060   5.695   9.783  1.00  0.00     0.218 HD
ENDBRANCH   6  20
BRANCH  10  22
HETATM   22  O3  UNK     1      18.820  12.110   9.562  1.00  0.00    -0.356 OA
HETATM   23  C16 UNK     1      19.849  12.181   8.576  1.00  0.00     0.210 C 
ENDBRANCH  10  22
TORSDOF 4
ENDMDL
MODEL 10
REMARK VINA RESULT:      -7.1      1.942      8.107
REMARK  4 active torsions:
REMARK  status: ('A' for Active; 'I' for Inactive)
REMARK    1  A    between atoms: C5_10  and  O2_2 
REMARK    2  A    between atoms: C9_14  and  O3_3 
REMARK    3  A    between atoms: C15_20  and  O5_5 
REMARK    4  A    between atoms: C3_8  and  C4_9 
ROOT
HETATM    1  O1  UNK     1      17.474   9.291  34.265  1.00  0.00    -0.306 OA
HETATM    2  O4  UNK     1      15.518   7.811  31.010  1.00  0.00    -0.284 OA
HETATM    3  C1  UNK     1      17.443   7.773  32.371  1.00  0.00     0.053 A 
HETATM    4  C2  UNK     1      18.060   8.322  33.494  1.00  0.00     0.090 A 
HETATM    5  C3  UNK     1      16.209   9.737  33.917  1.00  0.00     0.123 A 
HETATM    6  C5  UNK     1      15.509   9.297  32.854  1.00  0.00     0.152 A 
HETATM    7  C6  UNK     1      16.106   8.251  31.990  1.00  0.00     0.220 A 
HETATM    8  C7  UNK     1      18.090   6.786  31.623  1.00  0.00     0.055 A 
HETATM    9  C8  UNK     1      19.330   7.886  33.875  1.00  0.00     0.041 A 
HETATM   10  C9  UNK     1      19.360   6.352  32.007  1.00  0.00     0.069 A 
HETATM   11  C10 UNK     1      19.978   6.900  33.130  1.00  0.00     0.039 A 
ENDROOT
BRANCH   5  12
HETATM   12  C4  UNK     1      15.696  10.778  34.826  1.00  0.00     0.001 A 
HETATM   13  C11 UNK     1      14.560  10.534  35.597  1.00  0.00     0.017 A 
HETATM   14  C13 UNK     1      14.075  11.520  36.457  1.00  0.00     0.037 A 
HETATM   15  C15 UNK     1      14.727  12.751  36.544  1.00  0.00     0.068 A 
HETATM   16  C14 UNK     1      15.862  12.995  35.773  1.00  0.00     0.037 A 
HETATM   17  C12 UNK     1      16.347  12.009  34.913  1.00  0.00     0.017 A 
BRANCH  15  18
HETATM   18  O5  UNK     1      14.253  13.712  37.382  1.00  0.00    -0.356 OA
HETATM   19  C17 UNK     1      15.170  14.257  38.330  1.00  0.00     0.210 C 
ENDBRANCH  15  18
ENDBRANCH   5  12
BRANCH   6  20
HETATM   20  O2  UNK     1      14.266   9.784  32.518  1.00  0.00    -0.355 OA
HETATM   21  H8  UNK     1      14.317  10.267  31.677  1.00  0.00     0.218 HD
ENDBRANCH   6  20
BRANCH  10  22
HETATM   22  O3  UNK     1      19.997   5.391  31.283  1.00  0.00    -0.356 OA
HETATM   23  C16 UNK     1      19.224   4.695  30.306  1.00  0.00     0.210 C 
ENDBRANCH  10  22
TORSDOF 4
ENDMDL
