MODEL 1
REMARK VINA RESULT:      -8.2      0.000      0.000
REMARK  4 active torsions:
REMARK  status: ('A' for Active; 'I' for Inactive)
REMARK    1  A    between atoms: C5_13  and  O1_1 
REMARK    2  A    between atoms: C7_15  and  O1_1 
REMARK    3  A    between atoms: C17_25  and  O6_6 
REMARK       I    between atoms: C5_13  and  N1_7 
REMARK       I    between atoms: C6_14  and  N2_8 
REMARK    4  A    between atoms: C6_14  and  C8_16 
ROOT
HETATM    1  O2  UNK     1      18.517  13.102   8.799  1.00  0.00    -0.238 OA
HETATM    2  O3  UNK     1      15.924   6.892   9.686  1.00  0.00    -0.267 OA
HETATM    3  N1  UNK     1      16.814  11.561   8.454  1.00  0.00    -0.325 N 
HETATM    4  N2  UNK     1      15.604   9.179   9.407  1.00  0.00    -0.345 N 
HETATM    5  C1  UNK     1      15.431  11.258   8.073  1.00  0.00     0.148 C 
HETATM    6  C2  UNK     1      17.646  10.393   8.736  1.00  0.00     0.148 C 
HETATM    7  C3  UNK     1      14.763  10.349   9.104  1.00  0.00     0.146 C 
HETATM    8  C4  UNK     1      16.985   9.505   9.783  1.00  0.00     0.146 C 
HETATM    9  C5  UNK     1      17.357  12.847   8.480  1.00  0.00     0.363 C 
HETATM   10  C6  UNK     1      15.192   7.850   9.427  1.00  0.00     0.260 C 
ENDROOT
BRANCH  10  11
HETATM   11  C8  UNK     1      13.776   7.563   9.122  1.00  0.00     0.108 A 
HETATM   12  C12 UNK     1      13.512   7.149   7.876  1.00  0.00     0.037 A 
HETATM   13  C14 UNK     1      12.146   6.842   7.480  1.00  0.00     0.002 A 
HETATM   14  C15 UNK     1      11.126   6.987   8.414  1.00  0.00     0.123 A 
HETATM   15  C16 UNK     1      11.825   6.407   6.192  1.00  0.00     0.014 A 
HETATM   16  O4  UNK     1      11.410   7.423   9.723  1.00  0.00    -0.271 OA
HETATM   17  C17 UNK     1       9.797   6.709   8.098  1.00  0.00     0.102 A 
HETATM   18  C13 UNK     1      12.706   7.723  10.132  1.00  0.00     0.304 A 
HETATM   19  O5  UNK     1      12.945   8.101  11.274  1.00  0.00    -0.259 OA
HETATM   20  C19 UNK     1       9.485   6.275   6.812  1.00  0.00     0.040 A 
HETATM   21  C18 UNK     1      10.496   6.124   5.860  1.00  0.00     0.004 A 
BRANCH  17  22
HETATM   22  O6  UNK     1       8.810   6.855   9.021  1.00  0.00    -0.353 OA
HETATM   23  C20 UNK     1       7.626   7.537   8.607  1.00  0.00     0.210 C 
ENDBRANCH  17  22
ENDBRANCH  10  11
BRANCH   9  24
HETATM   24  O1  UNK     1      16.456  13.809   8.109  1.00  0.00    -0.294 OA
BRANCH  24  25
HETATM   25  C7  UNK     1      16.775  14.549   6.926  1.00  0.00     0.061 C 
HETATM   26  C10 UNK     1      15.477  14.753   6.146  1.00  0.00     0.046 C 
HETATM   27  C11 UNK     1      17.369  15.895   7.339  1.00  0.00     0.046 C 
HETATM   28  C9  UNK     1      17.776  13.742   6.101  1.00  0.00     0.046 C 
ENDBRANCH  24  25
ENDBRANCH   9  24
TORSDOF 4
ENDMDL
MODEL 2
REMARK VINA RESULT:      -7.6     34.598     37.141
REMARK  4 active torsions:
REMARK  status: ('A' for Active; 'I' for Inactive)
REMARK    1  A    between atoms: C5_13  and  O1_1 
REMARK    2  A    between atoms: C7_15  and  O1_1 
REMARK    3  A    between atoms: C17_25  and  O6_6 
REMARK       I    between atoms: C5_13  and  N1_7 
REMARK       I    between atoms: C6_14  and  N2_8 
REMARK    4  A    between atoms: C6_14  and  C8_16 
ROOT
HETATM    1  O2  UNK     1      36.256  -7.018  31.624  1.00  0.00    -0.238 OA
HETATM    2  O3  UNK     1      34.642  -7.074  38.218  1.00  0.00    -0.267 OA
HETATM    3  N1  UNK     1      34.685  -7.296  33.313  1.00  0.00    -0.325 N 
HETATM    4  N2  UNK     1      34.033  -6.690  36.006  1.00  0.00    -0.345 N 
HETATM    5  C1  UNK     1      33.288  -7.382  33.749  1.00  0.00     0.148 C 
HETATM    6  C2  UNK     1      35.674  -7.529  34.363  1.00  0.00     0.148 C 
HETATM    7  C3  UNK     1      33.030  -6.474  34.951  1.00  0.00     0.146 C 
HETATM    8  C4  UNK     1      35.425  -6.603  35.548  1.00  0.00     0.146 C 
HETATM    9  C5  UNK     1      35.084  -7.089  31.991  1.00  0.00     0.363 C 
HETATM   10  C6  UNK     1      33.776  -6.897  37.359  1.00  0.00     0.260 C 
ENDROOT
BRANCH  10  11
HETATM   11  C8  UNK     1      32.367  -6.900  37.799  1.00  0.00     0.108 A 
HETATM   12  C12 UNK     1      31.758  -8.091  37.824  1.00  0.00     0.037 A 
HETATM   13  C14 UNK     1      30.369  -8.196  38.244  1.00  0.00     0.002 A 
HETATM   14  C15 UNK     1      29.690  -7.040  38.617  1.00  0.00     0.123 A 
HETATM   15  C16 UNK     1      29.693  -9.418  38.285  1.00  0.00     0.014 A 
HETATM   16  O4  UNK     1      30.337  -5.790  38.589  1.00  0.00    -0.271 OA
HETATM   17  C17 UNK     1      28.359  -7.072  39.029  1.00  0.00     0.102 A 
HETATM   18  C13 UNK     1      31.665  -5.657  38.193  1.00  0.00     0.304 A 
HETATM   19  O5  UNK     1      32.220  -4.565  38.173  1.00  0.00    -0.259 OA
HETATM   20  C19 UNK     1      27.693  -8.295  39.067  1.00  0.00     0.040 A 
HETATM   21  C18 UNK     1      28.358  -9.466  38.696  1.00  0.00     0.004 A 
BRANCH  17  22
HETATM   22  O6  UNK     1      27.708  -5.935  39.391  1.00  0.00    -0.353 OA
HETATM   23  C20 UNK     1      26.566  -5.565  38.618  1.00  0.00     0.210 C 
ENDBRANCH  17  22
ENDBRANCH  10  11
BRANCH   9  24
HETATM   24  O1  UNK     1      34.025  -6.974  31.131  1.00  0.00    -0.294 OA
BRANCH  24  25
HETATM   25  C7  UNK     1      33.939  -7.962  30.099  1.00  0.00     0.061 C 
HETATM   26  C10 UNK     1      34.796  -7.483  28.929  1.00  0.00     0.046 C 
HETATM   27  C11 UNK     1      34.470  -9.287  30.646  1.00  0.00     0.046 C 
HETATM   28  C9  UNK     1      32.477  -8.096  29.674  1.00  0.00     0.046 C 
ENDBRANCH  24  25
ENDBRANCH   9  24
TORSDOF 4
ENDMDL
MODEL 3
REMARK VINA RESULT:      -7.6     33.485     36.152
REMARK  4 active torsions:
REMARK  status: ('A' for Active; 'I' for Inactive)
REMARK    1  A    between atoms: C5_13  and  O1_1 
REMARK    2  A    between atoms: C7_15  and  O1_1 
REMARK    3  A    between atoms: C17_25  and  O6_6 
REMARK       I    between atoms: C5_13  and  N1_7 
REMARK       I    between atoms: C6_14  and  N2_8 
REMARK    4  A    between atoms: C6_14  and  C8_16 
ROOT
HETATM    1  O2  UNK     1      31.857 -10.597  29.496  1.00  0.00    -0.238 OA
HETATM    2  O3  UNK     1      33.468  -8.140  35.615  1.00  0.00    -0.267 OA
HETATM    3  N1  UNK     1      31.259 -10.071  31.678  1.00  0.00    -0.325 N 
HETATM    4  N2  UNK     1      31.888  -8.483  33.943  1.00  0.00    -0.345 N 
HETATM    5  C1  UNK     1      30.227  -9.825  32.690  1.00  0.00     0.148 C 
HETATM    6  C2  UNK     1      32.632 -10.040  32.177  1.00  0.00     0.148 C 
HETATM    7  C3  UNK     1      30.500  -8.529  33.452  1.00  0.00     0.146 C 
HETATM    8  C4  UNK     1      32.905  -8.734  32.915  1.00  0.00     0.146 C 
HETATM    9  C5  UNK     1      30.991 -10.391  30.346  1.00  0.00     0.363 C 
HETATM   10  C6  UNK     1      32.295  -8.169  35.237  1.00  0.00     0.260 C 
ENDROOT
BRANCH  10  11
HETATM   11  C8  UNK     1      31.250  -7.844  36.227  1.00  0.00     0.108 A 
HETATM   12  C12 UNK     1      30.710  -8.881  36.879  1.00  0.00     0.037 A 
HETATM   13  C14 UNK     1      29.672  -8.660  37.875  1.00  0.00     0.002 A 
HETATM   14  C15 UNK     1      29.255  -7.359  38.135  1.00  0.00     0.123 A 
HETATM   15  C16 UNK     1      29.080  -9.712  38.579  1.00  0.00     0.014 A 
HETATM   16  O4  UNK     1      29.827  -6.273  37.446  1.00  0.00    -0.271 OA
HETATM   17  C17 UNK     1      28.265  -7.081  39.076  1.00  0.00     0.102 A 
HETATM   18  C13 UNK     1      30.822  -6.451  36.489  1.00  0.00     0.304 A 
HETATM   19  O5  UNK     1      31.316  -5.499  35.895  1.00  0.00    -0.259 OA
HETATM   20  C19 UNK     1      27.681  -8.135  39.774  1.00  0.00     0.040 A 
HETATM   21  C18 UNK     1      28.087  -9.449  39.526  1.00  0.00     0.004 A 
BRANCH  17  22
HETATM   22  O6  UNK     1      27.867  -5.804  39.320  1.00  0.00    -0.353 OA
HETATM   23  C20 UNK     1      26.661  -5.367  38.694  1.00  0.00     0.210 C 
ENDBRANCH  17  22
ENDBRANCH  10  11
BRANCH   9  24
HETATM   24  O1  UNK     1      29.651 -10.455  30.076  1.00  0.00    -0.294 OA
BRANCH  24  25
HETATM   25  C7  UNK     1      29.126  -9.425  29.231  1.00  0.00     0.061 C 
HETATM   26  C10 UNK     1      28.821 -10.054  27.873  1.00  0.00     0.046 C 
HETATM   27  C11 UNK     1      27.849  -8.877  29.867  1.00  0.00     0.046 C 
HETATM   28  C9  UNK     1      30.179  -8.327  29.091  1.00  0.00     0.046 C 
ENDBRANCH  24  25
ENDBRANCH   9  24
TORSDOF 4
ENDMDL
MODEL 4
REMARK VINA RESULT:      -7.5     35.731     36.978
REMARK  4 active torsions:
REMARK  status: ('A' for Active; 'I' for Inactive)
REMARK    1  A    between atoms: C5_13  and  O1_1 
REMARK    2  A    between atoms: C7_15  and  O1_1 
REMARK    3  A    between atoms: C17_25  and  O6_6 
REMARK       I    between atoms: C5_13  and  N1_7 
REMARK       I    between atoms: C6_14  and  N2_8 
REMARK    4  A    between atoms: C6_14  and  C8_16 
ROOT
HETATM    1  O2  UNK     1      35.721  -6.193  33.152  1.00  0.00    -0.238 OA
HETATM    2  O3  UNK     1      32.345  -5.170  38.952  1.00  0.00    -0.267 OA
HETATM    3  N1  UNK     1      33.932  -6.672  34.555  1.00  0.00    -0.325 N 
HETATM    4  N2  UNK     1      32.330  -5.713  36.690  1.00  0.00    -0.345 N 
HETATM    5  C1  UNK     1      32.601  -7.249  34.767  1.00  0.00     0.148 C 
HETATM    6  C2  UNK     1      34.575  -6.145  35.757  1.00  0.00     0.148 C 
HETATM    7  C3  UNK     1      31.682  -6.262  35.487  1.00  0.00     0.146 C 
HETATM    8  C4  UNK     1      33.662  -5.144  36.457  1.00  0.00     0.146 C 
HETATM    9  C5  UNK     1      34.604  -6.676  33.331  1.00  0.00     0.363 C 
HETATM   10  C6  UNK     1      31.774  -5.637  37.964  1.00  0.00     0.260 C 
ENDROOT
BRANCH  10  11
HETATM   11  C8  UNK     1      30.401  -6.147  38.148  1.00  0.00     0.108 A 
HETATM   12  C12 UNK     1      30.283  -7.465  38.352  1.00  0.00     0.037 A 
HETATM   13  C14 UNK     1      28.970  -8.061  38.544  1.00  0.00     0.002 A 
HETATM   14  C15 UNK     1      27.846  -7.241  38.511  1.00  0.00     0.123 A 
HETATM   15  C16 UNK     1      28.798  -9.431  38.760  1.00  0.00     0.014 A 
HETATM   16  O4  UNK     1      27.978  -5.856  38.295  1.00  0.00    -0.271 OA
HETATM   17  C17 UNK     1      26.561  -7.750  38.687  1.00  0.00     0.102 A 
HETATM   18  C13 UNK     1      29.220  -5.256  38.110  1.00  0.00     0.304 A 
HETATM   19  O5  UNK     1      29.325  -4.049  37.924  1.00  0.00    -0.259 OA
HETATM   20  C19 UNK     1      26.399  -9.117  38.903  1.00  0.00     0.040 A 
HETATM   21  C18 UNK     1      27.515  -9.956  38.939  1.00  0.00     0.004 A 
BRANCH  17  22
HETATM   22  O6  UNK     1      25.472  -6.937  38.652  1.00  0.00    -0.353 OA
HETATM   23  C20 UNK     1      24.208  -7.527  38.957  1.00  0.00     0.210 C 
ENDBRANCH  17  22
ENDBRANCH  10  11
BRANCH   9  24
HETATM   24  O1  UNK     1      33.886  -7.283  32.336  1.00  0.00    -0.294 OA
BRANCH  24  25
HETATM   25  C7  UNK     1      34.405  -8.525  31.849  1.00  0.00     0.061 C 
HETATM   26  C10 UNK     1      33.219  -9.454  31.597  1.00  0.00     0.046 C 
HETATM   27  C11 UNK     1      35.164  -8.260  30.550  1.00  0.00     0.046 C 
HETATM   28  C9  UNK     1      35.332  -9.114  32.911  1.00  0.00     0.046 C 
ENDBRANCH  24  25
ENDBRANCH   9  24
TORSDOF 4
ENDMDL
MODEL 5
REMARK VINA RESULT:      -7.5     34.592     37.166
REMARK  4 active torsions:
REMARK  status: ('A' for Active; 'I' for Inactive)
REMARK    1  A    between atoms: C5_13  and  O1_1 
REMARK    2  A    between atoms: C7_15  and  O1_1 
REMARK    3  A    between atoms: C17_25  and  O6_6 
REMARK       I    between atoms: C5_13  and  N1_7 
REMARK       I    between atoms: C6_14  and  N2_8 
REMARK    4  A    between atoms: C6_14  and  C8_16 
ROOT
HETATM    1  O2  UNK     1      36.367  -6.163  31.509  1.00  0.00    -0.238 OA
HETATM    2  O3  UNK     1      34.403  -6.179  38.007  1.00  0.00    -0.267 OA
HETATM    3  N1  UNK     1      34.891  -6.847  33.167  1.00  0.00    -0.325 N 
HETATM    4  N2  UNK     1      33.862  -6.271  35.746  1.00  0.00    -0.345 N 
HETATM    5  C1  UNK     1      33.597  -7.411  33.565  1.00  0.00     0.148 C 
HETATM    6  C2  UNK     1      35.814  -6.586  34.269  1.00  0.00     0.148 C 
HETATM    7  C3  UNK     1      32.931  -6.554  34.641  1.00  0.00     0.146 C 
HETATM    8  C4  UNK     1      35.151  -5.711  35.327  1.00  0.00     0.146 C 
HETATM    9  C5  UNK     1      35.281  -6.636  31.843  1.00  0.00     0.363 C 
HETATM   10  C6  UNK     1      33.600  -6.426  37.105  1.00  0.00     0.260 C 
ENDROOT
BRANCH  10  11
HETATM   11  C8  UNK     1      32.264  -6.917  37.497  1.00  0.00     0.108 A 
HETATM   12  C12 UNK     1      31.421  -6.004  37.995  1.00  0.00     0.037 A 
HETATM   13  C14 UNK     1      30.082  -6.392  38.410  1.00  0.00     0.002 A 
HETATM   14  C15 UNK     1      29.696  -7.722  38.281  1.00  0.00     0.123 A 
HETATM   15  C16 UNK     1      29.169  -5.473  38.935  1.00  0.00     0.014 A 
HETATM   16  O4  UNK     1      30.588  -8.678  37.756  1.00  0.00    -0.271 OA
HETATM   17  C17 UNK     1      28.428  -8.159  38.660  1.00  0.00     0.102 A 
HETATM   18  C13 UNK     1      31.875  -8.338  37.350  1.00  0.00     0.304 A 
HETATM   19  O5  UNK     1      32.644  -9.176  36.893  1.00  0.00    -0.259 OA
HETATM   20  C19 UNK     1      27.524  -7.236  39.181  1.00  0.00     0.040 A 
HETATM   21  C18 UNK     1      27.893  -5.896  39.319  1.00  0.00     0.004 A 
BRANCH  17  22
HETATM   22  O6  UNK     1      28.065  -9.462  38.528  1.00  0.00    -0.353 OA
HETATM   23  C20 UNK     1      27.590 -10.128  39.698  1.00  0.00     0.210 C 
ENDBRANCH  17  22
ENDBRANCH  10  11
BRANCH   9  24
HETATM   24  O1  UNK     1      34.322  -7.013  30.942  1.00  0.00    -0.294 OA
BRANCH  24  25
HETATM   25  C7  UNK     1      34.653  -8.117  30.092  1.00  0.00     0.061 C 
HETATM   26  C10 UNK     1      35.208  -7.546  28.789  1.00  0.00     0.046 C 
HETATM   27  C11 UNK     1      35.705  -8.974  30.795  1.00  0.00     0.046 C 
HETATM   28  C9  UNK     1      33.382  -8.924  29.828  1.00  0.00     0.046 C 
ENDBRANCH  24  25
ENDBRANCH   9  24
TORSDOF 4
ENDMDL
MODEL 6
REMARK VINA RESULT:      -7.5     23.802     26.608
REMARK  4 active torsions:
REMARK  status: ('A' for Active; 'I' for Inactive)
REMARK    1  A    between atoms: C5_13  and  O1_1 
REMARK    2  A    between atoms: C7_15  and  O1_1 
REMARK    3  A    between atoms: C17_25  and  O6_6 
REMARK       I    between atoms: C5_13  and  N1_7 
REMARK       I    between atoms: C6_14  and  N2_8 
REMARK    4  A    between atoms: C6_14  and  C8_16 
ROOT
HETATM    1  O2  UNK     1      18.444  -1.355  32.330  1.00  0.00    -0.238 OA
HETATM    2  O3  UNK     1      19.503   4.811  29.695  1.00  0.00    -0.267 OA
HETATM    3  N1  UNK     1      18.612   0.947  32.591  1.00  0.00    -0.325 N 
HETATM    4  N2  UNK     1      18.463   3.454  31.273  1.00  0.00    -0.345 N 
HETATM    5  C1  UNK     1      18.370   2.158  33.381  1.00  0.00     0.148 C 
HETATM    6  C2  UNK     1      19.363   1.156  31.355  1.00  0.00     0.148 C 
HETATM    7  C3  UNK     1      17.723   3.250  32.529  1.00  0.00     0.146 C 
HETATM    8  C4  UNK     1      18.697   2.229  30.500  1.00  0.00     0.146 C 
HETATM    9  C5  UNK     1      18.241  -0.338  32.991  1.00  0.00     0.363 C 
HETATM   10  C6  UNK     1      18.884   4.675  30.753  1.00  0.00     0.260 C 
ENDROOT
BRANCH  10  11
HETATM   11  C8  UNK     1      18.563   5.897  31.517  1.00  0.00     0.108 A 
HETATM   12  C12 UNK     1      17.311   6.356  31.399  1.00  0.00     0.037 A 
HETATM   13  C14 UNK     1      16.900   7.554  32.114  1.00  0.00     0.002 A 
HETATM   14  C15 UNK     1      17.827   8.210  32.917  1.00  0.00     0.123 A 
HETATM   15  C16 UNK     1      15.604   8.069  32.021  1.00  0.00     0.014 A 
HETATM   16  O4  UNK     1      19.142   7.722  33.037  1.00  0.00    -0.271 OA
HETATM   17  C17 UNK     1      17.496   9.363  33.628  1.00  0.00     0.102 A 
HETATM   18  C13 UNK     1      19.566   6.578  32.366  1.00  0.00     0.304 A 
HETATM   19  O5  UNK     1      20.712   6.160  32.477  1.00  0.00    -0.259 OA
HETATM   20  C19 UNK     1      16.202   9.869  33.530  1.00  0.00     0.040 A 
HETATM   21  C18 UNK     1      15.257   9.224  32.728  1.00  0.00     0.004 A 
BRANCH  17  22
HETATM   22  O6  UNK     1      18.413   9.994  34.409  1.00  0.00    -0.353 OA
HETATM   23  C20 UNK     1      18.660  11.374  34.137  1.00  0.00     0.210 C 
ENDBRANCH  17  22
ENDBRANCH  10  11
BRANCH   9  24
HETATM   24  O1  UNK     1      17.622  -0.353  34.212  1.00  0.00    -0.294 OA
BRANCH  24  25
HETATM   25  C7  UNK     1      18.400  -0.842  35.310  1.00  0.00     0.061 C 
HETATM   26  C10 UNK     1      17.473  -1.663  36.203  1.00  0.00     0.046 C 
HETATM   27  C11 UNK     1      19.526  -1.715  34.758  1.00  0.00     0.046 C 
HETATM   28  C9  UNK     1      18.964   0.354  36.076  1.00  0.00     0.046 C 
ENDBRANCH  24  25
ENDBRANCH   9  24
TORSDOF 4
ENDMDL
MODEL 7
REMARK VINA RESULT:      -7.5     35.268     37.470
REMARK  4 active torsions:
REMARK  status: ('A' for Active; 'I' for Inactive)
REMARK    1  A    between atoms: C5_13  and  O1_1 
REMARK    2  A    between atoms: C7_15  and  O1_1 
REMARK    3  A    between atoms: C17_25  and  O6_6 
REMARK       I    between atoms: C5_13  and  N1_7 
REMARK       I    between atoms: C6_14  and  N2_8 
REMARK    4  A    between atoms: C6_14  and  C8_16 
ROOT
HETATM    1  O2  UNK     1      28.064  -6.252  39.780  1.00  0.00    -0.238 OA
HETATM    2  O3  UNK     1      32.851  -3.534  35.807  1.00  0.00    -0.267 OA
HETATM    3  N1  UNK     1      29.537  -6.425  37.991  1.00  0.00    -0.325 N 
HETATM    4  N2  UNK     1      31.913  -5.402  36.829  1.00  0.00    -0.345 N 
HETATM    5  C1  UNK     1      30.272  -7.245  37.024  1.00  0.00     0.148 C 
HETATM    6  C2  UNK     1      29.692  -4.982  37.820  1.00  0.00     0.148 C 
HETATM    7  C3  UNK     1      31.750  -6.857  36.983  1.00  0.00     0.146 C 
HETATM    8  C4  UNK     1      31.167  -4.599  37.805  1.00  0.00     0.146 C 
HETATM    9  C5  UNK     1      28.682  -6.939  38.967  1.00  0.00     0.363 C 
HETATM   10  C6  UNK     1      32.737  -4.757  35.909  1.00  0.00     0.260 C 
ENDROOT
BRANCH  10  11
HETATM   11  C8  UNK     1      33.535  -5.596  34.994  1.00  0.00     0.108 A 
HETATM   12  C12 UNK     1      32.898  -6.063  33.913  1.00  0.00     0.037 A 
HETATM   13  C14 UNK     1      33.601  -6.899  32.952  1.00  0.00     0.002 A 
HETATM   14  C15 UNK     1      34.940  -7.203  33.176  1.00  0.00     0.123 A 
HETATM   15  C16 UNK     1      32.976  -7.409  31.810  1.00  0.00     0.014 A 
HETATM   16  O4  UNK     1      35.604  -6.708  34.315  1.00  0.00    -0.271 OA
HETATM   17  C17 UNK     1      35.670  -7.998  32.295  1.00  0.00     0.102 A 
HETATM   18  C13 UNK     1      34.959  -5.905  35.252  1.00  0.00     0.304 A 
HETATM   19  O5  UNK     1      35.546  -5.478  36.239  1.00  0.00    -0.259 OA
HETATM   20  C19 UNK     1      35.039  -8.501  31.159  1.00  0.00     0.040 A 
HETATM   21  C18 UNK     1      33.695  -8.207  30.917  1.00  0.00     0.004 A 
BRANCH  17  22
HETATM   22  O6  UNK     1      36.978  -8.286  32.526  1.00  0.00    -0.353 OA
HETATM   23  C20 UNK     1      37.310  -9.653  32.771  1.00  0.00     0.210 C 
ENDBRANCH  17  22
ENDBRANCH  10  11
BRANCH   9  24
HETATM   24  O1  UNK     1      28.596  -8.305  38.929  1.00  0.00    -0.294 OA
BRANCH  24  25
HETATM   25  C7  UNK     1      27.310  -8.849  38.611  1.00  0.00     0.061 C 
HETATM   26  C10 UNK     1      26.947  -9.846  39.709  1.00  0.00     0.046 C 
HETATM   27  C11 UNK     1      26.296  -7.707  38.566  1.00  0.00     0.046 C 
HETATM   28  C9  UNK     1      27.401  -9.550  37.256  1.00  0.00     0.046 C 
ENDBRANCH  24  25
ENDBRANCH   9  24
TORSDOF 4
ENDMDL
MODEL 8
REMARK VINA RESULT:      -7.5     33.237     36.039
REMARK  4 active torsions:
REMARK  status: ('A' for Active; 'I' for Inactive)
REMARK    1  A    between atoms: C5_13  and  O1_1 
REMARK    2  A    between atoms: C7_15  and  O1_1 
REMARK    3  A    between atoms: C17_25  and  O6_6 
REMARK       I    between atoms: C5_13  and  N1_7 
REMARK       I    between atoms: C6_14  and  N2_8 
REMARK    4  A    between atoms: C6_14  and  C8_16 
ROOT
HETATM    1  O2  UNK     1      31.816 -10.756  29.197  1.00  0.00    -0.238 OA
HETATM    2  O3  UNK     1      34.070  -8.018  34.985  1.00  0.00    -0.267 OA
HETATM    3  N1  UNK     1      31.440 -10.077  31.387  1.00  0.00    -0.325 N 
HETATM    4  N2  UNK     1      32.333  -8.389  33.484  1.00  0.00    -0.345 N 
HETATM    5  C1  UNK     1      30.514  -9.727  32.469  1.00  0.00     0.148 C 
HETATM    6  C2  UNK     1      32.852 -10.078  31.760  1.00  0.00     0.148 C 
HETATM    7  C3  UNK     1      30.906  -8.402  33.122  1.00  0.00     0.146 C 
HETATM    8  C4  UNK     1      33.242  -8.744  32.388  1.00  0.00     0.146 C 
HETATM    9  C5  UNK     1      31.040 -10.462  30.106  1.00  0.00     0.363 C 
HETATM   10  C6  UNK     1      32.868  -8.018  34.715  1.00  0.00     0.260 C 
ENDROOT
BRANCH  10  11
HETATM   11  C8  UNK     1      31.931  -7.590  35.772  1.00  0.00     0.108 A 
HETATM   12  C12 UNK     1      31.842  -6.271  35.985  1.00  0.00     0.037 A 
HETATM   13  C14 UNK     1      30.946  -5.752  37.006  1.00  0.00     0.002 A 
HETATM   14  C15 UNK     1      30.187  -6.647  37.753  1.00  0.00     0.123 A 
HETATM   15  C16 UNK     1      30.821  -4.384  37.263  1.00  0.00     0.014 A 
HETATM   16  O4  UNK     1      30.284  -8.033  37.524  1.00  0.00    -0.271 OA
HETATM   17  C17 UNK     1      29.309  -6.214  38.746  1.00  0.00     0.102 A 
HETATM   18  C13 UNK     1      31.132  -8.560  36.554  1.00  0.00     0.304 A 
HETATM   19  O5  UNK     1      31.209  -9.768  36.361  1.00  0.00    -0.259 OA
HETATM   20  C19 UNK     1      29.191  -4.849  38.995  1.00  0.00     0.040 A 
HETATM   21  C18 UNK     1      29.945  -3.935  38.255  1.00  0.00     0.004 A 
BRANCH  17  22
HETATM   22  O6  UNK     1      28.573  -7.100  39.468  1.00  0.00    -0.353 OA
HETATM   23  C20 UNK     1      27.257  -7.390  38.998  1.00  0.00     0.210 C 
ENDBRANCH  17  22
ENDBRANCH  10  11
BRANCH   9  24
HETATM   24  O1  UNK     1      29.679 -10.483  29.960  1.00  0.00    -0.294 OA
BRANCH  24  25
HETATM   25  C7  UNK     1      29.115  -9.449  29.146  1.00  0.00     0.061 C 
HETATM   26  C10 UNK     1      28.694 -10.083  27.822  1.00  0.00     0.046 C 
HETATM   27  C11 UNK     1      27.903  -8.866  29.871  1.00  0.00     0.046 C 
HETATM   28  C9  UNK     1      30.179  -8.377  28.915  1.00  0.00     0.046 C 
ENDBRANCH  24  25
ENDBRANCH   9  24
TORSDOF 4
ENDMDL
MODEL 9
REMARK VINA RESULT:      -7.3     33.086     35.949
REMARK  4 active torsions:
REMARK  status: ('A' for Active; 'I' for Inactive)
REMARK    1  A    between atoms: C5_13  and  O1_1 
REMARK    2  A    between atoms: C7_15  and  O1_1 
REMARK    3  A    between atoms: C17_25  and  O6_6 
REMARK       I    between atoms: C5_13  and  N1_7 
REMARK       I    between atoms: C6_14  and  N2_8 
REMARK    4  A    between atoms: C6_14  and  C8_16 
ROOT
HETATM    1  O2  UNK     1      27.946  -5.747  38.986  1.00  0.00    -0.238 OA
HETATM    2  O3  UNK     1      33.497  -5.943  35.085  1.00  0.00    -0.267 OA
HETATM    3  N1  UNK     1      28.962  -6.201  36.947  1.00  0.00    -0.325 N 
HETATM    4  N2  UNK     1      31.413  -6.804  35.653  1.00  0.00    -0.345 N 
HETATM    5  C1  UNK     1      28.937  -6.842  35.629  1.00  0.00     0.148 C 
HETATM    6  C2  UNK     1      30.136  -5.372  37.208  1.00  0.00     0.148 C 
HETATM    7  C3  UNK     1      30.224  -7.627  35.375  1.00  0.00     0.146 C 
HETATM    8  C4  UNK     1      31.416  -6.169  36.976  1.00  0.00     0.146 C 
HETATM    9  C5  UNK     1      27.926  -6.285  37.880  1.00  0.00     0.363 C 
HETATM   10  C6  UNK     1      32.516  -6.640  34.820  1.00  0.00     0.260 C 
ENDROOT
BRANCH  10  11
HETATM   11  C8  UNK     1      32.517  -7.357  33.530  1.00  0.00     0.108 A 
HETATM   12  C12 UNK     1      31.936  -6.725  32.503  1.00  0.00     0.037 A 
HETATM   13  C14 UNK     1      31.886  -7.350  31.190  1.00  0.00     0.002 A 
HETATM   14  C15 UNK     1      32.451  -8.611  31.024  1.00  0.00     0.123 A 
HETATM   15  C16 UNK     1      31.290  -6.728  30.090  1.00  0.00     0.014 A 
HETATM   16  O4  UNK     1      33.062  -9.270  32.108  1.00  0.00    -0.271 OA
HETATM   17  C17 UNK     1      32.437  -9.264  29.793  1.00  0.00     0.102 A 
HETATM   18  C13 UNK     1      33.125  -8.697  33.375  1.00  0.00     0.304 A 
HETATM   19  O5  UNK     1      33.660  -9.278  34.313  1.00  0.00    -0.259 OA
HETATM   20  C19 UNK     1      31.842  -8.637  28.702  1.00  0.00     0.040 A 
HETATM   21  C18 UNK     1      31.268  -7.371  28.849  1.00  0.00     0.004 A 
BRANCH  17  22
HETATM   22  O6  UNK     1      32.993 -10.496  29.645  1.00  0.00    -0.353 OA
HETATM   23  C20 UNK     1      32.137 -11.624  29.827  1.00  0.00     0.210 C 
ENDBRANCH  17  22
ENDBRANCH  10  11
BRANCH   9  24
HETATM   24  O1  UNK     1      26.872  -7.035  37.434  1.00  0.00    -0.294 OA
BRANCH  24  25
HETATM   25  C7  UNK     1      26.705  -8.319  38.045  1.00  0.00     0.061 C 
HETATM   26  C10 UNK     1      26.524  -9.342  36.926  1.00  0.00     0.046 C 
HETATM   27  C11 UNK     1      27.957  -8.635  38.863  1.00  0.00     0.046 C 
HETATM   28  C9  UNK     1      25.467  -8.275  38.939  1.00  0.00     0.046 C 
ENDBRANCH  24  25
ENDBRANCH   9  24
TORSDOF 4
ENDMDL
MODEL 10
REMARK VINA RESULT:      -7.3     35.307     37.589
REMARK  4 active torsions:
REMARK  status: ('A' for Active; 'I' for Inactive)
REMARK    1  A    between atoms: C5_13  and  O1_1 
REMARK    2  A    between atoms: C7_15  and  O1_1 
REMARK    3  A    between atoms: C17_25  and  O6_6 
REMARK       I    between atoms: C5_13  and  N1_7 
REMARK       I    between atoms: C6_14  and  N2_8 
REMARK    4  A    between atoms: C6_14  and  C8_16 
ROOT
HETATM    1  O2  UNK     1      27.649  -6.581  40.197  1.00  0.00    -0.238 OA
HETATM    2  O3  UNK     1      32.239  -3.354  36.377  1.00  0.00    -0.267 OA
HETATM    3  N1  UNK     1      29.083  -6.544  38.370  1.00  0.00    -0.325 N 
HETATM    4  N2  UNK     1      31.393  -5.336  37.251  1.00  0.00    -0.345 N 
HETATM    5  C1  UNK     1      29.823  -7.249  37.319  1.00  0.00     0.148 C 
HETATM    6  C2  UNK     1      29.183  -5.087  38.322  1.00  0.00     0.148 C 
HETATM    7  C3  UNK     1      31.285  -6.804  37.281  1.00  0.00     0.146 C 
HETATM    8  C4  UNK     1      30.643  -4.650  38.309  1.00  0.00     0.146 C 
HETATM    9  C5  UNK     1      28.271  -7.172  39.315  1.00  0.00     0.363 C 
HETATM   10  C6  UNK     1      32.170  -4.584  36.374  1.00  0.00     0.260 C 
ENDROOT
BRANCH  10  11
HETATM   11  C8  UNK     1      32.975  -5.310  35.372  1.00  0.00     0.108 A 
HETATM   12  C12 UNK     1      34.233  -5.603  35.723  1.00  0.00     0.037 A 
HETATM   13  C14 UNK     1      35.104  -6.317  34.802  1.00  0.00     0.002 A 
HETATM   14  C15 UNK     1      34.608  -6.687  33.556  1.00  0.00     0.123 A 
HETATM   15  C16 UNK     1      36.424  -6.644  35.126  1.00  0.00     0.014 A 
HETATM   16  O4  UNK     1      33.283  -6.376  33.193  1.00  0.00    -0.271 OA
HETATM   17  C17 UNK     1      35.390  -7.372  32.628  1.00  0.00     0.102 A 
HETATM   18  C13 UNK     1      32.425  -5.695  34.052  1.00  0.00     0.304 A 
HETATM   19  O5  UNK     1      31.274  -5.430  33.728  1.00  0.00    -0.259 OA
HETATM   20  C19 UNK     1      36.704  -7.694  32.960  1.00  0.00     0.040 A 
HETATM   21  C18 UNK     1      37.221  -7.331  34.206  1.00  0.00     0.004 A 
BRANCH  17  22
HETATM   22  O6  UNK     1      34.892  -7.727  31.415  1.00  0.00    -0.353 OA
HETATM   23  C20 UNK     1      35.444  -8.891  30.799  1.00  0.00     0.210 C 
ENDBRANCH  17  22
ENDBRANCH  10  11
BRANCH   9  24
HETATM   24  O1  UNK     1      28.232  -8.532  39.159  1.00  0.00    -0.294 OA
BRANCH  24  25
HETATM   25  C7  UNK     1      26.944  -9.103  38.902  1.00  0.00     0.061 C 
HETATM   26  C10 UNK     1      27.059  -9.952  37.639  1.00  0.00     0.046 C 
HETATM   27  C11 UNK     1      26.549  -9.969  40.097  1.00  0.00     0.046 C 
HETATM   28  C9  UNK     1      25.942  -7.967  38.697  1.00  0.00     0.046 C 
ENDBRANCH  24  25
ENDBRANCH   9  24
TORSDOF 4
ENDMDL
