MODEL 1
REMARK VINA RESULT:      -8.3      0.000      0.000
REMARK  4 active torsions:
REMARK  status: ('A' for Active; 'I' for Inactive)
REMARK    1  A    between atoms: C5_10  and  O2_2 
REMARK    2  A    between atoms: C11_16  and  O3_3 
REMARK    3  A    between atoms: C12_17  and  O4_4 
REMARK    4  A    between atoms: C1_6  and  C2_7 
ROOT
HETATM    1  O1  UNK     1      13.392   7.491   8.526  1.00  0.00    -0.309 OA
HETATM    2  O5  UNK     1      15.402   4.140   9.678  1.00  0.00    -0.287 OA
HETATM    3  C1  UNK     1      12.874   6.223   8.312  1.00  0.00     0.093 A 
HETATM    4  C3  UNK     1      15.357   6.500   9.553  1.00  0.00     0.048 A 
HETATM    5  C4  UNK     1      14.616   7.604   9.135  1.00  0.00     0.093 A 
HETATM    6  C6  UNK     1      13.488   5.085   8.674  1.00  0.00     0.094 A 
HETATM    7  C7  UNK     1      14.807   5.152   9.334  1.00  0.00     0.187 A 
HETATM    8  C8  UNK     1      15.113   8.892   9.332  1.00  0.00     0.075 A 
HETATM    9  C10 UNK     1      16.599   6.674  10.168  1.00  0.00     0.021 A 
HETATM   10  C12 UNK     1      16.352   9.071   9.947  1.00  0.00     0.070 A 
HETATM   11  C13 UNK     1      17.094   7.964  10.364  1.00  0.00     0.038 A 
ENDROOT
BRANCH   3  12
HETATM   12  C2  UNK     1      11.551   6.217   7.656  1.00  0.00     0.034 A 
HETATM   13  C5  UNK     1      10.379   5.996   8.387  1.00  0.00     0.114 A 
HETATM   14  C11 UNK     1       9.141   5.996   7.744  1.00  0.00     0.102 A 
HETATM   15  C15 UNK     1       9.069   6.216   6.369  1.00  0.00     0.040 A 
HETATM   16  C14 UNK     1      10.235   6.437   5.636  1.00  0.00     0.004 A 
HETATM   17  C9  UNK     1      11.473   6.438   6.279  1.00  0.00     0.017 A 
BRANCH  13  18
HETATM   18  O2  UNK     1      10.435   5.779   9.733  1.00  0.00    -0.352 OA
HETATM   19  C16 UNK     1      10.267   4.436  10.178  1.00  0.00     0.210 C 
ENDBRANCH  13  18
BRANCH  14  20
HETATM   20  O3  UNK     1       7.994   5.781   8.447  1.00  0.00    -0.353 OA
HETATM   21  C17 UNK     1       7.412   6.908   9.099  1.00  0.00     0.210 C 
ENDBRANCH  14  20
ENDBRANCH   3  12
BRANCH  10  22
HETATM   22  O4  UNK     1      16.842  10.327  10.139  1.00  0.00    -0.356 OA
HETATM   23  C18 UNK     1      17.709  10.846   9.133  1.00  0.00     0.210 C 
ENDBRANCH  10  22
TORSDOF 4
ENDMDL
MODEL 2
REMARK VINA RESULT:      -8.2     22.082     24.365
REMARK  4 active torsions:
REMARK  status: ('A' for Active; 'I' for Inactive)
REMARK    1  A    between atoms: C5_10  and  O2_2 
REMARK    2  A    between atoms: C11_16  and  O3_3 
REMARK    3  A    between atoms: C12_17  and  O4_4 
REMARK    4  A    between atoms: C1_6  and  C2_7 
ROOT
HETATM    1  O1  UNK     1      19.572   1.329  31.241  1.00  0.00    -0.309 OA
HETATM    2  O5  UNK     1      18.983  -0.177  27.502  1.00  0.00    -0.287 OA
HETATM    3  C1  UNK     1      19.075   2.113  30.211  1.00  0.00     0.093 A 
HETATM    4  C3  UNK     1      19.701  -0.561  29.721  1.00  0.00     0.048 A 
HETATM    5  C4  UNK     1      19.877   0.018  30.977  1.00  0.00     0.093 A 
HETATM    6  C6  UNK     1      18.856   1.671  28.963  1.00  0.00     0.094 A 
HETATM    7  C7  UNK     1      19.166   0.267  28.627  1.00  0.00     0.187 A 
HETATM    8  C8  UNK     1      20.381  -0.744  32.031  1.00  0.00     0.075 A 
HETATM    9  C10 UNK     1      20.027  -1.902  29.508  1.00  0.00     0.021 A 
HETATM   10  C12 UNK     1      20.707  -2.085  31.823  1.00  0.00     0.070 A 
HETATM   11  C13 UNK     1      20.531  -2.662  30.565  1.00  0.00     0.038 A 
ENDROOT
BRANCH   3  12
HETATM   12  C2  UNK     1      18.777   3.504  30.606  1.00  0.00     0.034 A 
HETATM   13  C5  UNK     1      18.071   3.791  31.779  1.00  0.00     0.114 A 
HETATM   14  C11 UNK     1      17.802   5.114  32.131  1.00  0.00     0.102 A 
HETATM   15  C15 UNK     1      18.235   6.155  31.312  1.00  0.00     0.040 A 
HETATM   16  C14 UNK     1      18.940   5.874  30.140  1.00  0.00     0.004 A 
HETATM   17  C9  UNK     1      19.210   4.552  29.789  1.00  0.00     0.017 A 
BRANCH  13  18
HETATM   18  O2  UNK     1      17.640   2.782  32.591  1.00  0.00    -0.352 OA
HETATM   19  C16 UNK     1      18.270   2.662  33.863  1.00  0.00     0.210 C 
ENDBRANCH  13  18
BRANCH  14  20
HETATM   20  O3  UNK     1      17.115   5.403  33.271  1.00  0.00    -0.353 OA
HETATM   21  C17 UNK     1      17.499   6.580  33.979  1.00  0.00     0.210 C 
ENDBRANCH  14  20
ENDBRANCH   3  12
BRANCH  10  22
HETATM   22  O4  UNK     1      21.201  -2.831  32.849  1.00  0.00    -0.356 OA
HETATM   23  C18 UNK     1      20.508  -2.763  34.094  1.00  0.00     0.210 C 
ENDBRANCH  10  22
TORSDOF 4
ENDMDL
MODEL 3
REMARK VINA RESULT:      -8.0      0.941      1.148
REMARK  4 active torsions:
REMARK  status: ('A' for Active; 'I' for Inactive)
REMARK    1  A    between atoms: C5_10  and  O2_2 
REMARK    2  A    between atoms: C11_16  and  O3_3 
REMARK    3  A    between atoms: C12_17  and  O4_4 
REMARK    4  A    between atoms: C1_6  and  C2_7 
ROOT
HETATM    1  O1  UNK     1      13.405   7.716   8.483  1.00  0.00    -0.309 OA
HETATM    2  O5  UNK     1      15.342   4.335   9.669  1.00  0.00    -0.287 OA
HETATM    3  C1  UNK     1      12.841   6.461   8.321  1.00  0.00     0.093 A 
HETATM    4  C3  UNK     1      15.369   6.691   9.478  1.00  0.00     0.048 A 
HETATM    5  C4  UNK     1      14.650   7.806   9.051  1.00  0.00     0.093 A 
HETATM    6  C6  UNK     1      13.429   5.314   8.697  1.00  0.00     0.094 A 
HETATM    7  C7  UNK     1      14.770   5.356   9.314  1.00  0.00     0.187 A 
HETATM    8  C8  UNK     1      15.195   9.083   9.195  1.00  0.00     0.075 A 
HETATM    9  C10 UNK     1      16.634   6.840  10.049  1.00  0.00     0.021 A 
HETATM   10  C12 UNK     1      16.458   9.237   9.767  1.00  0.00     0.070 A 
HETATM   11  C13 UNK     1      17.176   8.119  10.192  1.00  0.00     0.038 A 
ENDROOT
BRANCH   3  12
HETATM   12  C2  UNK     1      11.498   6.480   7.707  1.00  0.00     0.034 A 
HETATM   13  C5  UNK     1      10.395   7.007   8.387  1.00  0.00     0.114 A 
HETATM   14  C11 UNK     1       9.136   7.014   7.785  1.00  0.00     0.102 A 
HETATM   15  C15 UNK     1       8.975   6.495   6.501  1.00  0.00     0.040 A 
HETATM   16  C14 UNK     1      10.072   5.969   5.818  1.00  0.00     0.004 A 
HETATM   17  C9  UNK     1      11.330   5.962   6.421  1.00  0.00     0.017 A 
BRANCH  13  18
HETATM   18  O2  UNK     1      10.539   7.518   9.645  1.00  0.00    -0.352 OA
HETATM   19  C16 UNK     1      10.586   8.937   9.764  1.00  0.00     0.210 C 
ENDBRANCH  13  18
BRANCH  14  20
HETATM   20  O3  UNK     1       8.057   7.524   8.440  1.00  0.00    -0.353 OA
HETATM   21  C17 UNK     1       7.379   6.656   9.347  1.00  0.00     0.210 C 
ENDBRANCH  14  20
ENDBRANCH   3  12
BRANCH  10  22
HETATM   22  O4  UNK     1      16.993  10.481   9.907  1.00  0.00    -0.356 OA
HETATM   23  C18 UNK     1      17.839  10.947   8.857  1.00  0.00     0.210 C 
ENDBRANCH  10  22
TORSDOF 4
ENDMDL
MODEL 4
REMARK VINA RESULT:      -8.0     24.702     26.874
REMARK  4 active torsions:
REMARK  status: ('A' for Active; 'I' for Inactive)
REMARK    1  A    between atoms: C5_10  and  O2_2 
REMARK    2  A    between atoms: C11_16  and  O3_3 
REMARK    3  A    between atoms: C12_17  and  O4_4 
REMARK    4  A    between atoms: C1_6  and  C2_7 
ROOT
HETATM    1  O1  UNK     1      19.066  -0.514  32.940  1.00  0.00    -0.309 OA
HETATM    2  O5  UNK     1      21.531  -3.626  32.028  1.00  0.00    -0.287 OA
HETATM    3  C1  UNK     1      19.451  -1.441  33.896  1.00  0.00     0.093 A 
HETATM    4  C3  UNK     1      20.372  -1.708  31.277  1.00  0.00     0.048 A 
HETATM    5  C4  UNK     1      19.527  -0.667  31.657  1.00  0.00     0.093 A 
HETATM    6  C6  UNK     1      20.264  -2.482  33.656  1.00  0.00     0.094 A 
HETATM    7  C7  UNK     1      20.789  -2.690  32.291  1.00  0.00     0.187 A 
HETATM    8  C8  UNK     1      19.117   0.277  30.716  1.00  0.00     0.075 A 
HETATM    9  C10 UNK     1      20.812  -1.816  29.956  1.00  0.00     0.021 A 
HETATM   10  C12 UNK     1      19.555   0.175  29.395  1.00  0.00     0.070 A 
HETATM   11  C13 UNK     1      20.400  -0.869  29.016  1.00  0.00     0.038 A 
ENDROOT
BRANCH   3  12
HETATM   12  C2  UNK     1      18.903  -1.178  35.242  1.00  0.00     0.034 A 
HETATM   13  C5  UNK     1      18.739   0.126  35.718  1.00  0.00     0.114 A 
HETATM   14  C11 UNK     1      18.218   0.348  36.994  1.00  0.00     0.102 A 
HETATM   15  C15 UNK     1      17.860  -0.733  37.798  1.00  0.00     0.040 A 
HETATM   16  C14 UNK     1      18.021  -2.036  37.327  1.00  0.00     0.004 A 
HETATM   17  C9  UNK     1      18.541  -2.258  36.052  1.00  0.00     0.017 A 
BRANCH  13  18
HETATM   18  O2  UNK     1      19.086   1.194  34.942  1.00  0.00    -0.352 OA
HETATM   19  C16 UNK     1      18.025   1.908  34.313  1.00  0.00     0.210 C 
ENDBRANCH  13  18
BRANCH  14  20
HETATM   20  O3  UNK     1      18.056   1.615  37.467  1.00  0.00    -0.353 OA
HETATM   21  C17 UNK     1      16.719   2.057  37.693  1.00  0.00     0.210 C 
ENDBRANCH  14  20
ENDBRANCH   3  12
BRANCH  10  22
HETATM   22  O4  UNK     1      19.156   1.094  28.473  1.00  0.00    -0.356 OA
HETATM   23  C18 UNK     1      17.966   1.826  28.760  1.00  0.00     0.210 C 
ENDBRANCH  10  22
TORSDOF 4
ENDMDL
MODEL 5
REMARK VINA RESULT:      -7.9     22.580     24.806
REMARK  4 active torsions:
REMARK  status: ('A' for Active; 'I' for Inactive)
REMARK    1  A    between atoms: C5_10  and  O2_2 
REMARK    2  A    between atoms: C11_16  and  O3_3 
REMARK    3  A    between atoms: C12_17  and  O4_4 
REMARK    4  A    between atoms: C1_6  and  C2_7 
ROOT
HETATM    1  O1  UNK     1      17.039   6.788  32.780  1.00  0.00    -0.309 OA
HETATM    2  O5  UNK     1      20.128   8.796  34.519  1.00  0.00    -0.287 OA
HETATM    3  C1  UNK     1      18.271   6.187  32.989  1.00  0.00     0.093 A 
HETATM    4  C3  UNK     1      17.888   8.839  33.765  1.00  0.00     0.048 A 
HETATM    5  C4  UNK     1      16.874   8.093  33.166  1.00  0.00     0.093 A 
HETATM    6  C6  UNK     1      19.322   6.797  33.561  1.00  0.00     0.094 A 
HETATM    7  C7  UNK     1      19.195   8.202  33.995  1.00  0.00     0.187 A 
HETATM    8  C8  UNK     1      15.625   8.672  32.938  1.00  0.00     0.075 A 
HETATM    9  C10 UNK     1      17.664  10.166  34.139  1.00  0.00     0.021 A 
HETATM   10  C12 UNK     1      15.396   9.997  33.310  1.00  0.00     0.070 A 
HETATM   11  C13 UNK     1      16.413  10.742  33.909  1.00  0.00     0.038 A 
ENDROOT
BRANCH   3  12
HETATM   12  C2  UNK     1      18.337   4.782  32.542  1.00  0.00     0.034 A 
HETATM   13  C5  UNK     1      18.576   4.454  31.204  1.00  0.00     0.114 A 
HETATM   14  C11 UNK     1      18.635   3.118  30.807  1.00  0.00     0.102 A 
HETATM   15  C15 UNK     1      18.454   2.103  31.746  1.00  0.00     0.040 A 
HETATM   16  C14 UNK     1      18.215   2.425  33.083  1.00  0.00     0.004 A 
HETATM   17  C9  UNK     1      18.158   3.761  33.479  1.00  0.00     0.017 A 
BRANCH  13  18
HETATM   18  O2  UNK     1      18.754   5.437  30.273  1.00  0.00    -0.352 OA
HETATM   19  C16 UNK     1      20.088   5.893  30.062  1.00  0.00     0.210 C 
ENDBRANCH  13  18
BRANCH  14  20
HETATM   20  O3  UNK     1      18.866   2.790  29.505  1.00  0.00    -0.353 OA
HETATM   21  C17 UNK     1      17.873   2.006  28.848  1.00  0.00     0.210 C 
ENDBRANCH  14  20
ENDBRANCH   3  12
BRANCH  10  22
HETATM   22  O4  UNK     1      14.180  10.566  33.087  1.00  0.00    -0.356 OA
HETATM   23  C18 UNK     1      13.500  11.109  34.217  1.00  0.00     0.210 C 
ENDBRANCH  10  22
TORSDOF 4
ENDMDL
MODEL 6
REMARK VINA RESULT:      -7.9      1.512      1.747
REMARK  4 active torsions:
REMARK  status: ('A' for Active; 'I' for Inactive)
REMARK    1  A    between atoms: C5_10  and  O2_2 
REMARK    2  A    between atoms: C11_16  and  O3_3 
REMARK    3  A    between atoms: C12_17  and  O4_4 
REMARK    4  A    between atoms: C1_6  and  C2_7 
ROOT
HETATM    1  O1  UNK     1      13.045   8.318   8.264  1.00  0.00    -0.309 OA
HETATM    2  O5  UNK     1      14.943   5.595  10.625  1.00  0.00    -0.287 OA
HETATM    3  C1  UNK     1      12.470   7.094   8.569  1.00  0.00     0.093 A 
HETATM    4  C3  UNK     1      14.993   7.716   9.583  1.00  0.00     0.048 A 
HETATM    5  C4  UNK     1      14.288   8.602   8.770  1.00  0.00     0.093 A 
HETATM    6  C6  UNK     1      13.045   6.161   9.345  1.00  0.00     0.094 A 
HETATM    7  C7  UNK     1      14.383   6.418   9.915  1.00  0.00     0.187 A 
HETATM    8  C8  UNK     1      14.843   9.838   8.441  1.00  0.00     0.075 A 
HETATM    9  C10 UNK     1      16.256   8.056  10.071  1.00  0.00     0.021 A 
HETATM   10  C12 UNK     1      16.104  10.183   8.927  1.00  0.00     0.070 A 
HETATM   11  C13 UNK     1      16.809   9.294   9.740  1.00  0.00     0.038 A 
ENDROOT
BRANCH   3  12
HETATM   12  C2  UNK     1      11.131   6.896   7.979  1.00  0.00     0.034 A 
HETATM   13  C5  UNK     1       9.977   7.345   8.627  1.00  0.00     0.114 A 
HETATM   14  C11 UNK     1       8.723   7.146   8.048  1.00  0.00     0.102 A 
HETATM   15  C15 UNK     1       8.618   6.496   6.819  1.00  0.00     0.040 A 
HETATM   16  C14 UNK     1       9.767   6.046   6.168  1.00  0.00     0.004 A 
HETATM   17  C9  UNK     1      11.020   6.246   6.746  1.00  0.00     0.017 A 
BRANCH  13  18
HETATM   18  O2  UNK     1      10.064   7.981   9.831  1.00  0.00    -0.352 OA
HETATM   19  C16 UNK     1      10.052   9.406   9.811  1.00  0.00     0.210 C 
ENDBRANCH  13  18
BRANCH  14  20
HETATM   20  O3  UNK     1       7.593   7.579   8.674  1.00  0.00    -0.353 OA
HETATM   21  C17 UNK     1       7.043   6.732   9.681  1.00  0.00     0.210 C 
ENDBRANCH  14  20
ENDBRANCH   3  12
BRANCH  10  22
HETATM   22  O4  UNK     1      16.650  11.389   8.606  1.00  0.00    -0.356 OA
HETATM   23  C18 UNK     1      16.202  12.004   7.400  1.00  0.00     0.210 C 
ENDBRANCH  10  22
TORSDOF 4
ENDMDL
MODEL 7
REMARK VINA RESULT:      -7.7     25.008     27.165
REMARK  4 active torsions:
REMARK  status: ('A' for Active; 'I' for Inactive)
REMARK    1  A    between atoms: C5_10  and  O2_2 
REMARK    2  A    between atoms: C11_16  and  O3_3 
REMARK    3  A    between atoms: C12_17  and  O4_4 
REMARK    4  A    between atoms: C1_6  and  C2_7 
ROOT
HETATM    1  O1  UNK     1      19.080   0.142  34.265  1.00  0.00    -0.309 OA
HETATM    2  O5  UNK     1      16.098   0.440  37.024  1.00  0.00    -0.287 OA
HETATM    3  C1  UNK     1      18.116   1.136  34.189  1.00  0.00     0.093 A 
HETATM    4  C3  UNK     1      18.017  -0.717  36.272  1.00  0.00     0.048 A 
HETATM    5  C4  UNK     1      19.010  -0.761  35.295  1.00  0.00     0.093 A 
HETATM    6  C6  UNK     1      17.115   1.286  35.071  1.00  0.00     0.094 A 
HETATM    7  C7  UNK     1      16.996   0.340  36.199  1.00  0.00     0.187 A 
HETATM    8  C8  UNK     1      19.990  -1.752  35.341  1.00  0.00     0.075 A 
HETATM    9  C10 UNK     1      17.994  -1.663  37.299  1.00  0.00     0.021 A 
HETATM   10  C12 UNK     1      19.972  -2.698  36.366  1.00  0.00     0.070 A 
HETATM   11  C13 UNK     1      18.976  -2.654  37.343  1.00  0.00     0.038 A 
ENDROOT
BRANCH   3  12
HETATM   12  C2  UNK     1      18.290   2.055  33.047  1.00  0.00     0.034 A 
HETATM   13  C5  UNK     1      18.554   1.575  31.761  1.00  0.00     0.114 A 
HETATM   14  C11 UNK     1      18.714   2.465  30.698  1.00  0.00     0.102 A 
HETATM   15  C15 UNK     1      18.611   3.838  30.917  1.00  0.00     0.040 A 
HETATM   16  C14 UNK     1      18.347   4.322  32.198  1.00  0.00     0.004 A 
HETATM   17  C9  UNK     1      18.187   3.433  33.261  1.00  0.00     0.017 A 
BRANCH  13  18
HETATM   18  O2  UNK     1      18.659   0.234  31.532  1.00  0.00    -0.352 OA
HETATM   19  C16 UNK     1      19.933  -0.254  31.122  1.00  0.00     0.210 C 
ENDBRANCH  13  18
BRANCH  14  20
HETATM   20  O3  UNK     1      18.972   2.006  29.442  1.00  0.00    -0.353 OA
HETATM   21  C17 UNK     1      17.857   1.842  28.569  1.00  0.00     0.210 C 
ENDBRANCH  14  20
ENDBRANCH   3  12
BRANCH  10  22
HETATM   22  O4  UNK     1      20.926  -3.669  36.413  1.00  0.00    -0.356 OA
HETATM   23  C18 UNK     1      20.923  -4.528  37.551  1.00  0.00     0.210 C 
ENDBRANCH  10  22
TORSDOF 4
ENDMDL
MODEL 8
REMARK VINA RESULT:      -7.7     23.278     25.636
REMARK  4 active torsions:
REMARK  status: ('A' for Active; 'I' for Inactive)
REMARK    1  A    between atoms: C5_10  and  O2_2 
REMARK    2  A    between atoms: C11_16  and  O3_3 
REMARK    3  A    between atoms: C12_17  and  O4_4 
REMARK    4  A    between atoms: C1_6  and  C2_7 
ROOT
HETATM    1  O1  UNK     1      17.991   3.401  33.329  1.00  0.00    -0.309 OA
HETATM    2  O5  UNK     1      19.134   2.102  29.641  1.00  0.00    -0.287 OA
HETATM    3  C1  UNK     1      18.133   4.274  32.262  1.00  0.00     0.093 A 
HETATM    4  C3  UNK     1      18.649   1.559  31.889  1.00  0.00     0.048 A 
HETATM    5  C4  UNK     1      18.254   2.070  33.124  1.00  0.00     0.093 A 
HETATM    6  C6  UNK     1      18.501   3.904  31.025  1.00  0.00     0.094 A 
HETATM    7  C7  UNK     1      18.794   2.482  30.753  1.00  0.00     0.187 A 
HETATM    8  C8  UNK     1      18.108   1.216  34.218  1.00  0.00     0.075 A 
HETATM    9  C10 UNK     1      18.903   0.194  31.737  1.00  0.00     0.021 A 
HETATM   10  C12 UNK     1      18.360  -0.148  34.070  1.00  0.00     0.070 A 
HETATM   11  C13 UNK     1      18.757  -0.658  32.833  1.00  0.00     0.038 A 
ENDROOT
BRANCH   3  12
HETATM   12  C2  UNK     1      17.820   5.679  32.592  1.00  0.00     0.034 A 
HETATM   13  C5  UNK     1      18.756   6.504  33.224  1.00  0.00     0.114 A 
HETATM   14  C11 UNK     1      18.437   7.829  33.524  1.00  0.00     0.102 A 
HETATM   15  C15 UNK     1      17.180   8.334  33.194  1.00  0.00     0.040 A 
HETATM   16  C14 UNK     1      16.242   7.515  32.563  1.00  0.00     0.004 A 
HETATM   17  C9  UNK     1      16.562   6.192  32.263  1.00  0.00     0.017 A 
BRANCH  13  18
HETATM   18  O2  UNK     1      19.990   6.022  33.553  1.00  0.00    -0.352 OA
HETATM   19  C16 UNK     1      21.058   6.312  32.655  1.00  0.00     0.210 C 
ENDBRANCH  13  18
BRANCH  14  20
HETATM   20  O3  UNK     1      19.341   8.639  34.140  1.00  0.00    -0.353 OA
HETATM   21  C17 UNK     1      19.075  10.039  34.124  1.00  0.00     0.210 C 
ENDBRANCH  14  20
ENDBRANCH   3  12
BRANCH  10  22
HETATM   22  O4  UNK     1      18.220  -0.984  35.136  1.00  0.00    -0.356 OA
HETATM   23  C18 UNK     1      19.417  -1.433  35.770  1.00  0.00     0.210 C 
ENDBRANCH  10  22
TORSDOF 4
ENDMDL
MODEL 9
REMARK VINA RESULT:      -7.6     24.111     26.306
REMARK  4 active torsions:
REMARK  status: ('A' for Active; 'I' for Inactive)
REMARK    1  A    between atoms: C5_10  and  O2_2 
REMARK    2  A    between atoms: C11_16  and  O3_3 
REMARK    3  A    between atoms: C12_17  and  O4_4 
REMARK    4  A    between atoms: C1_6  and  C2_7 
ROOT
HETATM    1  O1  UNK     1      18.413   4.219  34.520  1.00  0.00    -0.309 OA
HETATM    2  O5  UNK     1      18.084   2.453  30.864  1.00  0.00    -0.287 OA
HETATM    3  C1  UNK     1      18.373   4.966  33.353  1.00  0.00     0.093 A 
HETATM    4  C3  UNK     1      18.236   2.184  33.207  1.00  0.00     0.048 A 
HETATM    5  C4  UNK     1      18.348   2.852  34.425  1.00  0.00     0.093 A 
HETATM    6  C6  UNK     1      18.260   4.440  32.122  1.00  0.00     0.094 A 
HETATM    7  C7  UNK     1      18.185   2.974  31.967  1.00  0.00     0.187 A 
HETATM    8  C8  UNK     1      18.397   2.128  35.616  1.00  0.00     0.075 A 
HETATM    9  C10 UNK     1      18.173   0.789  33.169  1.00  0.00     0.021 A 
HETATM   10  C12 UNK     1      18.333   0.734  35.583  1.00  0.00     0.070 A 
HETATM   11  C13 UNK     1      18.222   0.066  34.362  1.00  0.00     0.038 A 
ENDROOT
BRANCH   3  12
HETATM   12  C2  UNK     1      18.443   6.424  33.571  1.00  0.00     0.034 A 
HETATM   13  C5  UNK     1      17.299   7.226  33.501  1.00  0.00     0.114 A 
HETATM   14  C11 UNK     1      17.392   8.602  33.712  1.00  0.00     0.102 A 
HETATM   15  C15 UNK     1      18.628   9.183  33.991  1.00  0.00     0.040 A 
HETATM   16  C14 UNK     1      19.773   8.388  34.062  1.00  0.00     0.004 A 
HETATM   17  C9  UNK     1      19.679   7.012  33.852  1.00  0.00     0.017 A 
BRANCH  13  18
HETATM   18  O2  UNK     1      16.083   6.671  33.228  1.00  0.00    -0.352 OA
HETATM   19  C16 UNK     1      15.523   6.942  31.946  1.00  0.00     0.210 C 
ENDBRANCH  13  18
BRANCH  14  20
HETATM   20  O3  UNK     1      16.283   9.391  33.645  1.00  0.00    -0.353 OA
HETATM   21  C17 UNK     1      15.656   9.733  34.879  1.00  0.00     0.210 C 
ENDBRANCH  14  20
ENDBRANCH   3  12
BRANCH  10  22
HETATM   22  O4  UNK     1      18.383   0.024  36.744  1.00  0.00    -0.356 OA
HETATM   23  C18 UNK     1      17.675   0.556  37.862  1.00  0.00     0.210 C 
ENDBRANCH  10  22
TORSDOF 4
ENDMDL
MODEL 10
REMARK VINA RESULT:      -7.6     24.200     26.413
REMARK  4 active torsions:
REMARK  status: ('A' for Active; 'I' for Inactive)
REMARK    1  A    between atoms: C5_10  and  O2_2 
REMARK    2  A    between atoms: C11_16  and  O3_3 
REMARK    3  A    between atoms: C12_17  and  O4_4 
REMARK    4  A    between atoms: C1_6  and  C2_7 
ROOT
HETATM    1  O1  UNK     1      18.081   1.957  33.059  1.00  0.00    -0.309 OA
HETATM    2  O5  UNK     1      18.987   5.859  33.799  1.00  0.00    -0.287 OA
HETATM    3  C1  UNK     1      18.218   2.439  34.351  1.00  0.00     0.093 A 
HETATM    4  C3  UNK     1      18.578   4.172  32.195  1.00  0.00     0.048 A 
HETATM    5  C4  UNK     1      18.265   2.826  32.013  1.00  0.00     0.093 A 
HETATM    6  C6  UNK     1      18.510   3.714  34.655  1.00  0.00     0.094 A 
HETATM    7  C7  UNK     1      18.717   4.689  33.566  1.00  0.00     0.187 A 
HETATM    8  C8  UNK     1      18.127   2.310  30.724  1.00  0.00     0.075 A 
HETATM    9  C10 UNK     1      18.755   5.012  31.093  1.00  0.00     0.021 A 
HETATM   10  C12 UNK     1      18.302   3.146  29.621  1.00  0.00     0.070 A 
HETATM   11  C13 UNK     1      18.615   4.493  29.805  1.00  0.00     0.038 A 
ENDROOT
BRANCH   3  12
HETATM   12  C2  UNK     1      17.992   1.423  35.398  1.00  0.00     0.034 A 
HETATM   13  C5  UNK     1      18.473   0.117  35.260  1.00  0.00     0.114 A 
HETATM   14  C11 UNK     1      18.247  -0.825  36.264  1.00  0.00     0.102 A 
HETATM   15  C15 UNK     1      17.539  -0.466  37.410  1.00  0.00     0.040 A 
HETATM   16  C14 UNK     1      17.057   0.836  37.553  1.00  0.00     0.004 A 
HETATM   17  C9  UNK     1      17.284   1.778  36.549  1.00  0.00     0.017 A 
BRANCH  13  18
HETATM   18  O2  UNK     1      19.167  -0.249  34.143  1.00  0.00    -0.352 OA
HETATM   19  C16 UNK     1      18.507  -1.120  33.229  1.00  0.00     0.210 C 
ENDBRANCH  13  18
BRANCH  14  20
HETATM   20  O3  UNK     1      18.710  -2.100  36.137  1.00  0.00    -0.353 OA
HETATM   21  C17 UNK     1      19.520  -2.604  37.197  1.00  0.00     0.210 C 
ENDBRANCH  14  20
ENDBRANCH   3  12
BRANCH  10  22
HETATM   22  O4  UNK     1      18.169   2.645  28.362  1.00  0.00    -0.356 OA
HETATM   23  C18 UNK     1      17.986   1.236  28.238  1.00  0.00     0.210 C 
ENDBRANCH  10  22
TORSDOF 4
ENDMDL
