MODEL 1
REMARK VINA RESULT:      -9.6      0.000      0.000
REMARK  4 active torsions:
REMARK  status: ('A' for Active; 'I' for Inactive)
REMARK    1  A    between atoms: C20_25  and  O4_4 
REMARK    2  A    between atoms: C11_16  and  N1_5 
REMARK       I    between atoms: C13_18  and  N1_5 
REMARK    3  A    between atoms: C1_6  and  C11_16 
REMARK    4  A    between atoms: C13_18  and  C14_19 
ROOT
HETATM    1  O1  UNK     1      18.117  -1.672  35.962  1.00  0.00    -0.267 OA
HETATM    2  N1  UNK     1      20.180  -2.663  35.513  1.00  0.00    -0.352 N 
HETATM    3  C13 UNK     1      19.082  -1.869  35.232  1.00  0.00     0.258 C 
HETATM    4  H20 UNK     1      20.895  -2.797  34.805  1.00  0.00     0.163 HD
ENDROOT
BRANCH   3   5
HETATM    5  C14 UNK     1      19.164  -1.231  33.905  1.00  0.00     0.108 A 
HETATM    6  C15 UNK     1      19.728  -1.957  32.933  1.00  0.00     0.037 A 
HETATM    7  C17 UNK     1      19.854  -1.413  31.590  1.00  0.00     0.002 A 
HETATM    8  C18 UNK     1      19.379  -0.130  31.336  1.00  0.00     0.123 A 
HETATM    9  C19 UNK     1      20.436  -2.135  30.546  1.00  0.00     0.014 A 
HETATM   10  O2  UNK     1      18.786   0.630  32.363  1.00  0.00    -0.271 OA
HETATM   11  C20 UNK     1      19.470   0.449  30.072  1.00  0.00     0.102 A 
HETATM   12  C16 UNK     1      18.651   0.136  33.658  1.00  0.00     0.304 A 
HETATM   13  O3  UNK     1      18.133   0.804  34.546  1.00  0.00    -0.259 OA
HETATM   14  C22 UNK     1      20.051  -0.277  29.036  1.00  0.00     0.040 A 
HETATM   15  C21 UNK     1      20.533  -1.567  29.272  1.00  0.00     0.004 A 
BRANCH  11  16
HETATM   16  O4  UNK     1      19.002   1.705  29.839  1.00  0.00    -0.353 OA
HETATM   17  C23 UNK     1      17.951   1.840  28.883  1.00  0.00     0.210 C 
ENDBRANCH  11  16
ENDBRANCH   3   5
BRANCH   2  18
HETATM   18  C11 UNK     1      20.327  -3.387  36.749  1.00  0.00     0.089 C 
HETATM   19  C12 UNK     1      19.435  -2.790  37.825  1.00  0.00     0.033 C 
BRANCH  18  20
HETATM   20  C1  UNK     1      20.013  -4.870  36.537  1.00  0.00    -0.019 C 
HETATM   21  C5  UNK     1      20.230  -5.258  35.055  1.00  0.00     0.016 C 
HETATM   22  C2  UNK     1      19.914  -6.750  34.839  1.00  0.00    -0.013 C 
HETATM   23  C8  UNK     1      20.841  -7.596  35.727  1.00  0.00     0.009 C 
HETATM   24  C9  UNK     1      18.452  -7.020  35.228  1.00  0.00     0.009 C 
HETATM   25  C3  UNK     1      20.625  -7.238  37.207  1.00  0.00    -0.013 C 
HETATM   26  C10 UNK     1      19.158  -7.506  37.584  1.00  0.00     0.009 C 
HETATM   27  C6  UNK     1      20.938  -5.746  37.417  1.00  0.00     0.016 C 
HETATM   28  C4  UNK     1      18.224  -6.658  36.705  1.00  0.00    -0.013 C 
HETATM   29  C7  UNK     1      18.544  -5.168  36.917  1.00  0.00     0.016 C 
ENDBRANCH  18  20
ENDBRANCH   2  18
TORSDOF 4
ENDMDL
MODEL 2
REMARK VINA RESULT:      -9.6      7.800      9.839
REMARK  4 active torsions:
REMARK  status: ('A' for Active; 'I' for Inactive)
REMARK    1  A    between atoms: C20_25  and  O4_4 
REMARK    2  A    between atoms: C11_16  and  N1_5 
REMARK       I    between atoms: C13_18  and  N1_5 
REMARK    3  A    between atoms: C1_6  and  C11_16 
REMARK    4  A    between atoms: C13_18  and  C14_19 
ROOT
HETATM    1  O1  UNK     1      25.730  -9.156  39.707  1.00  0.00    -0.267 OA
HETATM    2  N1  UNK     1      24.356  -7.723  38.484  1.00  0.00    -0.352 N 
HETATM    3  C13 UNK     1      25.565  -8.263  38.885  1.00  0.00     0.258 C 
HETATM    4  H20 UNK     1      24.347  -6.943  37.834  1.00  0.00     0.163 HD
ENDROOT
BRANCH   3   5
HETATM    5  C14 UNK     1      26.719  -7.647  38.203  1.00  0.00     0.108 A 
HETATM    6  C15 UNK     1      27.235  -6.557  38.783  1.00  0.00     0.037 A 
HETATM    7  C17 UNK     1      28.376  -5.878  38.187  1.00  0.00     0.002 A 
HETATM    8  C18 UNK     1      28.916  -6.381  37.007  1.00  0.00     0.123 A 
HETATM    9  C19 UNK     1      28.946  -4.739  38.757  1.00  0.00     0.014 A 
HETATM   10  O2  UNK     1      28.368  -7.529  36.401  1.00  0.00    -0.271 OA
HETATM   11  C20 UNK     1      30.006  -5.778  36.384  1.00  0.00     0.102 A 
HETATM   12  C16 UNK     1      27.278  -8.199  36.949  1.00  0.00     0.304 A 
HETATM   13  O3  UNK     1      26.808  -9.199  36.415  1.00  0.00    -0.259 OA
HETATM   14  C22 UNK     1      30.571  -4.642  36.960  1.00  0.00     0.040 A 
HETATM   15  C21 UNK     1      30.041  -4.123  38.144  1.00  0.00     0.004 A 
BRANCH  11  16
HETATM   16  O4  UNK     1      30.524  -6.281  35.231  1.00  0.00    -0.353 OA
HETATM   17  C23 UNK     1      31.564  -5.531  34.604  1.00  0.00     0.210 C 
ENDBRANCH  11  16
ENDBRANCH   3   5
BRANCH   2  18
HETATM   18  C11 UNK     1      23.089  -8.165  39.008  1.00  0.00     0.089 C 
HETATM   19  C12 UNK     1      22.440  -7.064  39.830  1.00  0.00     0.033 C 
BRANCH  18  20
HETATM   20  C1  UNK     1      22.170  -8.613  37.869  1.00  0.00    -0.019 C 
HETATM   21  C5  UNK     1      21.486  -7.388  37.217  1.00  0.00     0.016 C 
HETATM   22  C2  UNK     1      20.561  -7.836  36.071  1.00  0.00    -0.013 C 
HETATM   23  C8  UNK     1      21.391  -8.579  35.011  1.00  0.00     0.009 C 
HETATM   24  C9  UNK     1      19.486  -8.783  36.629  1.00  0.00     0.009 C 
HETATM   25  C3  UNK     1      22.063  -9.813  35.638  1.00  0.00    -0.013 C 
HETATM   26  C10 UNK     1      20.980 -10.750  36.198  1.00  0.00     0.009 C 
HETATM   27  C6  UNK     1      22.984  -9.360  36.785  1.00  0.00     0.016 C 
HETATM   28  C4  UNK     1      20.148 -10.017  37.263  1.00  0.00    -0.013 C 
HETATM   29  C7  UNK     1      21.074  -9.564  38.405  1.00  0.00     0.016 C 
ENDBRANCH  18  20
ENDBRANCH   2  18
TORSDOF 4
ENDMDL
MODEL 3
REMARK VINA RESULT:      -9.5      9.092     12.334
REMARK  4 active torsions:
REMARK  status: ('A' for Active; 'I' for Inactive)
REMARK    1  A    between atoms: C20_25  and  O4_4 
REMARK    2  A    between atoms: C11_16  and  N1_5 
REMARK       I    between atoms: C13_18  and  N1_5 
REMARK    3  A    between atoms: C1_6  and  C11_16 
REMARK    4  A    between atoms: C13_18  and  C14_19 
ROOT
HETATM    1  O1  UNK     1      28.609 -10.290  39.323  1.00  0.00    -0.267 OA
HETATM    2  N1  UNK     1      29.249  -8.952  37.524  1.00  0.00    -0.352 N 
HETATM    3  C13 UNK     1      28.347  -9.627  38.326  1.00  0.00     0.258 C 
HETATM    4  H20 UNK     1      28.920  -8.481  36.687  1.00  0.00     0.163 HD
ENDROOT
BRANCH   3   5
HETATM    5  C14 UNK     1      26.953  -9.479  37.867  1.00  0.00     0.108 A 
HETATM    6  C15 UNK     1      26.431 -10.524  37.214  1.00  0.00     0.037 A 
HETATM    7  C17 UNK     1      25.063 -10.474  36.722  1.00  0.00     0.002 A 
HETATM    8  C18 UNK     1      24.311  -9.324  36.942  1.00  0.00     0.123 A 
HETATM    9  C19 UNK     1      24.478 -11.541  36.037  1.00  0.00     0.014 A 
HETATM   10  O2  UNK     1      24.866  -8.227  37.630  1.00  0.00    -0.271 OA
HETATM   11  C20 UNK     1      22.996  -9.211  36.497  1.00  0.00     0.102 A 
HETATM   12  C16 UNK     1      26.172  -8.247  38.113  1.00  0.00     0.304 A 
HETATM   13  O3  UNK     1      26.646  -7.286  38.711  1.00  0.00    -0.259 OA
HETATM   14  C22 UNK     1      22.419 -10.279  35.814  1.00  0.00     0.040 A 
HETATM   15  C21 UNK     1      23.159 -11.442  35.584  1.00  0.00     0.004 A 
BRANCH  11  16
HETATM   16  O4  UNK     1      22.273  -8.081  36.719  1.00  0.00    -0.353 OA
HETATM   17  C23 UNK     1      21.005  -7.982  36.071  1.00  0.00     0.210 C 
ENDBRANCH  11  16
ENDBRANCH   3   5
BRANCH   2  18
HETATM   18  C11 UNK     1      30.668  -8.947  37.773  1.00  0.00     0.089 C 
HETATM   19  C12 UNK     1      31.368  -9.965  36.888  1.00  0.00     0.033 C 
BRANCH  18  20
HETATM   20  C1  UNK     1      31.241  -7.545  37.555  1.00  0.00    -0.019 C 
HETATM   21  C5  UNK     1      32.750  -7.522  37.896  1.00  0.00     0.016 C 
HETATM   22  C2  UNK     1      33.329  -6.113  37.678  1.00  0.00    -0.013 C 
HETATM   23  C8  UNK     1      33.133  -5.707  36.208  1.00  0.00     0.009 C 
HETATM   24  C9  UNK     1      32.587  -5.115  38.583  1.00  0.00     0.009 C 
HETATM   25  C3  UNK     1      31.635  -5.705  35.857  1.00  0.00    -0.013 C 
HETATM   26  C10 UNK     1      30.902  -4.709  36.771  1.00  0.00     0.009 C 
HETATM   27  C6  UNK     1      31.061  -7.115  36.080  1.00  0.00     0.016 C 
HETATM   28  C4  UNK     1      31.088  -5.110  38.244  1.00  0.00    -0.013 C 
HETATM   29  C7  UNK     1      30.515  -6.522  38.460  1.00  0.00     0.016 C 
ENDBRANCH  18  20
ENDBRANCH   2  18
TORSDOF 4
ENDMDL
MODEL 4
REMARK VINA RESULT:      -9.5      5.002      9.986
REMARK  4 active torsions:
REMARK  status: ('A' for Active; 'I' for Inactive)
REMARK    1  A    between atoms: C20_25  and  O4_4 
REMARK    2  A    between atoms: C11_16  and  N1_5 
REMARK       I    between atoms: C13_18  and  N1_5 
REMARK    3  A    between atoms: C1_6  and  C11_16 
REMARK    4  A    between atoms: C13_18  and  C14_19 
ROOT
HETATM    1  O1  UNK     1      18.324   4.023  29.079  1.00  0.00    -0.267 OA
HETATM    2  N1  UNK     1      18.985   4.772  31.186  1.00  0.00    -0.352 N 
HETATM    3  C13 UNK     1      18.708   3.817  30.225  1.00  0.00     0.258 C 
HETATM    4  H20 UNK     1      19.243   4.479  32.123  1.00  0.00     0.163 HD
ENDROOT
BRANCH   3   5
HETATM    5  C14 UNK     1      18.926   2.440  30.708  1.00  0.00     0.108 A 
HETATM    6  C15 UNK     1      19.509   1.598  29.848  1.00  0.00     0.037 A 
HETATM    7  C17 UNK     1      19.766   0.218  30.232  1.00  0.00     0.002 A 
HETATM    8  C18 UNK     1      19.394  -0.206  31.504  1.00  0.00     0.123 A 
HETATM    9  C19 UNK     1      20.372  -0.695  29.367  1.00  0.00     0.014 A 
HETATM   10  O2  UNK     1      18.781   0.686  32.405  1.00  0.00    -0.271 OA
HETATM   11  C20 UNK     1      19.611  -1.514  31.933  1.00  0.00     0.102 A 
HETATM   12  C16 UNK     1      18.523   2.011  32.066  1.00  0.00     0.304 A 
HETATM   13  O3  UNK     1      17.989   2.781  32.857  1.00  0.00    -0.259 OA
HETATM   14  C22 UNK     1      20.217  -2.419  31.065  1.00  0.00     0.040 A 
HETATM   15  C21 UNK     1      20.596  -2.011  29.784  1.00  0.00     0.004 A 
BRANCH  11  16
HETATM   16  O4  UNK     1      19.243  -1.914  33.180  1.00  0.00    -0.353 OA
HETATM   17  C23 UNK     1      20.258  -2.483  34.006  1.00  0.00     0.210 C 
ENDBRANCH  11  16
ENDBRANCH   3   5
BRANCH   2  18
HETATM   18  C11 UNK     1      18.849   6.186  30.948  1.00  0.00     0.089 C 
HETATM   19  C12 UNK     1      17.994   6.438  29.717  1.00  0.00     0.033 C 
BRANCH  18  20
HETATM   20  C1  UNK     1      18.258   6.878  32.178  1.00  0.00    -0.019 C 
HETATM   21  C5  UNK     1      17.167   7.890  31.753  1.00  0.00     0.016 C 
HETATM   22  C2  UNK     1      16.571   8.588  32.989  1.00  0.00    -0.013 C 
HETATM   23  C8  UNK     1      15.950   7.531  33.916  1.00  0.00     0.009 C 
HETATM   24  C9  UNK     1      17.688   9.329  33.740  1.00  0.00     0.009 C 
HETATM   25  C3  UNK     1      17.025   6.526  34.366  1.00  0.00    -0.013 C 
HETATM   26  C10 UNK     1      18.140   7.278  35.111  1.00  0.00     0.009 C 
HETATM   27  C6  UNK     1      17.620   5.834  33.127  1.00  0.00     0.016 C 
HETATM   28  C4  UNK     1      18.772   8.335  34.188  1.00  0.00    -0.013 C 
HETATM   29  C7  UNK     1      19.362   7.637  32.950  1.00  0.00     0.016 C 
ENDBRANCH  18  20
ENDBRANCH   2  18
TORSDOF 4
ENDMDL
MODEL 5
REMARK VINA RESULT:      -9.5      2.822      4.623
REMARK  4 active torsions:
REMARK  status: ('A' for Active; 'I' for Inactive)
REMARK    1  A    between atoms: C20_25  and  O4_4 
REMARK    2  A    between atoms: C11_16  and  N1_5 
REMARK       I    between atoms: C13_18  and  N1_5 
REMARK    3  A    between atoms: C1_6  and  C11_16 
REMARK    4  A    between atoms: C13_18  and  C14_19 
ROOT
HETATM    1  O1  UNK     1      21.965  -4.323  37.221  1.00  0.00    -0.267 OA
HETATM    2  N1  UNK     1      19.983  -5.131  38.144  1.00  0.00    -0.352 N 
HETATM    3  C13 UNK     1      20.755  -4.254  37.404  1.00  0.00     0.258 C 
HETATM    4  H20 UNK     1      18.995  -4.940  38.274  1.00  0.00     0.163 HD
ENDROOT
BRANCH   3   5
HETATM    5  C14 UNK     1      19.966  -3.160  36.809  1.00  0.00     0.108 A 
HETATM    6  C15 UNK     1      19.283  -2.390  37.664  1.00  0.00     0.037 A 
HETATM    7  C17 UNK     1      18.475  -1.285  37.173  1.00  0.00     0.002 A 
HETATM    8  C18 UNK     1      18.425  -1.045  35.803  1.00  0.00     0.123 A 
HETATM    9  C19 UNK     1      17.746  -0.457  38.029  1.00  0.00     0.014 A 
HETATM   10  O2  UNK     1      19.146  -1.858  34.908  1.00  0.00    -0.271 OA
HETATM   11  C20 UNK     1      17.670  -0.004  35.268  1.00  0.00     0.102 A 
HETATM   12  C16 UNK     1      19.928  -2.922  35.349  1.00  0.00     0.304 A 
HETATM   13  O3  UNK     1      20.554  -3.625  34.561  1.00  0.00    -0.259 OA
HETATM   14  C22 UNK     1      16.946   0.818  36.129  1.00  0.00     0.040 A 
HETATM   15  C21 UNK     1      16.984   0.592  37.507  1.00  0.00     0.004 A 
BRANCH  11  16
HETATM   16  O4  UNK     1      17.631   0.219  33.927  1.00  0.00    -0.353 OA
HETATM   17  C23 UNK     1      18.193   1.443  33.454  1.00  0.00     0.210 C 
ENDBRANCH  11  16
ENDBRANCH   3   5
BRANCH   2  18
HETATM   18  C11 UNK     1      20.531  -6.280  38.819  1.00  0.00     0.089 C 
HETATM   19  C12 UNK     1      19.776  -6.549  40.111  1.00  0.00     0.033 C 
BRANCH  18  20
HETATM   20  C1  UNK     1      20.496  -7.503  37.899  1.00  0.00    -0.019 C 
HETATM   21  C5  UNK     1      21.901  -7.772  37.310  1.00  0.00     0.016 C 
HETATM   22  C2  UNK     1      21.870  -9.000  36.383  1.00  0.00    -0.013 C 
HETATM   23  C8  UNK     1      21.411 -10.228  37.187  1.00  0.00     0.009 C 
HETATM   24  C9  UNK     1      20.877  -8.745  35.237  1.00  0.00     0.009 C 
HETATM   25  C3  UNK     1      20.006  -9.986  37.765  1.00  0.00    -0.013 C 
HETATM   26  C10 UNK     1      19.023  -9.726  36.611  1.00  0.00     0.009 C 
HETATM   27  C6  UNK     1      20.043  -8.755  38.687  1.00  0.00     0.016 C 
HETATM   28  C4  UNK     1      19.469  -8.496  35.804  1.00  0.00    -0.013 C 
HETATM   29  C7  UNK     1      19.508  -7.269  36.732  1.00  0.00     0.016 C 
ENDBRANCH  18  20
ENDBRANCH   2  18
TORSDOF 4
ENDMDL
MODEL 6
REMARK VINA RESULT:      -9.3      5.363     10.598
REMARK  4 active torsions:
REMARK  status: ('A' for Active; 'I' for Inactive)
REMARK    1  A    between atoms: C20_25  and  O4_4 
REMARK    2  A    between atoms: C11_16  and  N1_5 
REMARK       I    between atoms: C13_18  and  N1_5 
REMARK    3  A    between atoms: C1_6  and  C11_16 
REMARK    4  A    between atoms: C13_18  and  C14_19 
ROOT
HETATM    1  O1  UNK     1      17.647   3.547  31.560  1.00  0.00    -0.267 OA
HETATM    2  N1  UNK     1      18.649   4.782  33.264  1.00  0.00    -0.352 N 
HETATM    3  C13 UNK     1      18.126   3.641  32.684  1.00  0.00     0.258 C 
HETATM    4  H20 UNK     1      18.967   4.753  34.228  1.00  0.00     0.163 HD
ENDROOT
BRANCH   3   5
HETATM    5  C14 UNK     1      18.192   2.466  33.573  1.00  0.00     0.108 A 
HETATM    6  C15 UNK     1      17.895   2.681  34.860  1.00  0.00     0.037 A 
HETATM    7  C17 UNK     1      17.932   1.584  35.815  1.00  0.00     0.002 A 
HETATM    8  C18 UNK     1      18.283   0.314  35.367  1.00  0.00     0.123 A 
HETATM    9  C19 UNK     1      17.629   1.762  37.166  1.00  0.00     0.014 A 
HETATM   10  O2  UNK     1      18.595   0.094  34.011  1.00  0.00    -0.271 OA
HETATM   11  C20 UNK     1      18.339  -0.779  36.230  1.00  0.00     0.102 A 
HETATM   12  C16 UNK     1      18.567   1.124  33.075  1.00  0.00     0.304 A 
HETATM   13  O3  UNK     1      18.840   0.923  31.895  1.00  0.00    -0.259 OA
HETATM   14  C22 UNK     1      18.035  -0.593  37.576  1.00  0.00     0.040 A 
HETATM   15  C21 UNK     1      17.681   0.675  38.044  1.00  0.00     0.004 A 
BRANCH  11  16
HETATM   16  O4  UNK     1      18.683  -2.014  35.778  1.00  0.00    -0.353 OA
HETATM   17  C23 UNK     1      20.018  -2.452  36.032  1.00  0.00     0.210 C 
ENDBRANCH  11  16
ENDBRANCH   3   5
BRANCH   2  18
HETATM   18  C11 UNK     1      18.696   6.054  32.589  1.00  0.00     0.089 C 
HETATM   19  C12 UNK     1      18.716   5.855  31.082  1.00  0.00     0.033 C 
BRANCH  18  20
HETATM   20  C1  UNK     1      17.511   6.924  33.012  1.00  0.00    -0.019 C 
HETATM   21  C5  UNK     1      16.321   6.719  32.044  1.00  0.00     0.016 C 
HETATM   22  C2  UNK     1      15.127   7.594  32.467  1.00  0.00    -0.013 C 
HETATM   23  C8  UNK     1      14.697   7.208  33.892  1.00  0.00     0.009 C 
HETATM   24  C9  UNK     1      15.551   9.072  32.448  1.00  0.00     0.009 C 
HETATM   25  C3  UNK     1      15.863   7.425  34.872  1.00  0.00    -0.013 C 
HETATM   26  C10 UNK     1      16.282   8.904  34.841  1.00  0.00     0.009 C 
HETATM   27  C6  UNK     1      17.054   6.551  34.443  1.00  0.00     0.016 C 
HETATM   28  C4  UNK     1      16.720   9.298  33.420  1.00  0.00    -0.013 C 
HETATM   29  C7  UNK     1      17.909   8.419  32.995  1.00  0.00     0.016 C 
ENDBRANCH  18  20
ENDBRANCH   2  18
TORSDOF 4
ENDMDL
MODEL 7
REMARK VINA RESULT:      -9.3      8.698     11.932
REMARK  4 active torsions:
REMARK  status: ('A' for Active; 'I' for Inactive)
REMARK    1  A    between atoms: C20_25  and  O4_4 
REMARK    2  A    between atoms: C11_16  and  N1_5 
REMARK       I    between atoms: C13_18  and  N1_5 
REMARK    3  A    between atoms: C1_6  and  C11_16 
REMARK    4  A    between atoms: C13_18  and  C14_19 
ROOT
HETATM    1  O1  UNK     1      27.832  -9.452  40.063  1.00  0.00    -0.267 OA
HETATM    2  N1  UNK     1      28.611  -8.772  37.973  1.00  0.00    -0.352 N 
HETATM    3  C13 UNK     1      27.642  -9.090  38.907  1.00  0.00     0.258 C 
HETATM    4  H20 UNK     1      28.334  -8.538  37.025  1.00  0.00     0.163 HD
ENDROOT
BRANCH   3   5
HETATM    5  C14 UNK     1      26.272  -8.950  38.380  1.00  0.00     0.108 A 
HETATM    6  C15 UNK     1      25.432  -8.203  39.107  1.00  0.00     0.037 A 
HETATM    7  C17 UNK     1      24.059  -8.005  38.669  1.00  0.00     0.002 A 
HETATM    8  C18 UNK     1      23.637  -8.605  37.487  1.00  0.00     0.123 A 
HETATM    9  C19 UNK     1      23.150  -7.234  39.396  1.00  0.00     0.014 A 
HETATM   10  O2  UNK     1      24.525  -9.391  36.726  1.00  0.00    -0.271 OA
HETATM   11  C20 UNK     1      22.335  -8.457  37.013  1.00  0.00     0.102 A 
HETATM   12  C16 UNK     1      25.844  -9.597  37.120  1.00  0.00     0.304 A 
HETATM   13  O3  UNK     1      26.611 -10.282  36.450  1.00  0.00    -0.259 OA
HETATM   14  C22 UNK     1      21.434  -7.685  37.743  1.00  0.00     0.040 A 
HETATM   15  C21 UNK     1      21.840  -7.075  38.932  1.00  0.00     0.004 A 
BRANCH  11  16
HETATM   16  O4  UNK     1      21.937  -9.049  35.855  1.00  0.00    -0.353 OA
HETATM   17  C23 UNK     1      20.992  -8.341  35.054  1.00  0.00     0.210 C 
ENDBRANCH  11  16
ENDBRANCH   3   5
BRANCH   2  18
HETATM   18  C11 UNK     1      30.022  -8.831  38.257  1.00  0.00     0.089 C 
HETATM   19  C12 UNK     1      30.664  -9.998  37.524  1.00  0.00     0.033 C 
BRANCH  18  20
HETATM   20  C1  UNK     1      30.695  -7.509  37.879  1.00  0.00    -0.019 C 
HETATM   21  C5  UNK     1      30.091  -6.345  38.699  1.00  0.00     0.016 C 
HETATM   22  C2  UNK     1      30.765  -5.014  38.321  1.00  0.00    -0.013 C 
HETATM   23  C8  UNK     1      32.272  -5.111  38.611  1.00  0.00     0.009 C 
HETATM   24  C9  UNK     1      30.553  -4.746  36.823  1.00  0.00     0.009 C 
HETATM   25  C3  UNK     1      32.895  -6.252  37.788  1.00  0.00    -0.013 C 
HETATM   26  C10 UNK     1      32.672  -5.977  36.291  1.00  0.00     0.009 C 
HETATM   27  C6  UNK     1      32.214  -7.579  38.167  1.00  0.00     0.016 C 
HETATM   28  C4  UNK     1      31.167  -5.885  35.991  1.00  0.00    -0.013 C 
HETATM   29  C7  UNK     1      30.491  -7.213  36.375  1.00  0.00     0.016 C 
ENDBRANCH  18  20
ENDBRANCH   2  18
TORSDOF 4
ENDMDL
MODEL 8
REMARK VINA RESULT:      -9.2      7.460     10.656
REMARK  4 active torsions:
REMARK  status: ('A' for Active; 'I' for Inactive)
REMARK    1  A    between atoms: C20_25  and  O4_4 
REMARK    2  A    between atoms: C11_16  and  N1_5 
REMARK       I    between atoms: C13_18  and  N1_5 
REMARK    3  A    between atoms: C1_6  and  C11_16 
REMARK    4  A    between atoms: C13_18  and  C14_19 
ROOT
HETATM    1  O1  UNK     1      26.281  -9.133  39.787  1.00  0.00    -0.267 OA
HETATM    2  N1  UNK     1      27.183  -7.713  38.172  1.00  0.00    -0.352 N 
HETATM    3  C13 UNK     1      26.179  -8.215  38.981  1.00  0.00     0.258 C 
HETATM    4  H20 UNK     1      26.966  -6.985  37.499  1.00  0.00     0.163 HD
ENDROOT
BRANCH   3   5
HETATM    5  C14 UNK     1      24.893  -7.518  38.795  1.00  0.00     0.108 A 
HETATM    6  C15 UNK     1      23.808  -8.294  38.702  1.00  0.00     0.037 A 
HETATM    7  C17 UNK     1      22.493  -7.699  38.518  1.00  0.00     0.002 A 
HETATM    8  C18 UNK     1      22.387  -6.314  38.440  1.00  0.00     0.123 A 
HETATM    9  C19 UNK     1      21.334  -8.471  38.416  1.00  0.00     0.014 A 
HETATM   10  O2  UNK     1      23.533  -5.502  38.538  1.00  0.00    -0.271 OA
HETATM   11  C20 UNK     1      21.158  -5.682  38.263  1.00  0.00     0.102 A 
HETATM   12  C16 UNK     1      24.804  -6.042  38.716  1.00  0.00     0.304 A 
HETATM   13  O3  UNK     1      25.797  -5.327  38.801  1.00  0.00    -0.259 OA
HETATM   14  C22 UNK     1      20.006  -6.458  38.163  1.00  0.00     0.040 A 
HETATM   15  C21 UNK     1      20.094  -7.850  38.239  1.00  0.00     0.004 A 
BRANCH  11  16
HETATM   16  O4  UNK     1      21.069  -4.326  38.188  1.00  0.00    -0.353 OA
HETATM   17  C23 UNK     1      20.436  -3.779  37.032  1.00  0.00     0.210 C 
ENDBRANCH  11  16
ENDBRANCH   3   5
BRANCH   2  18
HETATM   18  C11 UNK     1      28.527  -8.232  38.178  1.00  0.00     0.089 C 
HETATM   19  C12 UNK     1      28.676  -9.337  37.144  1.00  0.00     0.033 C 
BRANCH  18  20
HETATM   20  C1  UNK     1      29.532  -7.105  37.925  1.00  0.00    -0.019 C 
HETATM   21  C5  UNK     1      30.979  -7.640  38.046  1.00  0.00     0.016 C 
HETATM   22  C2  UNK     1      31.993  -6.509  37.793  1.00  0.00    -0.013 C 
HETATM   23  C8  UNK     1      31.776  -5.942  36.380  1.00  0.00     0.009 C 
HETATM   24  C9  UNK     1      31.773  -5.392  38.827  1.00  0.00     0.009 C 
HETATM   25  C3  UNK     1      30.346  -5.387  36.248  1.00  0.00    -0.013 C 
HETATM   26  C10 UNK     1      30.136  -4.276  37.290  1.00  0.00     0.009 C 
HETATM   27  C6  UNK     1      29.338  -6.521  36.505  1.00  0.00     0.016 C 
HETATM   28  C4  UNK     1      30.345  -4.835  38.707  1.00  0.00    -0.013 C 
HETATM   29  C7  UNK     1      29.337  -5.970  38.957  1.00  0.00     0.016 C 
ENDBRANCH  18  20
ENDBRANCH   2  18
TORSDOF 4
ENDMDL
MODEL 9
REMARK VINA RESULT:      -9.2     25.122     28.281
REMARK  4 active torsions:
REMARK  status: ('A' for Active; 'I' for Inactive)
REMARK    1  A    between atoms: C20_25  and  O4_4 
REMARK    2  A    between atoms: C11_16  and  N1_5 
REMARK       I    between atoms: C13_18  and  N1_5 
REMARK    3  A    between atoms: C1_6  and  C11_16 
REMARK    4  A    between atoms: C13_18  and  C14_19 
ROOT
HETATM    1  O1  UNK     1       7.286   4.255   7.937  1.00  0.00    -0.267 OA
HETATM    2  N1  UNK     1       8.919   5.649   8.846  1.00  0.00    -0.352 N 
HETATM    3  C13 UNK     1       7.756   4.901   8.867  1.00  0.00     0.258 C 
HETATM    4  H20 UNK     1       9.180   6.191   9.663  1.00  0.00     0.163 HD
ENDROOT
BRANCH   3   5
HETATM    5  C14 UNK     1       7.077   4.936  10.175  1.00  0.00     0.108 A 
HETATM    6  C15 UNK     1       6.508   3.794  10.577  1.00  0.00     0.037 A 
HETATM    7  C17 UNK     1       5.815   3.729  11.854  1.00  0.00     0.002 A 
HETATM    8  C18 UNK     1       5.753   4.872  12.645  1.00  0.00     0.123 A 
HETATM    9  C19 UNK     1       5.208   2.558  12.313  1.00  0.00     0.014 A 
HETATM   10  O2  UNK     1       6.353   6.072  12.217  1.00  0.00    -0.271 OA
HETATM   11  C20 UNK     1       5.103   4.877  13.878  1.00  0.00     0.102 A 
HETATM   12  C16 UNK     1       7.024   6.164  11.000  1.00  0.00     0.304 A 
HETATM   13  O3  UNK     1       7.544   7.213  10.635  1.00  0.00    -0.259 OA
HETATM   14  C22 UNK     1       4.501   3.705  14.329  1.00  0.00     0.040 A 
HETATM   15  C21 UNK     1       4.553   2.547  13.548  1.00  0.00     0.004 A 
BRANCH  11  16
HETATM   16  O4  UNK     1       5.051   6.002  14.640  1.00  0.00    -0.353 OA
HETATM   17  C23 UNK     1       5.515   5.897  15.986  1.00  0.00     0.210 C 
ENDBRANCH  11  16
ENDBRANCH   3   5
BRANCH   2  18
HETATM   18  C11 UNK     1       9.756   5.764   7.679  1.00  0.00     0.089 C 
HETATM   19  C12 UNK     1       9.152   6.744   6.686  1.00  0.00     0.033 C 
BRANCH  18  20
HETATM   20  C1  UNK     1      11.171   6.190   8.080  1.00  0.00    -0.019 C 
HETATM   21  C5  UNK     1      12.055   6.365   6.822  1.00  0.00     0.016 C 
HETATM   22  C2  UNK     1      13.479   6.792   7.222  1.00  0.00    -0.013 C 
HETATM   23  C8  UNK     1      13.411   8.125   7.986  1.00  0.00     0.009 C 
HETATM   24  C9  UNK     1      14.094   5.717   8.133  1.00  0.00     0.009 C 
HETATM   25  C3  UNK     1      12.550   7.965   9.251  1.00  0.00    -0.013 C 
HETATM   26  C10 UNK     1      13.171   6.884  10.151  1.00  0.00     0.009 C 
HETATM   27  C6  UNK     1      11.130   7.534   8.846  1.00  0.00     0.016 C 
HETATM   28  C4  UNK     1      13.237   5.545   9.398  1.00  0.00    -0.013 C 
HETATM   29  C7  UNK     1      11.815   5.121   8.993  1.00  0.00     0.016 C 
ENDBRANCH  18  20
ENDBRANCH   2  18
TORSDOF 4
ENDMDL
MODEL 10
REMARK VINA RESULT:      -9.1      7.554      9.877
REMARK  4 active torsions:
REMARK  status: ('A' for Active; 'I' for Inactive)
REMARK    1  A    between atoms: C20_25  and  O4_4 
REMARK    2  A    between atoms: C11_16  and  N1_5 
REMARK       I    between atoms: C13_18  and  N1_5 
REMARK    3  A    between atoms: C1_6  and  C11_16 
REMARK    4  A    between atoms: C13_18  and  C14_19 
ROOT
HETATM    1  O1  UNK     1      25.807  -9.192  39.697  1.00  0.00    -0.267 OA
HETATM    2  N1  UNK     1      24.481  -7.776  38.403  1.00  0.00    -0.352 N 
HETATM    3  C13 UNK     1      25.667  -8.364  38.805  1.00  0.00     0.258 C 
HETATM    4  H20 UNK     1      24.496  -7.057  37.687  1.00  0.00     0.163 HD
ENDROOT
BRANCH   3   5
HETATM    5  C14 UNK     1      26.829  -7.894  38.028  1.00  0.00     0.108 A 
HETATM    6  C15 UNK     1      27.367  -8.775  37.177  1.00  0.00     0.037 A 
HETATM    7  C17 UNK     1      28.517  -8.405  36.366  1.00  0.00     0.002 A 
HETATM    8  C18 UNK     1      29.045  -7.123  36.492  1.00  0.00     0.123 A 
HETATM    9  C19 UNK     1      29.110  -9.292  35.466  1.00  0.00     0.014 A 
HETATM   10  O2  UNK     1      28.474  -6.200  37.390  1.00  0.00    -0.271 OA
HETATM   11  C20 UNK     1      30.145  -6.707  35.746  1.00  0.00     0.102 A 
HETATM   12  C16 UNK     1      27.374  -6.526  38.178  1.00  0.00     0.304 A 
HETATM   13  O3  UNK     1      26.883  -5.714  38.957  1.00  0.00    -0.259 OA
HETATM   14  C22 UNK     1      30.730  -7.597  34.849  1.00  0.00     0.040 A 
HETATM   15  C21 UNK     1      30.214  -8.888  34.710  1.00  0.00     0.004 A 
BRANCH  11  16
HETATM   16  O4  UNK     1      30.649  -5.451  35.880  1.00  0.00    -0.353 OA
HETATM   17  C23 UNK     1      31.871  -5.315  36.606  1.00  0.00     0.210 C 
ENDBRANCH  11  16
ENDBRANCH   3   5
BRANCH   2  18
HETATM   18  C11 UNK     1      23.211  -8.079  39.013  1.00  0.00     0.089 C 
HETATM   19  C12 UNK     1      22.688  -6.875  39.779  1.00  0.00     0.033 C 
BRANCH  18  20
HETATM   20  C1  UNK     1      22.207  -8.532  37.950  1.00  0.00    -0.019 C 
HETATM   21  C5  UNK     1      22.928  -9.322  36.832  1.00  0.00     0.016 C 
HETATM   22  C2  UNK     1      21.921  -9.779  35.761  1.00  0.00    -0.013 C 
HETATM   23  C8  UNK     1      20.859 -10.678  36.417  1.00  0.00     0.009 C 
HETATM   24  C9  UNK     1      21.234  -8.545  35.153  1.00  0.00     0.009 C 
HETATM   25  C3  UNK     1      20.118  -9.902  37.519  1.00  0.00    -0.013 C 
HETATM   26  C10 UNK     1      19.440  -8.668  36.901  1.00  0.00     0.009 C 
HETATM   27  C6  UNK     1      21.130  -9.445  38.584  1.00  0.00     0.016 C 
HETATM   28  C4  UNK     1      20.495  -7.759  36.248  1.00  0.00    -0.013 C 
HETATM   29  C7  UNK     1      21.506  -7.308  37.317  1.00  0.00     0.016 C 
ENDBRANCH  18  20
ENDBRANCH   2  18
TORSDOF 4
ENDMDL
