MODEL 1
REMARK VINA RESULT:      -8.4      0.000      0.000
REMARK  1 active torsions:
REMARK  status: ('A' for Active; 'I' for Inactive)
REMARK       I    between atoms: C6_11  and  N1_5 
REMARK    1  A    between atoms: C6_11  and  C9_14 
ROOT
HETATM    1 Cl1  UNK     1      20.530  -1.561  30.112  1.00  0.00    -0.084 Cl
HETATM    2  O2  UNK     1      18.565  -1.443  35.672  1.00  0.00    -0.274 OA
HETATM    3  O3  UNK     1      18.578  -2.278  37.799  1.00  0.00    -0.259 OA
HETATM    4  C9  UNK     1      20.013  -3.331  36.235  1.00  0.00     0.108 A 
HETATM    5  C12 UNK     1      20.478  -3.384  34.982  1.00  0.00     0.037 A 
HETATM    6  C13 UNK     1      19.998  -2.444  33.982  1.00  0.00     0.001 A 
HETATM    7  C14 UNK     1      19.006  -2.330  36.651  1.00  0.00     0.304 A 
HETATM    8  C15 UNK     1      19.052  -1.493  34.351  1.00  0.00     0.089 A 
HETATM    9  C16 UNK     1      20.455  -2.461  32.662  1.00  0.00     0.038 A 
HETATM   10  C17 UNK     1      18.551  -0.563  33.442  1.00  0.00     0.040 A 
HETATM   11  C18 UNK     1      19.962  -1.535  31.738  1.00  0.00     0.035 A 
HETATM   12  C19 UNK     1      19.013  -0.588  32.128  1.00  0.00     0.026 A 
ENDROOT
BRANCH   4  13
HETATM   13  C6  UNK     1      20.562  -4.330  37.178  1.00  0.00     0.264 C 
HETATM   14  O1  UNK     1      21.416  -3.938  37.974  1.00  0.00    -0.267 OA
HETATM   15  N1  UNK     1      20.077  -5.623  37.067  1.00  0.00    -0.308 N 
HETATM   16  C1  UNK     1      19.043  -6.141  36.118  1.00  0.00     0.093 C 
HETATM   17  C4  UNK     1      20.494  -6.711  37.875  1.00  0.00     0.044 A 
HETATM   18  C2  UNK     1      19.165  -7.679  36.142  1.00  0.00     0.066 C 
HETATM   19  C5  UNK     1      17.637  -5.707  36.547  1.00  0.00     0.033 C 
HETATM   20  C3  UNK     1      19.948  -7.904  37.395  1.00  0.00    -0.029 A 
HETATM   21  C7  UNK     1      20.208  -9.119  38.012  1.00  0.00     0.009 A 
HETATM   22  C10 UNK     1      21.027  -9.128  39.139  1.00  0.00     0.001 A 
HETATM   23  C11 UNK     1      21.580  -7.935  39.624  1.00  0.00     0.002 A 
HETATM   24  C8  UNK     1      21.319  -6.715  38.991  1.00  0.00     0.030 A 
ENDBRANCH   4  13
TORSDOF 1
ENDMDL
MODEL 2
REMARK VINA RESULT:      -8.2      8.618     13.193
REMARK  1 active torsions:
REMARK  status: ('A' for Active; 'I' for Inactive)
REMARK       I    between atoms: C6_11  and  N1_5 
REMARK    1  A    between atoms: C6_11  and  C9_14 
ROOT
HETATM    1 Cl1  UNK     1      18.297   0.290  35.465  1.00  0.00    -0.084 Cl
HETATM    2  O2  UNK     1      18.379   4.367  31.203  1.00  0.00    -0.274 OA
HETATM    3  O3  UNK     1      18.322   6.556  30.551  1.00  0.00    -0.259 OA
HETATM    4  C9  UNK     1      18.193   6.138  32.879  1.00  0.00     0.108 A 
HETATM    5  C12 UNK     1      18.171   5.237  33.868  1.00  0.00     0.037 A 
HETATM    6  C13 UNK     1      18.255   3.817  33.568  1.00  0.00     0.001 A 
HETATM    7  C14 UNK     1      18.301   5.734  31.460  1.00  0.00     0.304 A 
HETATM    8  C15 UNK     1      18.358   3.414  32.240  1.00  0.00     0.089 A 
HETATM    9  C16 UNK     1      18.236   2.842  34.568  1.00  0.00     0.038 A 
HETATM   10  C17 UNK     1      18.442   2.069  31.885  1.00  0.00     0.040 A 
HETATM   11  C18 UNK     1      18.320   1.488  34.228  1.00  0.00     0.035 A 
HETATM   12  C19 UNK     1      18.423   1.104  32.889  1.00  0.00     0.026 A 
ENDROOT
BRANCH   4  13
HETATM   13  C6  UNK     1      18.102   7.557  33.285  1.00  0.00     0.264 C 
HETATM   14  O1  UNK     1      19.161   8.176  33.400  1.00  0.00    -0.267 OA
HETATM   15  N1  UNK     1      16.831   8.058  33.519  1.00  0.00    -0.308 N 
HETATM   16  C1  UNK     1      15.523   7.344  33.392  1.00  0.00     0.093 C 
HETATM   17  C4  UNK     1      16.552   9.387  33.926  1.00  0.00     0.044 A 
HETATM   18  C2  UNK     1      14.483   8.210  34.134  1.00  0.00     0.066 C 
HETATM   19  C5  UNK     1      15.129   7.176  31.920  1.00  0.00     0.033 C 
HETATM   20  C3  UNK     1      15.197   9.519  34.243  1.00  0.00    -0.029 A 
HETATM   21  C7  UNK     1      14.669  10.726  34.674  1.00  0.00     0.009 A 
HETATM   22  C10 UNK     1      15.522  11.824  34.777  1.00  0.00     0.001 A 
HETATM   23  C11 UNK     1      16.882  11.698  34.462  1.00  0.00     0.002 A 
HETATM   24  C8  UNK     1      17.408  10.473  34.037  1.00  0.00     0.030 A 
ENDBRANCH   4  13
TORSDOF 1
ENDMDL
MODEL 3
REMARK VINA RESULT:      -8.1      2.362      3.011
REMARK  1 active torsions:
REMARK  status: ('A' for Active; 'I' for Inactive)
REMARK       I    between atoms: C6_11  and  N1_5 
REMARK    1  A    between atoms: C6_11  and  C9_14 
ROOT
HETATM    1 Cl1  UNK     1      16.406   1.682  37.572  1.00  0.00    -0.084 Cl
HETATM    2  O2  UNK     1      19.500  -2.111  34.281  1.00  0.00    -0.274 OA
HETATM    3  O3  UNK     1      20.758  -4.009  34.096  1.00  0.00    -0.259 OA
HETATM    4  C9  UNK     1      19.977  -3.459  36.264  1.00  0.00     0.108 A 
HETATM    5  C12 UNK     1      19.283  -2.617  37.038  1.00  0.00     0.037 A 
HETATM    6  C13 UNK     1      18.643  -1.447  36.458  1.00  0.00     0.001 A 
HETATM    7  C14 UNK     1      20.123  -3.240  34.808  1.00  0.00     0.304 A 
HETATM    8  C15 UNK     1      18.766  -1.221  35.090  1.00  0.00     0.089 A 
HETATM    9  C16 UNK     1      17.908  -0.541  37.226  1.00  0.00     0.038 A 
HETATM   10  C17 UNK     1      18.178  -0.120  34.472  1.00  0.00     0.040 A 
HETATM   11  C18 UNK     1      17.312   0.569  36.620  1.00  0.00     0.035 A 
HETATM   12  C19 UNK     1      17.446   0.778  35.246  1.00  0.00     0.026 A 
ENDROOT
BRANCH   4  13
HETATM   13  C6  UNK     1      20.591  -4.618  36.948  1.00  0.00     0.264 C 
HETATM   14  O1  UNK     1      21.597  -4.401  37.623  1.00  0.00    -0.267 OA
HETATM   15  N1  UNK     1      19.987  -5.850  36.749  1.00  0.00    -0.308 N 
HETATM   16  C1  UNK     1      18.768  -6.157  35.939  1.00  0.00     0.093 C 
HETATM   17  C4  UNK     1      20.441  -7.069  37.313  1.00  0.00     0.044 A 
HETATM   18  C2  UNK     1      18.761  -7.686  35.730  1.00  0.00     0.066 C 
HETATM   19  C5  UNK     1      17.496  -5.710  36.669  1.00  0.00     0.033 C 
HETATM   20  C3  UNK     1      19.722  -8.143  36.780  1.00  0.00    -0.029 A 
HETATM   21  C7  UNK     1      19.980  -9.449  37.167  1.00  0.00     0.009 A 
HETATM   22  C10 UNK     1      20.974  -9.675  38.118  1.00  0.00     0.001 A 
HETATM   23  C11 UNK     1      21.699  -8.603  38.654  1.00  0.00     0.002 A 
HETATM   24  C8  UNK     1      21.440  -7.288  38.251  1.00  0.00     0.030 A 
ENDBRANCH   4  13
TORSDOF 1
ENDMDL
MODEL 4
REMARK VINA RESULT:      -8.0     12.182     14.889
REMARK  1 active torsions:
REMARK  status: ('A' for Active; 'I' for Inactive)
REMARK       I    between atoms: C6_11  and  N1_5 
REMARK    1  A    between atoms: C6_11  and  C9_14 
ROOT
HETATM    1 Cl1  UNK     1      15.623  15.229  35.711  1.00  0.00    -0.084 Cl
HETATM    2  O2  UNK     1      14.082   9.564  35.144  1.00  0.00    -0.274 OA
HETATM    3  O3  UNK     1      14.319   7.537  34.118  1.00  0.00    -0.259 OA
HETATM    4  C9  UNK     1      15.709   9.291  33.339  1.00  0.00     0.108 A 
HETATM    5  C12 UNK     1      16.080  10.572  33.444  1.00  0.00     0.037 A 
HETATM    6  C13 UNK     1      15.455  11.439  34.429  1.00  0.00     0.001 A 
HETATM    7  C14 UNK     1      14.662   8.710  34.209  1.00  0.00     0.304 A 
HETATM    8  C15 UNK     1      14.469  10.914  35.259  1.00  0.00     0.089 A 
HETATM    9  C16 UNK     1      15.811  12.782  34.574  1.00  0.00     0.038 A 
HETATM   10  C17 UNK     1      13.831  11.690  36.224  1.00  0.00     0.040 A 
HETATM   11  C18 UNK     1      15.180  13.574  35.537  1.00  0.00     0.035 A 
HETATM   12  C19 UNK     1      14.192  13.029  36.360  1.00  0.00     0.026 A 
ENDROOT
BRANCH   4  13
HETATM   13  C6  UNK     1      16.403   8.491  32.307  1.00  0.00     0.264 C 
HETATM   14  O1  UNK     1      15.872   8.429  31.197  1.00  0.00    -0.267 OA
HETATM   15  N1  UNK     1      17.580   7.868  32.688  1.00  0.00    -0.308 N 
HETATM   16  C1  UNK     1      18.258   7.917  34.020  1.00  0.00     0.093 C 
HETATM   17  C4  UNK     1      18.371   7.054  31.838  1.00  0.00     0.044 A 
HETATM   18  C2  UNK     1      19.282   6.762  34.028  1.00  0.00     0.066 C 
HETATM   19  C5  UNK     1      18.965   9.261  34.229  1.00  0.00     0.033 C 
HETATM   20  C3  UNK     1      19.390   6.439  32.572  1.00  0.00    -0.029 A 
HETATM   21  C7  UNK     1      20.301   5.585  31.970  1.00  0.00     0.009 A 
HETATM   22  C10 UNK     1      20.191   5.357  30.600  1.00  0.00     0.001 A 
HETATM   23  C11 UNK     1      19.170   5.969  29.859  1.00  0.00     0.002 A 
HETATM   24  C8  UNK     1      18.249   6.821  30.476  1.00  0.00     0.030 A 
ENDBRANCH   4  13
TORSDOF 1
ENDMDL
MODEL 5
REMARK VINA RESULT:      -7.8     11.216     12.995
REMARK  1 active torsions:
REMARK  status: ('A' for Active; 'I' for Inactive)
REMARK       I    between atoms: C6_11  and  N1_5 
REMARK    1  A    between atoms: C6_11  and  C9_14 
ROOT
HETATM    1 Cl1  UNK     1      27.798  -6.958  39.828  1.00  0.00    -0.084 Cl
HETATM    2  O2  UNK     1      31.620  -4.254  36.242  1.00  0.00    -0.274 OA
HETATM    3  O3  UNK     1      32.912  -4.252  34.357  1.00  0.00    -0.259 OA
HETATM    4  C9  UNK     1      31.641  -6.208  34.772  1.00  0.00     0.108 A 
HETATM    5  C12 UNK     1      30.775  -6.848  35.566  1.00  0.00     0.037 A 
HETATM    6  C13 UNK     1      30.273  -6.207  36.771  1.00  0.00     0.001 A 
HETATM    7  C14 UNK     1      32.119  -4.842  35.082  1.00  0.00     0.304 A 
HETATM    8  C15 UNK     1      30.707  -4.922  37.081  1.00  0.00     0.089 A 
HETATM    9  C16 UNK     1      29.368  -6.837  37.628  1.00  0.00     0.038 A 
HETATM   10  C17 UNK     1      30.265  -4.252  38.220  1.00  0.00     0.040 A 
HETATM   11  C18 UNK     1      28.914  -6.177  38.775  1.00  0.00     0.035 A 
HETATM   12  C19 UNK     1      29.362  -4.888  39.069  1.00  0.00     0.026 A 
ENDROOT
BRANCH   4  13
HETATM   13  C6  UNK     1      32.094  -6.944  33.572  1.00  0.00     0.264 C 
HETATM   14  O1  UNK     1      33.039  -7.720  33.715  1.00  0.00    -0.267 OA
HETATM   15  N1  UNK     1      31.425  -6.677  32.388  1.00  0.00    -0.308 N 
HETATM   16  C1  UNK     1      30.276  -5.744  32.171  1.00  0.00     0.093 C 
HETATM   17  C4  UNK     1      31.728  -7.277  31.140  1.00  0.00     0.044 A 
HETATM   18  C2  UNK     1      30.179  -5.526  30.646  1.00  0.00     0.066 C 
HETATM   19  C5  UNK     1      28.972  -6.342  32.712  1.00  0.00     0.033 C 
HETATM   20  C3  UNK     1      30.990  -6.666  30.121  1.00  0.00    -0.029 A 
HETATM   21  C7  UNK     1      31.110  -7.070  28.800  1.00  0.00     0.009 A 
HETATM   22  C10 UNK     1      31.981  -8.116  28.503  1.00  0.00     0.001 A 
HETATM   23  C11 UNK     1      32.725  -8.731  29.520  1.00  0.00     0.002 A 
HETATM   24  C8  UNK     1      32.605  -8.311  30.849  1.00  0.00     0.030 A 
ENDBRANCH   4  13
TORSDOF 1
ENDMDL
MODEL 6
REMARK VINA RESULT:      -7.8      7.643     12.223
REMARK  1 active torsions:
REMARK  status: ('A' for Active; 'I' for Inactive)
REMARK       I    between atoms: C6_11  and  N1_5 
REMARK    1  A    between atoms: C6_11  and  C9_14 
ROOT
HETATM    1 Cl1  UNK     1      17.619  -0.373  37.476  1.00  0.00    -0.084 Cl
HETATM    2  O2  UNK     1      18.057   2.630  32.418  1.00  0.00    -0.274 OA
HETATM    3  O3  UNK     1      18.455   4.581  31.298  1.00  0.00    -0.259 OA
HETATM    4  C9  UNK     1      18.596   4.666  33.661  1.00  0.00     0.108 A 
HETATM    5  C12 UNK     1      18.503   4.012  34.825  1.00  0.00     0.037 A 
HETATM    6  C13 UNK     1      18.174   2.596  34.847  1.00  0.00     0.001 A 
HETATM    7  C14 UNK     1      18.371   3.986  32.366  1.00  0.00     0.304 A 
HETATM    8  C15 UNK     1      17.959   1.936  33.640  1.00  0.00     0.089 A 
HETATM    9  C16 UNK     1      18.067   1.873  36.037  1.00  0.00     0.038 A 
HETATM   10  C17 UNK     1      17.641   0.580  33.591  1.00  0.00     0.040 A 
HETATM   11  C18 UNK     1      17.749   0.513  36.005  1.00  0.00     0.035 A 
HETATM   12  C19 UNK     1      17.537  -0.132  34.784  1.00  0.00     0.026 A 
ENDROOT
BRANCH   4  13
HETATM   13  C6  UNK     1      18.934   6.103  33.744  1.00  0.00     0.264 C 
HETATM   14  O1  UNK     1      20.130   6.397  33.744  1.00  0.00    -0.267 OA
HETATM   15  N1  UNK     1      17.872   6.988  33.833  1.00  0.00    -0.308 N 
HETATM   16  C1  UNK     1      16.410   6.675  33.837  1.00  0.00     0.093 C 
HETATM   17  C4  UNK     1      18.005   8.397  33.932  1.00  0.00     0.044 A 
HETATM   18  C2  UNK     1      15.696   7.944  34.347  1.00  0.00     0.066 C 
HETATM   19  C5  UNK     1      15.921   6.314  32.429  1.00  0.00     0.033 C 
HETATM   20  C3  UNK     1      16.760   8.981  34.182  1.00  0.00    -0.029 A 
HETATM   21  C7  UNK     1      16.621  10.353  34.325  1.00  0.00     0.009 A 
HETATM   22  C10 UNK     1      17.756  11.151  34.204  1.00  0.00     0.001 A 
HETATM   23  C11 UNK     1      19.008  10.571  33.955  1.00  0.00     0.002 A 
HETATM   24  C8  UNK     1      19.141   9.185  33.821  1.00  0.00     0.030 A 
ENDBRANCH   4  13
TORSDOF 1
ENDMDL
MODEL 7
REMARK VINA RESULT:      -7.8     11.827     13.398
REMARK  1 active torsions:
REMARK  status: ('A' for Active; 'I' for Inactive)
REMARK       I    between atoms: C6_11  and  N1_5 
REMARK    1  A    between atoms: C6_11  and  C9_14 
ROOT
HETATM    1 Cl1  UNK     1      35.014  -7.294  30.133  1.00  0.00    -0.084 Cl
HETATM    2  O2  UNK     1      35.149  -6.875  36.014  1.00  0.00    -0.274 OA
HETATM    3  O3  UNK     1      34.061  -6.737  38.019  1.00  0.00    -0.259 OA
HETATM    4  C9  UNK     1      32.704  -6.880  36.082  1.00  0.00     0.108 A 
HETATM    5  C12 UNK     1      32.641  -6.974  34.748  1.00  0.00     0.037 A 
HETATM    6  C13 UNK     1      33.860  -7.026  33.958  1.00  0.00     0.001 A 
HETATM    7  C14 UNK     1      33.998  -6.824  36.798  1.00  0.00     0.304 A 
HETATM    8  C15 UNK     1      35.088  -6.975  34.611  1.00  0.00     0.089 A 
HETATM    9  C16 UNK     1      33.842  -7.125  32.565  1.00  0.00     0.038 A 
HETATM   10  C17 UNK     1      36.293  -7.020  33.912  1.00  0.00     0.040 A 
HETATM   11  C18 UNK     1      35.042  -7.171  31.850  1.00  0.00     0.035 A 
HETATM   12  C19 UNK     1      36.265  -7.119  32.523  1.00  0.00     0.026 A 
ENDROOT
BRANCH   4  13
HETATM   13  C6  UNK     1      31.410  -6.833  36.796  1.00  0.00     0.264 C 
HETATM   14  O1  UNK     1      30.848  -5.740  36.864  1.00  0.00    -0.267 OA
HETATM   15  N1  UNK     1      30.957  -8.024  37.341  1.00  0.00    -0.308 N 
HETATM   16  C1  UNK     1      31.605  -9.370  37.282  1.00  0.00     0.093 C 
HETATM   17  C4  UNK     1      29.747  -8.167  38.068  1.00  0.00     0.044 A 
HETATM   18  C2  UNK     1      30.912 -10.233  38.357  1.00  0.00     0.066 C 
HETATM   19  C5  UNK     1      31.436 -10.002  35.896  1.00  0.00     0.033 C 
HETATM   20  C3  UNK     1      29.670  -9.445  38.627  1.00  0.00    -0.029 A 
HETATM   21  C7  UNK     1      28.582  -9.836  39.392  1.00  0.00     0.009 A 
HETATM   22  C10 UNK     1      27.547  -8.923  39.587  1.00  0.00     0.001 A 
HETATM   23  C11 UNK     1      27.619  -7.639  39.030  1.00  0.00     0.002 A 
HETATM   24  C8  UNK     1      28.725  -7.250  38.268  1.00  0.00     0.030 A 
ENDBRANCH   4  13
TORSDOF 1
ENDMDL
MODEL 8
REMARK VINA RESULT:      -7.7      7.155     11.925
REMARK  1 active torsions:
REMARK  status: ('A' for Active; 'I' for Inactive)
REMARK       I    between atoms: C6_11  and  N1_5 
REMARK    1  A    between atoms: C6_11  and  C9_14 
ROOT
HETATM    1 Cl1  UNK     1      18.636  -1.606  34.435  1.00  0.00    -0.084 Cl
HETATM    2  O2  UNK     1      19.112   2.665  30.395  1.00  0.00    -0.274 OA
HETATM    3  O3  UNK     1      18.776   4.830  29.748  1.00  0.00    -0.259 OA
HETATM    4  C9  UNK     1      18.040   4.244  31.922  1.00  0.00     0.108 A 
HETATM    5  C12 UNK     1      17.917   3.297  32.859  1.00  0.00     0.037 A 
HETATM    6  C13 UNK     1      18.398   1.948  32.606  1.00  0.00     0.001 A 
HETATM    7  C14 UNK     1      18.661   3.965  30.608  1.00  0.00     0.304 A 
HETATM    8  C15 UNK     1      18.986   1.663  31.377  1.00  0.00     0.089 A 
HETATM    9  C16 UNK     1      18.291   0.928  33.554  1.00  0.00     0.038 A 
HETATM   10  C17 UNK     1      19.468   0.392  31.071  1.00  0.00     0.040 A 
HETATM   11  C18 UNK     1      18.770  -0.352  33.262  1.00  0.00     0.035 A 
HETATM   12  C19 UNK     1      19.357  -0.619  32.023  1.00  0.00     0.026 A 
ENDROOT
BRANCH   4  13
HETATM   13  C6  UNK     1      17.519   5.583  32.274  1.00  0.00     0.264 C 
HETATM   14  O1  UNK     1      16.348   5.823  31.979  1.00  0.00    -0.267 OA
HETATM   15  N1  UNK     1      18.405   6.454  32.889  1.00  0.00    -0.308 N 
HETATM   16  C1  UNK     1      19.830   6.204  33.264  1.00  0.00     0.093 C 
HETATM   17  C4  UNK     1      18.086   7.777  33.286  1.00  0.00     0.044 A 
HETATM   18  C2  UNK     1      20.454   7.588  33.541  1.00  0.00     0.066 C 
HETATM   19  C5  UNK     1      19.924   5.315  34.510  1.00  0.00     0.033 C 
HETATM   20  C3  UNK     1      19.240   8.443  33.711  1.00  0.00    -0.029 A 
HETATM   21  C7  UNK     1      19.197   9.758  34.149  1.00  0.00     0.009 A 
HETATM   22  C10 UNK     1      17.966  10.410  34.167  1.00  0.00     0.001 A 
HETATM   23  C11 UNK     1      16.806   9.749  33.740  1.00  0.00     0.002 A 
HETATM   24  C8  UNK     1      16.860   8.425  33.291  1.00  0.00     0.030 A 
ENDBRANCH   4  13
TORSDOF 1
ENDMDL
MODEL 9
REMARK VINA RESULT:      -7.7     10.305     12.528
REMARK  1 active torsions:
REMARK  status: ('A' for Active; 'I' for Inactive)
REMARK       I    between atoms: C6_11  and  N1_5 
REMARK    1  A    between atoms: C6_11  and  C9_14 
ROOT
HETATM    1 Cl1  UNK     1      26.917 -10.238  39.804  1.00  0.00    -0.084 Cl
HETATM    2  O2  UNK     1      29.897  -5.672  37.553  1.00  0.00    -0.274 OA
HETATM    3  O3  UNK     1      31.242  -4.786  35.933  1.00  0.00    -0.259 OA
HETATM    4  C9  UNK     1      30.644  -7.065  35.687  1.00  0.00     0.108 A 
HETATM    5  C12 UNK     1      29.978  -8.119  36.173  1.00  0.00     0.037 A 
HETATM    6  C13 UNK     1      29.217  -8.002  37.406  1.00  0.00     0.001 A 
HETATM    7  C14 UNK     1      30.634  -5.754  36.375  1.00  0.00     0.304 A 
HETATM    8  C15 UNK     1      29.194  -6.778  38.069  1.00  0.00     0.089 A 
HETATM    9  C16 UNK     1      28.508  -9.075  37.950  1.00  0.00     0.038 A 
HETATM   10  C17 UNK     1      28.484  -6.599  39.255  1.00  0.00     0.040 A 
HETATM   11  C18 UNK     1      27.791  -8.911  39.139  1.00  0.00     0.035 A 
HETATM   12  C19 UNK     1      27.779  -7.675  39.789  1.00  0.00     0.026 A 
ENDROOT
BRANCH   4  13
HETATM   13  C6  UNK     1      31.388  -7.285  34.429  1.00  0.00     0.264 C 
HETATM   14  O1  UNK     1      32.479  -7.849  34.516  1.00  0.00    -0.267 OA
HETATM   15  N1  UNK     1      30.797  -6.818  33.266  1.00  0.00    -0.308 N 
HETATM   16  C1  UNK     1      29.478  -6.130  33.116  1.00  0.00     0.093 C 
HETATM   17  C4  UNK     1      31.368  -6.929  31.973  1.00  0.00     0.044 A 
HETATM   18  C2  UNK     1      29.484  -5.482  31.715  1.00  0.00     0.066 C 
HETATM   19  C5  UNK     1      28.320  -7.126  33.241  1.00  0.00     0.033 C 
HETATM   20  C3  UNK     1      30.608  -6.208  31.048  1.00  0.00    -0.029 A 
HETATM   21  C7  UNK     1      30.960  -6.154  29.707  1.00  0.00     0.009 A 
HETATM   22  C10 UNK     1      32.093  -6.849  29.291  1.00  0.00     0.001 A 
HETATM   23  C11 UNK     1      32.861  -7.573  30.214  1.00  0.00     0.002 A 
HETATM   24  C8  UNK     1      32.504  -7.614  31.566  1.00  0.00     0.030 A 
ENDBRANCH   4  13
TORSDOF 1
ENDMDL
MODEL 10
REMARK VINA RESULT:      -7.6     11.835     13.561
REMARK  1 active torsions:
REMARK  status: ('A' for Active; 'I' for Inactive)
REMARK       I    between atoms: C6_11  and  N1_5 
REMARK    1  A    between atoms: C6_11  and  C9_14 
ROOT
HETATM    1 Cl1  UNK     1      27.000  -9.259  39.799  1.00  0.00    -0.084 Cl
HETATM    2  O2  UNK     1      29.880  -4.640  37.528  1.00  0.00    -0.274 OA
HETATM    3  O3  UNK     1      31.761  -3.737  36.598  1.00  0.00    -0.259 OA
HETATM    4  C9  UNK     1      31.855  -6.035  37.167  1.00  0.00     0.108 A 
HETATM    5  C12 UNK     1      31.229  -7.101  37.678  1.00  0.00     0.037 A 
HETATM    6  C13 UNK     1      29.859  -6.990  38.153  1.00  0.00     0.001 A 
HETATM    7  C14 UNK     1      31.191  -4.717  37.066  1.00  0.00     0.304 A 
HETATM    8  C15 UNK     1      29.215  -5.759  38.066  1.00  0.00     0.089 A 
HETATM    9  C16 UNK     1      29.166  -8.076  38.692  1.00  0.00     0.038 A 
HETATM   10  C17 UNK     1      27.903  -5.585  38.502  1.00  0.00     0.040 A 
HETATM   11  C18 UNK     1      27.850  -7.917  39.134  1.00  0.00     0.035 A 
HETATM   12  C19 UNK     1      27.220  -6.674  39.039  1.00  0.00     0.026 A 
ENDROOT
BRANCH   4  13
HETATM   13  C6  UNK     1      33.246  -6.250  36.713  1.00  0.00     0.264 C 
HETATM   14  O1  UNK     1      34.140  -6.071  37.542  1.00  0.00    -0.267 OA
HETATM   15  N1  UNK     1      33.419  -6.615  35.388  1.00  0.00    -0.308 N 
HETATM   16  C1  UNK     1      32.367  -6.843  34.351  1.00  0.00     0.093 C 
HETATM   17  C4  UNK     1      34.677  -6.851  34.776  1.00  0.00     0.044 A 
HETATM   18  C2  UNK     1      33.092  -6.835  32.988  1.00  0.00     0.066 C 
HETATM   19  C5  UNK     1      31.657  -8.184  34.572  1.00  0.00     0.033 C 
HETATM   20  C3  UNK     1      34.516  -7.028  33.399  1.00  0.00    -0.029 A 
HETATM   21  C7  UNK     1      35.600  -7.270  32.569  1.00  0.00     0.009 A 
HETATM   22  C10 UNK     1      36.869  -7.346  33.141  1.00  0.00     0.001 A 
HETATM   23  C11 UNK     1      37.037  -7.167  34.521  1.00  0.00     0.002 A 
HETATM   24  C8  UNK     1      35.939  -6.914  35.349  1.00  0.00     0.030 A 
ENDBRANCH   4  13
TORSDOF 1
ENDMDL
