MODEL 1
REMARK VINA RESULT:      -9.2      0.000      0.000
REMARK  1 active torsions:
REMARK  status: ('A' for Active; 'I' for Inactive)
REMARK    1  A    between atoms: C10_13  and  C6_9 
ROOT
HETATM    1  O1  UNK     1      18.813   4.830  29.762  1.00  0.00    -0.320 OA
HETATM    2  O2  UNK     1      18.581   0.427  31.724  1.00  0.00    -0.274 OA
HETATM    3  O3  UNK     1      18.463  -1.629  32.717  1.00  0.00    -0.260 OA
HETATM    4  C1  UNK     1      18.537   4.605  31.992  1.00  0.00     0.012 A 
HETATM    5  C2  UNK     1      18.689   3.937  30.783  1.00  0.00     0.094 A 
HETATM    6  C3  UNK     1      18.405   2.440  33.102  1.00  0.00     0.005 A 
HETATM    7  C4  UNK     1      18.708   2.552  30.656  1.00  0.00     0.008 A 
HETATM    8  C5  UNK     1      18.561   1.836  31.850  1.00  0.00     0.099 A 
HETATM    9  C6  UNK     1      18.572   5.989  31.675  1.00  0.00     0.009 A 
HETATM   10  C7  UNK     1      18.392   3.846  33.171  1.00  0.00     0.030 A 
HETATM   11  C8  UNK     1      18.261   1.577  34.285  1.00  0.00    -0.043 A 
HETATM   12  C9  UNK     1      18.741   6.071  30.312  1.00  0.00     0.155 A 
HETATM   13  C11 UNK     1      18.873   1.868  29.343  1.00  0.00     0.054 C 
HETATM   14  C12 UNK     1      18.284   0.246  34.129  1.00  0.00     0.090 A 
HETATM   15  C13 UNK     1      18.092   2.192  35.644  1.00  0.00     0.049 C 
HETATM   16  C14 UNK     1      18.447  -0.408  32.821  1.00  0.00     0.288 A 
ENDROOT
BRANCH   9  17
HETATM   17  C10 UNK     1      18.464   7.142  32.518  1.00  0.00    -0.023 A 
HETATM   18  C16 UNK     1      19.504   7.475  33.388  1.00  0.00     0.012 A 
HETATM   19  C18 UNK     1      19.400   8.598  34.209  1.00  0.00     0.001 A 
HETATM   20  C19 UNK     1      18.253   9.391  34.162  1.00  0.00     0.000 A 
HETATM   21  C17 UNK     1      17.213   9.061  33.294  1.00  0.00     0.001 A 
HETATM   22  C15 UNK     1      17.317   7.939  32.473  1.00  0.00     0.012 A 
ENDBRANCH   9  17
TORSDOF 1
ENDMDL
MODEL 2
REMARK VINA RESULT:      -8.7      1.847      3.110
REMARK  1 active torsions:
REMARK  status: ('A' for Active; 'I' for Inactive)
REMARK    1  A    between atoms: C10_13  and  C6_9 
ROOT
HETATM    1  O1  UNK     1      18.621   1.596  31.465  1.00  0.00    -0.320 OA
HETATM    2  O2  UNK     1      18.377  -1.536  35.128  1.00  0.00    -0.274 OA
HETATM    3  O3  UNK     1      18.251  -2.967  36.907  1.00  0.00    -0.260 OA
HETATM    4  C1  UNK     1      18.262   2.346  33.565  1.00  0.00     0.012 A 
HETATM    5  C2  UNK     1      18.470   1.227  32.767  1.00  0.00     0.094 A 
HETATM    6  C3  UNK     1      18.120   0.867  35.497  1.00  0.00     0.005 A 
HETATM    7  C4  UNK     1      18.514  -0.077  33.251  1.00  0.00     0.008 A 
HETATM    8  C5  UNK     1      18.333  -0.212  34.633  1.00  0.00     0.099 A 
HETATM    9  C6  UNK     1      18.289   3.459  32.682  1.00  0.00     0.009 A 
HETATM   10  C7  UNK     1      18.083   2.165  34.951  1.00  0.00     0.030 A 
HETATM   11  C8  UNK     1      17.943   0.595  36.931  1.00  0.00    -0.043 A 
HETATM   12  C9  UNK     1      18.509   2.950  31.423  1.00  0.00     0.155 A 
HETATM   13  C11 UNK     1      18.740  -1.255  32.367  1.00  0.00     0.054 C 
HETATM   14  C12 UNK     1      17.991  -0.672  37.367  1.00  0.00     0.090 A 
HETATM   15  C13 UNK     1      17.712   1.731  37.886  1.00  0.00     0.049 C 
HETATM   16  C14 UNK     1      18.213  -1.820  36.474  1.00  0.00     0.288 A 
ENDROOT
BRANCH   9  17
HETATM   17  C10 UNK     1      18.131   4.858  32.941  1.00  0.00    -0.023 A 
HETATM   18  C16 UNK     1      19.006   5.513  33.811  1.00  0.00     0.012 A 
HETATM   19  C18 UNK     1      18.853   6.876  34.064  1.00  0.00     0.001 A 
HETATM   20  C19 UNK     1      17.825   7.589  33.447  1.00  0.00     0.000 A 
HETATM   21  C17 UNK     1      16.951   6.938  32.577  1.00  0.00     0.001 A 
HETATM   22  C15 UNK     1      17.103   5.574  32.324  1.00  0.00     0.012 A 
ENDBRANCH   9  17
TORSDOF 1
ENDMDL
MODEL 3
REMARK VINA RESULT:      -8.6      3.109      7.146
REMARK  1 active torsions:
REMARK  status: ('A' for Active; 'I' for Inactive)
REMARK    1  A    between atoms: C10_13  and  C6_9 
ROOT
HETATM    1  O1  UNK     1      20.447   7.153  32.994  1.00  0.00    -0.320 OA
HETATM    2  O2  UNK     1      16.891   9.889  34.773  1.00  0.00    -0.274 OA
HETATM    3  O3  UNK     1      15.159  11.142  35.586  1.00  0.00    -0.260 OA
HETATM    4  C1  UNK     1      18.293   6.592  32.606  1.00  0.00     0.012 A 
HETATM    5  C2  UNK     1      19.149   7.503  33.215  1.00  0.00     0.094 A 
HETATM    6  C3  UNK     1      16.411   7.891  33.447  1.00  0.00     0.005 A 
HETATM    7  C4  UNK     1      18.719   8.609  33.942  1.00  0.00     0.008 A 
HETATM    8  C5  UNK     1      17.331   8.766  34.034  1.00  0.00     0.099 A 
HETATM    9  C6  UNK     1      19.134   5.633  31.980  1.00  0.00     0.009 A 
HETATM   10  C7  UNK     1      16.902   6.788  32.723  1.00  0.00     0.030 A 
HETATM   11  C8  UNK     1      14.975   8.164  33.615  1.00  0.00    -0.043 A 
HETATM   12  C9  UNK     1      20.427   6.019  32.245  1.00  0.00     0.155 A 
HETATM   13  C11 UNK     1      19.664   9.566  34.582  1.00  0.00     0.054 C 
HETATM   14  C12 UNK     1      14.593   9.238  34.322  1.00  0.00     0.090 A 
HETATM   15  C13 UNK     1      13.961   7.245  32.998  1.00  0.00     0.049 C 
HETATM   16  C14 UNK     1      15.545  10.169  34.947  1.00  0.00     0.288 A 
ENDROOT
BRANCH   9  17
HETATM   17  C10 UNK     1      18.809   4.471  31.210  1.00  0.00    -0.023 A 
HETATM   18  C16 UNK     1      18.910   4.501  29.817  1.00  0.00     0.012 A 
HETATM   19  C18 UNK     1      18.594   3.369  29.066  1.00  0.00     0.001 A 
HETATM   20  C19 UNK     1      18.177   2.203  29.706  1.00  0.00     0.000 A 
HETATM   21  C17 UNK     1      18.075   2.169  31.097  1.00  0.00     0.001 A 
HETATM   22  C15 UNK     1      18.391   3.301  31.848  1.00  0.00     0.012 A 
ENDBRANCH   9  17
TORSDOF 1
ENDMDL
MODEL 4
REMARK VINA RESULT:      -8.5      1.556      6.215
REMARK  1 active torsions:
REMARK  status: ('A' for Active; 'I' for Inactive)
REMARK    1  A    between atoms: C10_13  and  C6_9 
ROOT
HETATM    1  O1  UNK     1      18.669  -0.189  32.029  1.00  0.00    -0.320 OA
HETATM    2  O2  UNK     1      18.779   4.248  30.133  1.00  0.00    -0.274 OA
HETATM    3  O3  UNK     1      18.819   6.376  29.299  1.00  0.00    -0.260 OA
HETATM    4  C1  UNK     1      18.377   1.612  33.361  1.00  0.00     0.012 A 
HETATM    5  C2  UNK     1      18.605   1.171  32.062  1.00  0.00     0.094 A 
HETATM    6  C3  UNK     1      18.410   3.901  32.525  1.00  0.00     0.005 A 
HETATM    7  C4  UNK     1      18.743   2.017  30.966  1.00  0.00     0.008 A 
HETATM    8  C5  UNK     1      18.638   3.385  31.245  1.00  0.00     0.099 A 
HETATM    9  C6  UNK     1      18.302   0.438  34.158  1.00  0.00     0.009 A 
HETATM   10  C7  UNK     1      18.278   2.998  33.598  1.00  0.00     0.030 A 
HETATM   11  C8  UNK     1      18.318   5.359  32.690  1.00  0.00    -0.043 A 
HETATM   12  C9  UNK     1      18.485  -0.624  33.303  1.00  0.00     0.155 A 
HETATM   13  C11 UNK     1      18.986   1.511  29.586  1.00  0.00     0.054 C 
HETATM   14  C12 UNK     1      18.456   6.148  31.614  1.00  0.00     0.090 A 
HETATM   15  C13 UNK     1      18.074   5.946  34.050  1.00  0.00     0.049 C 
HETATM   16  C14 UNK     1      18.698   5.625  30.260  1.00  0.00     0.288 A 
ENDROOT
BRANCH   9  17
HETATM   17  C10 UNK     1      18.084   0.279  35.564  1.00  0.00    -0.023 A 
HETATM   18  C16 UNK     1      18.174  -0.986  36.149  1.00  0.00     0.012 A 
HETATM   19  C18 UNK     1      17.962  -1.142  37.519  1.00  0.00     0.001 A 
HETATM   20  C19 UNK     1      17.660  -0.032  38.308  1.00  0.00     0.000 A 
HETATM   21  C17 UNK     1      17.570   1.233  37.727  1.00  0.00     0.001 A 
HETATM   22  C15 UNK     1      17.782   1.389  36.357  1.00  0.00     0.012 A 
ENDBRANCH   9  17
TORSDOF 1
ENDMDL
MODEL 5
REMARK VINA RESULT:      -8.5      4.510      9.208
REMARK  1 active torsions:
REMARK  status: ('A' for Active; 'I' for Inactive)
REMARK    1  A    between atoms: C10_13  and  C6_9 
ROOT
HETATM    1  O1  UNK     1      18.355  -0.867  36.528  1.00  0.00    -0.320 OA
HETATM    2  O2  UNK     1      18.713   0.758  31.998  1.00  0.00    -0.274 OA
HETATM    3  O3  UNK     1      18.918   1.470  29.835  1.00  0.00    -0.260 OA
HETATM    4  C1  UNK     1      19.430  -2.101  34.971  1.00  0.00     0.012 A 
HETATM    5  C2  UNK     1      18.737  -0.923  35.222  1.00  0.00     0.094 A 
HETATM    6  C3  UNK     1      19.679  -1.391  32.654  1.00  0.00     0.005 A 
HETATM    7  C4  UNK     1      18.480   0.049  34.260  1.00  0.00     0.008 A 
HETATM    8  C5  UNK     1      18.972  -0.228  32.979  1.00  0.00     0.099 A 
HETATM    9  C6  UNK     1      19.465  -2.797  36.209  1.00  0.00     0.009 A 
HETATM   10  C7  UNK     1      19.909  -2.340  33.668  1.00  0.00     0.030 A 
HETATM   11  C8  UNK     1      20.146  -1.566  31.270  1.00  0.00    -0.043 A 
HETATM   12  C9  UNK     1      18.801  -2.007  37.118  1.00  0.00     0.155 A 
HETATM   13  C11 UNK     1      17.733   1.302  34.562  1.00  0.00     0.054 C 
HETATM   14  C12 UNK     1      19.882  -0.611  30.366  1.00  0.00     0.090 A 
HETATM   15  C13 UNK     1      20.907  -2.802  30.887  1.00  0.00     0.049 C 
HETATM   16  C14 UNK     1      19.141   0.618  30.688  1.00  0.00     0.288 A 
ENDROOT
BRANCH   9  17
HETATM   17  C10 UNK     1      20.045  -4.062  36.551  1.00  0.00    -0.023 A 
HETATM   18  C16 UNK     1      19.693  -5.210  35.839  1.00  0.00     0.012 A 
HETATM   19  C18 UNK     1      20.257  -6.442  36.171  1.00  0.00     0.001 A 
HETATM   20  C19 UNK     1      21.175  -6.528  37.217  1.00  0.00     0.000 A 
HETATM   21  C17 UNK     1      21.529  -5.383  37.930  1.00  0.00     0.001 A 
HETATM   22  C15 UNK     1      20.965  -4.151  37.598  1.00  0.00     0.012 A 
ENDBRANCH   9  17
TORSDOF 1
ENDMDL
MODEL 6
REMARK VINA RESULT:      -8.0      4.294      6.605
REMARK  1 active torsions:
REMARK  status: ('A' for Active; 'I' for Inactive)
REMARK    1  A    between atoms: C10_13  and  C6_9 
ROOT
HETATM    1  O1  UNK     1      19.774  -2.605  34.700  1.00  0.00    -0.320 OA
HETATM    2  O2  UNK     1      20.700  -1.332  30.138  1.00  0.00    -0.274 OA
HETATM    3  O3  UNK     1      21.099  -0.673  27.985  1.00  0.00    -0.260 OA
HETATM    4  C1  UNK     1      18.868  -0.718  33.852  1.00  0.00     0.012 A 
HETATM    5  C2  UNK     1      19.683  -1.814  33.595  1.00  0.00     0.094 A 
HETATM    6  C3  UNK     1      19.258   0.031  31.566  1.00  0.00     0.005 A 
HETATM    7  C4  UNK     1      20.308  -2.050  32.374  1.00  0.00     0.008 A 
HETATM    8  C5  UNK     1      20.067  -1.095  31.380  1.00  0.00     0.099 A 
HETATM    9  C6  UNK     1      18.443  -0.862  35.200  1.00  0.00     0.009 A 
HETATM   10  C7  UNK     1      18.651   0.220  32.822  1.00  0.00     0.030 A 
HETATM   11  C8  UNK     1      19.081   0.963  30.441  1.00  0.00    -0.043 A 
HETATM   12  C9  UNK     1      19.020  -2.020  35.667  1.00  0.00     0.155 A 
HETATM   13  C11 UNK     1      21.176  -3.237  32.133  1.00  0.00     0.054 C 
HETATM   14  C12 UNK     1      19.697   0.707  29.278  1.00  0.00     0.090 A 
HETATM   15  C13 UNK     1      18.220   2.181  30.607  1.00  0.00     0.049 C 
HETATM   16  C14 UNK     1      20.551  -0.471  29.063  1.00  0.00     0.288 A 
ENDROOT
BRANCH   9  17
HETATM   17  C10 UNK     1      17.594  -0.034  36.003  1.00  0.00    -0.023 A 
HETATM   18  C16 UNK     1      18.124   0.681  37.078  1.00  0.00     0.012 A 
HETATM   19  C18 UNK     1      17.298   1.488  37.860  1.00  0.00     0.001 A 
HETATM   20  C19 UNK     1      15.937   1.581  37.568  1.00  0.00     0.000 A 
HETATM   21  C17 UNK     1      15.404   0.868  36.494  1.00  0.00     0.001 A 
HETATM   22  C15 UNK     1      16.231   0.062  35.712  1.00  0.00     0.012 A 
ENDBRANCH   9  17
TORSDOF 1
ENDMDL
MODEL 7
REMARK VINA RESULT:      -7.9     14.574     16.693
REMARK  1 active torsions:
REMARK  status: ('A' for Active; 'I' for Inactive)
REMARK    1  A    between atoms: C10_13  and  C6_9 
ROOT
HETATM    1  O1  UNK     1      30.231  -6.248  35.385  1.00  0.00    -0.320 OA
HETATM    2  O2  UNK     1      28.663  -8.827  39.151  1.00  0.00    -0.274 OA
HETATM    3  O3  UNK     1      27.876 -10.082  40.893  1.00  0.00    -0.260 OA
HETATM    4  C1  UNK     1      28.609  -7.793  35.095  1.00  0.00     0.012 A 
HETATM    5  C2  UNK     1      29.462  -7.185  36.008  1.00  0.00     0.094 A 
HETATM    6  C3  UNK     1      27.732  -9.156  36.914  1.00  0.00     0.005 A 
HETATM    7  C4  UNK     1      29.508  -7.502  37.361  1.00  0.00     0.008 A 
HETATM    8  C5  UNK     1      28.619  -8.502  37.775  1.00  0.00     0.099 A 
HETATM    9  C6  UNK     1      28.885  -7.181  33.842  1.00  0.00     0.009 A 
HETATM   10  C7  UNK     1      27.729  -8.795  35.553  1.00  0.00     0.030 A 
HETATM   11  C8  UNK     1      26.846 -10.190  37.471  1.00  0.00    -0.043 A 
HETATM   12  C9  UNK     1      29.874  -6.254  34.074  1.00  0.00     0.155 A 
HETATM   13  C11 UNK     1      30.435  -6.829  38.314  1.00  0.00     0.054 C 
HETATM   14  C12 UNK     1      26.915 -10.474  38.780  1.00  0.00     0.090 A 
HETATM   15  C13 UNK     1      25.883 -10.913  36.574  1.00  0.00     0.049 C 
HETATM   16  C14 UNK     1      27.841  -9.797  39.701  1.00  0.00     0.288 A 
ENDROOT
BRANCH   9  17
HETATM   17  C10 UNK     1      28.314  -7.406  32.549  1.00  0.00    -0.023 A 
HETATM   18  C16 UNK     1      28.556  -8.604  31.874  1.00  0.00     0.012 A 
HETATM   19  C18 UNK     1      28.000  -8.824  30.613  1.00  0.00     0.001 A 
HETATM   20  C19 UNK     1      27.198  -7.846  30.025  1.00  0.00     0.000 A 
HETATM   21  C17 UNK     1      26.954  -6.649  30.698  1.00  0.00     0.001 A 
HETATM   22  C15 UNK     1      27.510  -6.428  31.958  1.00  0.00     0.012 A 
ENDBRANCH   9  17
TORSDOF 1
ENDMDL
MODEL 8
REMARK VINA RESULT:      -7.7     22.006     25.054
REMARK  1 active torsions:
REMARK  status: ('A' for Active; 'I' for Inactive)
REMARK    1  A    between atoms: C10_13  and  C6_9 
ROOT
HETATM    1  O1  UNK     1      14.965   6.048  10.407  1.00  0.00    -0.320 OA
HETATM    2  O2  UNK     1      17.909   9.864  10.152  1.00  0.00    -0.274 OA
HETATM    3  O3  UNK     1      19.260  11.702   9.985  1.00  0.00    -0.260 OA
HETATM    4  C1  UNK     1      14.446   7.783   9.057  1.00  0.00     0.012 A 
HETATM    5  C2  UNK     1      15.366   7.273   9.964  1.00  0.00     0.094 A 
HETATM    6  C3  UNK     1      15.848   9.763   8.839  1.00  0.00     0.005 A 
HETATM    7  C4  UNK     1      16.527   7.935  10.352  1.00  0.00     0.008 A 
HETATM    8  C5  UNK     1      16.730   9.188   9.760  1.00  0.00     0.099 A 
HETATM    9  C6  UNK     1      13.425   6.800   8.950  1.00  0.00     0.009 A 
HETATM   10  C7  UNK     1      14.689   9.048   8.484  1.00  0.00     0.030 A 
HETATM   11  C8  UNK     1      16.174  11.087   8.287  1.00  0.00    -0.043 A 
HETATM   12  C9  UNK     1      13.789   5.771   9.787  1.00  0.00     0.155 A 
HETATM   13  C11 UNK     1      17.494   7.359  11.328  1.00  0.00     0.054 C 
HETATM   14  C12 UNK     1      17.300  11.700   8.681  1.00  0.00     0.090 A 
HETATM   15  C13 UNK     1      15.249  11.734   7.297  1.00  0.00     0.049 C 
HETATM   16  C14 UNK     1      18.239  11.112   9.648  1.00  0.00     0.288 A 
ENDROOT
BRANCH   9  17
HETATM   17  C10 UNK     1      12.228   6.781   8.165  1.00  0.00    -0.023 A 
HETATM   18  C16 UNK     1      10.987   6.976   8.774  1.00  0.00     0.012 A 
HETATM   19  C18 UNK     1       9.819   6.958   8.011  1.00  0.00     0.001 A 
HETATM   20  C19 UNK     1       9.891   6.746   6.634  1.00  0.00     0.000 A 
HETATM   21  C17 UNK     1      11.129   6.552   6.022  1.00  0.00     0.001 A 
HETATM   22  C15 UNK     1      12.296   6.570   6.786  1.00  0.00     0.012 A 
ENDBRANCH   9  17
TORSDOF 1
ENDMDL
MODEL 9
REMARK VINA RESULT:      -7.6     15.716     17.425
REMARK  1 active torsions:
REMARK  status: ('A' for Active; 'I' for Inactive)
REMARK    1  A    between atoms: C10_13  and  C6_9 
ROOT
HETATM    1  O1  UNK     1      27.023  -9.363  36.873  1.00  0.00    -0.320 OA
HETATM    2  O2  UNK     1      28.683  -5.430  39.125  1.00  0.00    -0.274 OA
HETATM    3  O3  UNK     1      29.514  -3.557  40.139  1.00  0.00    -0.260 OA
HETATM    4  C1  UNK     1      28.676  -8.142  35.935  1.00  0.00     0.012 A 
HETATM    5  C2  UNK     1      27.818  -8.267  37.022  1.00  0.00     0.094 A 
HETATM    6  C3  UNK     1      29.599  -6.139  36.971  1.00  0.00     0.005 A 
HETATM    7  C4  UNK     1      27.792  -7.386  38.098  1.00  0.00     0.008 A 
HETATM    8  C5  UNK     1      28.707  -6.328  38.032  1.00  0.00     0.099 A 
HETATM    9  C6  UNK     1      28.374  -9.234  35.078  1.00  0.00     0.009 A 
HETATM   10  C7  UNK     1      29.581  -7.062  35.907  1.00  0.00     0.030 A 
HETATM   11  C8  UNK     1      30.513  -4.987  37.018  1.00  0.00    -0.043 A 
HETATM   12  C9  UNK     1      27.367  -9.942  35.693  1.00  0.00     0.155 A 
HETATM   13  C11 UNK     1      26.860  -7.550  39.248  1.00  0.00     0.054 C 
HETATM   14  C12 UNK     1      30.463  -4.156  38.069  1.00  0.00     0.090 A 
HETATM   15  C13 UNK     1      31.483  -4.755  35.896  1.00  0.00     0.049 C 
HETATM   16  C14 UNK     1      29.532  -4.337  39.193  1.00  0.00     0.288 A 
ENDROOT
BRANCH   9  17
HETATM   17  C10 UNK     1      28.937  -9.614  33.818  1.00  0.00    -0.023 A 
HETATM   18  C16 UNK     1      28.669  -8.860  32.674  1.00  0.00     0.012 A 
HETATM   19  C18 UNK     1      29.218  -9.229  31.446  1.00  0.00     0.001 A 
HETATM   20  C19 UNK     1      30.038 -10.354  31.359  1.00  0.00     0.000 A 
HETATM   21  C17 UNK     1      30.308 -11.109  32.500  1.00  0.00     0.001 A 
HETATM   22  C15 UNK     1      29.759 -10.740  33.728  1.00  0.00     0.012 A 
ENDBRANCH   9  17
TORSDOF 1
ENDMDL
MODEL 10
REMARK VINA RESULT:      -7.6     16.720     19.087
REMARK  1 active torsions:
REMARK  status: ('A' for Active; 'I' for Inactive)
REMARK    1  A    between atoms: C10_13  and  C6_9 
ROOT
HETATM    1  O1  UNK     1      35.674  -6.232  36.387  1.00  0.00    -0.320 OA
HETATM    2  O2  UNK     1      35.813  -7.760  31.812  1.00  0.00    -0.274 OA
HETATM    3  O3  UNK     1      35.810  -8.475  29.640  1.00  0.00    -0.260 OA
HETATM    4  C1  UNK     1      33.770  -6.334  35.176  1.00  0.00     0.012 A 
HETATM    5  C2  UNK     1      35.143  -6.549  35.173  1.00  0.00     0.094 A 
HETATM    6  C3  UNK     1      33.708  -7.089  32.860  1.00  0.00     0.005 A 
HETATM    7  C4  UNK     1      35.855  -7.021  34.075  1.00  0.00     0.008 A 
HETATM    8  C5  UNK     1      35.092  -7.280  32.930  1.00  0.00     0.099 A 
HETATM    9  C6  UNK     1      33.458  -5.857  36.478  1.00  0.00     0.009 A 
HETATM   10  C7  UNK     1      33.039  -6.608  34.002  1.00  0.00     0.030 A 
HETATM   11  C8  UNK     1      33.019  -7.398  31.598  1.00  0.00    -0.043 A 
HETATM   12  C9  UNK     1      34.645  -5.813  37.170  1.00  0.00     0.155 A 
HETATM   13  C11 UNK     1      37.328  -7.240  34.106  1.00  0.00     0.054 C 
HETATM   14  C12 UNK     1      33.733  -7.851  30.558  1.00  0.00     0.090 A 
HETATM   15  C13 UNK     1      31.534  -7.204  31.489  1.00  0.00     0.049 C 
HETATM   16  C14 UNK     1      35.189  -8.058  30.612  1.00  0.00     0.288 A 
ENDROOT
BRANCH   9  17
HETATM   17  C10 UNK     1      32.204  -5.472  37.053  1.00  0.00    -0.023 A 
HETATM   18  C16 UNK     1      31.471  -6.386  37.813  1.00  0.00     0.012 A 
HETATM   19  C18 UNK     1      30.250  -6.012  38.374  1.00  0.00     0.001 A 
HETATM   20  C19 UNK     1      29.759  -4.721  38.177  1.00  0.00     0.000 A 
HETATM   21  C17 UNK     1      30.489  -3.806  37.419  1.00  0.00     0.001 A 
HETATM   22  C15 UNK     1      31.710  -4.180  36.858  1.00  0.00     0.012 A 
ENDBRANCH   9  17
TORSDOF 1
ENDMDL
