MODEL 1
REMARK VINA RESULT:      -7.8      0.000      0.000
REMARK  3 active torsions:
REMARK  status: ('A' for Active; 'I' for Inactive)
REMARK    1  A    between atoms: C10_14  and  O2_2 
REMARK    2  A    between atoms: C7_11  and  N1_4 
REMARK    3  A    between atoms: C7_11  and  C8_12 
ROOT
HETATM    1  O1  UNK     1      17.942   1.104  33.132  1.00  0.00    -0.274 OA
HETATM    2  O3  UNK     1      17.169   0.956  35.279  1.00  0.00    -0.260 OA
HETATM    3  C8  UNK     1      18.752   1.257  30.893  1.00  0.00     0.038 A 
HETATM    4  C9  UNK     1      18.735   0.564  32.099  1.00  0.00     0.101 A 
HETATM    5  C10 UNK     1      19.512   0.778  29.835  1.00  0.00     0.076 A 
HETATM    6  C11 UNK     1      19.464  -0.610  32.290  1.00  0.00     0.005 A 
HETATM    7  C12 UNK     1      20.250  -0.392  29.995  1.00  0.00     0.038 A 
HETATM    8  C13 UNK     1      20.227  -1.083  31.213  1.00  0.00     0.017 A 
HETATM    9  C14 UNK     1      19.392  -1.281  33.595  1.00  0.00    -0.043 A 
HETATM   10  C15 UNK     1      18.630  -0.744  34.558  1.00  0.00     0.090 A 
HETATM   11  C16 UNK     1      17.855   0.494  34.374  1.00  0.00     0.288 A 
HETATM   12  C17 UNK     1      20.165  -2.546  33.830  1.00  0.00     0.049 C 
ENDROOT
BRANCH   3  13
HETATM   13  C7  UNK     1      17.953   2.517  30.728  1.00  0.00     0.316 C 
BRANCH  13  14
HETATM   14  N1  UNK     1      18.685   3.696  31.193  1.00  0.00     0.092 N 
HETATM   15  C1  UNK     1      19.132   4.489  30.042  1.00  0.00     0.272 C 
HETATM   16  C3  UNK     1      19.682   5.891  30.327  1.00  0.00     0.030 C 
HETATM   17  C5  UNK     1      20.537   5.998  31.585  1.00  0.00     0.002 C 
HETATM   18  C6  UNK     1      19.692   6.216  32.837  1.00  0.00     0.002 C 
HETATM   19  C4  UNK     1      18.834   5.027  33.259  1.00  0.00     0.030 C 
HETATM   20  C2  UNK     1      17.913   4.449  32.181  1.00  0.00     0.272 C 
ENDBRANCH  13  14
ENDBRANCH   3  13
BRANCH   5  21
HETATM   21  O2  UNK     1      19.548   1.431  28.640  1.00  0.00    -0.360 OA
HETATM   22  H21 UNK     1      20.476   1.564  28.380  1.00  0.00     0.217 HD
ENDBRANCH   5  21
TORSDOF 3
ENDMDL
MODEL 2
REMARK VINA RESULT:      -7.6     22.896     24.100
REMARK  3 active torsions:
REMARK  status: ('A' for Active; 'I' for Inactive)
REMARK    1  A    between atoms: C10_14  and  O2_2 
REMARK    2  A    between atoms: C7_11  and  N1_4 
REMARK    3  A    between atoms: C7_11  and  C8_12 
ROOT
HETATM    1  O1  UNK     1      13.118   7.996  10.756  1.00  0.00    -0.274 OA
HETATM    2  O3  UNK     1      11.510   9.489  11.399  1.00  0.00    -0.260 OA
HETATM    3  C8  UNK     1      14.798   6.441  10.083  1.00  0.00     0.038 A 
HETATM    4  C9  UNK     1      14.477   7.731  10.493  1.00  0.00     0.101 A 
HETATM    5  C10 UNK     1      16.119   6.114   9.809  1.00  0.00     0.076 A 
HETATM    6  C11 UNK     1      15.446   8.725  10.638  1.00  0.00     0.005 A 
HETATM    7  C12 UNK     1      17.108   7.085   9.946  1.00  0.00     0.038 A 
HETATM    8  C13 UNK     1      16.776   8.382  10.357  1.00  0.00     0.017 A 
HETATM    9  C14 UNK     1      15.023  10.063  11.074  1.00  0.00    -0.043 A 
HETATM   10  C15 UNK     1      13.724  10.285  11.317  1.00  0.00     0.090 A 
HETATM   11  C16 UNK     1      12.690   9.248  11.168  1.00  0.00     0.288 A 
HETATM   12  C17 UNK     1      16.042  11.152  11.240  1.00  0.00     0.049 C 
ENDROOT
BRANCH   3  13
HETATM   13  C7  UNK     1      13.726   5.400   9.940  1.00  0.00     0.316 C 
BRANCH  13  14
HETATM   14  N1  UNK     1      12.672   5.822   9.016  1.00  0.00     0.092 N 
HETATM   15  C1  UNK     1      13.221   5.955   7.662  1.00  0.00     0.272 C 
HETATM   16  C3  UNK     1      12.222   6.130   6.514  1.00  0.00     0.030 C 
HETATM   17  C5  UNK     1      11.023   7.015   6.839  1.00  0.00     0.002 C 
HETATM   18  C6  UNK     1       9.903   6.236   7.523  1.00  0.00     0.002 C 
HETATM   19  C4  UNK     1      10.212   5.761   8.940  1.00  0.00     0.030 C 
HETATM   20  C2  UNK     1      11.500   4.951   9.109  1.00  0.00     0.272 C 
ENDBRANCH  13  14
ENDBRANCH   3  13
BRANCH   5  21
HETATM   21  O2  UNK     1      16.467   4.860   9.409  1.00  0.00    -0.360 OA
HETATM   22  H21 UNK     1      16.023   4.210   9.981  1.00  0.00     0.217 HD
ENDBRANCH   5  21
TORSDOF 3
ENDMDL
MODEL 3
REMARK VINA RESULT:      -7.6      5.036      8.735
REMARK  3 active torsions:
REMARK  status: ('A' for Active; 'I' for Inactive)
REMARK    1  A    between atoms: C10_14  and  O2_2 
REMARK    2  A    between atoms: C7_11  and  N1_4 
REMARK    3  A    between atoms: C7_11  and  C8_12 
ROOT
HETATM    1  O1  UNK     1      16.350   8.023  34.198  1.00  0.00    -0.274 OA
HETATM    2  O3  UNK     1      14.241   7.149  34.056  1.00  0.00    -0.260 OA
HETATM    3  C8  UNK     1      18.549   8.938  34.345  1.00  0.00     0.038 A 
HETATM    4  C9  UNK     1      17.185   9.158  34.177  1.00  0.00     0.101 A 
HETATM    5  C10 UNK     1      19.426  10.013  34.335  1.00  0.00     0.076 A 
HETATM    6  C11 UNK     1      16.658  10.437  33.994  1.00  0.00     0.005 A 
HETATM    7  C12 UNK     1      18.929  11.302  34.155  1.00  0.00     0.038 A 
HETATM    8  C13 UNK     1      17.555  11.514  33.986  1.00  0.00     0.017 A 
HETATM    9  C14 UNK     1      15.206  10.583  33.823  1.00  0.00    -0.043 A 
HETATM   10  C15 UNK     1      14.437   9.486  33.848  1.00  0.00     0.090 A 
HETATM   11  C16 UNK     1      14.976   8.130  34.040  1.00  0.00     0.288 A 
HETATM   12  C17 UNK     1      14.610  11.946  33.625  1.00  0.00     0.049 C 
ENDROOT
BRANCH   3  13
HETATM   13  C7  UNK     1      19.076   7.546  34.540  1.00  0.00     0.316 C 
BRANCH  13  14
HETATM   14  N1  UNK     1      19.208   6.827  33.271  1.00  0.00     0.092 N 
HETATM   15  C1  UNK     1      20.619   6.780  32.871  1.00  0.00     0.272 C 
HETATM   16  C3  UNK     1      20.989   5.847  31.713  1.00  0.00     0.030 C 
HETATM   17  C5  UNK     1      19.971   5.801  30.579  1.00  0.00     0.002 C 
HETATM   18  C6  UNK     1      18.850   4.802  30.855  1.00  0.00     0.002 C 
HETATM   19  C4  UNK     1      17.898   5.187  31.984  1.00  0.00     0.030 C 
HETATM   20  C2  UNK     1      18.553   5.520  33.327  1.00  0.00     0.272 C 
ENDBRANCH  13  14
ENDBRANCH   3  13
BRANCH   5  21
HETATM   21  O2  UNK     1      20.766   9.832  34.499  1.00  0.00    -0.360 OA
HETATM   22  H21 UNK     1      20.959   9.742  35.448  1.00  0.00     0.217 HD
ENDBRANCH   5  21
TORSDOF 3
ENDMDL
MODEL 4
REMARK VINA RESULT:      -7.3     23.192     24.895
REMARK  3 active torsions:
REMARK  status: ('A' for Active; 'I' for Inactive)
REMARK    1  A    between atoms: C10_14  and  O2_2 
REMARK    2  A    between atoms: C7_11  and  N1_4 
REMARK    3  A    between atoms: C7_11  and  C8_12 
ROOT
HETATM    1  O1  UNK     1      14.790   6.166   9.658  1.00  0.00    -0.274 OA
HETATM    2  O3  UNK     1      16.588   4.772   9.419  1.00  0.00    -0.260 OA
HETATM    3  C8  UNK     1      12.916   7.622   9.908  1.00  0.00     0.038 A 
HETATM    4  C9  UNK     1      14.299   7.471   9.863  1.00  0.00     0.101 A 
HETATM    5  C10 UNK     1      12.368   8.881  10.106  1.00  0.00     0.076 A 
HETATM    6  C11 UNK     1      15.168   8.552  10.013  1.00  0.00     0.005 A 
HETATM    7  C12 UNK     1      13.210   9.980  10.259  1.00  0.00     0.038 A 
HETATM    8  C13 UNK     1      14.600   9.818  10.213  1.00  0.00     0.017 A 
HETATM    9  C14 UNK     1      16.615   8.307   9.954  1.00  0.00    -0.043 A 
HETATM   10  C15 UNK     1      17.053   7.056   9.757  1.00  0.00     0.090 A 
HETATM   11  C16 UNK     1      16.150   5.904   9.597  1.00  0.00     0.288 A 
HETATM   12  C17 UNK     1      17.575   9.450  10.112  1.00  0.00     0.049 C 
ENDROOT
BRANCH   3  13
HETATM   13  C7  UNK     1      12.016   6.433   9.741  1.00  0.00     0.316 C 
BRANCH  13  14
HETATM   14  N1  UNK     1      11.233   6.507   8.506  1.00  0.00     0.092 N 
HETATM   15  C1  UNK     1      12.080   6.160   7.359  1.00  0.00     0.272 C 
HETATM   16  C3  UNK     1      11.380   5.923   6.016  1.00  0.00     0.030 C 
HETATM   17  C5  UNK     1      10.218   6.865   5.727  1.00  0.00     0.002 C 
HETATM   18  C6  UNK     1       8.912   6.373   6.347  1.00  0.00     0.002 C 
HETATM   19  C4  UNK     1       8.856   6.422   7.871  1.00  0.00     0.030 C 
HETATM   20  C2  UNK     1      10.002   5.722   8.606  1.00  0.00     0.272 C 
ENDBRANCH  13  14
ENDBRANCH   3  13
BRANCH   5  21
HETATM   21  O2  UNK     1      11.019   9.064  10.153  1.00  0.00    -0.360 OA
HETATM   22  H21 UNK     1      10.578   8.249   9.856  1.00  0.00     0.217 HD
ENDBRANCH   5  21
TORSDOF 3
ENDMDL
MODEL 5
REMARK VINA RESULT:      -7.3     22.975     24.917
REMARK  3 active torsions:
REMARK  status: ('A' for Active; 'I' for Inactive)
REMARK    1  A    between atoms: C10_14  and  O2_2 
REMARK    2  A    between atoms: C7_11  and  N1_4 
REMARK    3  A    between atoms: C7_11  and  C8_12 
ROOT
HETATM    1  O1  UNK     1      13.981   9.235   9.670  1.00  0.00    -0.274 OA
HETATM    2  O3  UNK     1      14.992  11.284   9.563  1.00  0.00    -0.260 OA
HETATM    3  C8  UNK     1      12.929   7.096   9.780  1.00  0.00     0.038 A 
HETATM    4  C9  UNK     1      14.106   7.838   9.805  1.00  0.00     0.101 A 
HETATM    5  C10 UNK     1      12.982   5.716   9.909  1.00  0.00     0.076 A 
HETATM    6  C11 UNK     1      15.357   7.238   9.956  1.00  0.00     0.005 A 
HETATM    7  C12 UNK     1      14.217   5.089  10.062  1.00  0.00     0.038 A 
HETATM    8  C13 UNK     1      15.396   5.843  10.085  1.00  0.00     0.017 A 
HETATM    9  C14 UNK     1      16.551   8.094   9.972  1.00  0.00    -0.043 A 
HETATM   10  C15 UNK     1      16.402   9.419   9.841  1.00  0.00     0.090 A 
HETATM   11  C16 UNK     1      15.090  10.068   9.681  1.00  0.00     0.288 A 
HETATM   12  C17 UNK     1      17.910   7.477  10.133  1.00  0.00     0.049 C 
ENDROOT
BRANCH   3  13
HETATM   13  C7  UNK     1      11.603   7.780   9.616  1.00  0.00     0.316 C 
BRANCH  13  14
HETATM   14  N1  UNK     1      10.807   7.183   8.542  1.00  0.00     0.092 N 
HETATM   15  C1  UNK     1       9.379   7.406   8.799  1.00  0.00     0.272 C 
HETATM   16  C3  UNK     1       8.404   7.090   7.660  1.00  0.00     0.030 C 
HETATM   17  C5  UNK     1       8.751   5.847   6.849  1.00  0.00     0.002 C 
HETATM   18  C6  UNK     1       9.751   6.149   5.735  1.00  0.00     0.002 C 
HETATM   19  C4  UNK     1      11.160   6.501   6.203  1.00  0.00     0.030 C 
HETATM   20  C2  UNK     1      11.261   7.635   7.227  1.00  0.00     0.272 C 
ENDBRANCH  13  14
ENDBRANCH   3  13
BRANCH   5  21
HETATM   21  O2  UNK     1      11.849   4.961   9.891  1.00  0.00    -0.360 OA
HETATM   22  H21 UNK     1      11.850   4.369  10.663  1.00  0.00     0.217 HD
ENDBRANCH   5  21
TORSDOF 3
ENDMDL
MODEL 6
REMARK VINA RESULT:      -7.1      0.993      3.217
REMARK  3 active torsions:
REMARK  status: ('A' for Active; 'I' for Inactive)
REMARK    1  A    between atoms: C10_14  and  O2_2 
REMARK    2  A    between atoms: C7_11  and  N1_4 
REMARK    3  A    between atoms: C7_11  and  C8_12 
ROOT
HETATM    1  O1  UNK     1      19.284   0.571  30.077  1.00  0.00    -0.274 OA
HETATM    2  O3  UNK     1      20.152  -0.297  28.147  1.00  0.00    -0.260 OA
HETATM    3  C8  UNK     1      18.378   1.473  32.092  1.00  0.00     0.038 A 
HETATM    4  C9  UNK     1      19.064   0.438  31.463  1.00  0.00     0.101 A 
HETATM    5  C10 UNK     1      18.129   1.405  33.455  1.00  0.00     0.076 A 
HETATM    6  C11 UNK     1      19.517  -0.682  32.160  1.00  0.00     0.005 A 
HETATM    7  C12 UNK     1      18.570   0.298  34.179  1.00  0.00     0.038 A 
HETATM    8  C13 UNK     1      19.259  -0.738  33.537  1.00  0.00     0.017 A 
HETATM    9  C14 UNK     1      20.233  -1.730  31.421  1.00  0.00    -0.043 A 
HETATM   10  C15 UNK     1      20.427  -1.578  30.104  1.00  0.00     0.090 A 
HETATM   11  C16 UNK     1      19.956  -0.402  29.353  1.00  0.00     0.288 A 
HETATM   12  C17 UNK     1      20.733  -2.947  32.144  1.00  0.00     0.049 C 
ENDROOT
BRANCH   3  13
HETATM   13  C7  UNK     1      17.907   2.661  31.306  1.00  0.00     0.316 C 
BRANCH  13  14
HETATM   14  N1  UNK     1      18.748   3.838  31.535  1.00  0.00     0.092 N 
HETATM   15  C1  UNK     1      19.269   4.333  30.256  1.00  0.00     0.272 C 
HETATM   16  C3  UNK     1      19.949   5.706  30.260  1.00  0.00     0.030 C 
HETATM   17  C5  UNK     1      20.809   5.990  31.487  1.00  0.00     0.002 C 
HETATM   18  C6  UNK     1      19.987   6.538  32.650  1.00  0.00     0.002 C 
HETATM   19  C4  UNK     1      19.020   5.545  33.289  1.00  0.00     0.030 C 
HETATM   20  C2  UNK     1      18.049   4.846  32.333  1.00  0.00     0.272 C 
ENDBRANCH  13  14
ENDBRANCH   3  13
BRANCH   5  21
HETATM   21  O2  UNK     1      17.463   2.401  34.102  1.00  0.00    -0.360 OA
HETATM   22  H21 UNK     1      17.744   3.258  33.738  1.00  0.00     0.217 HD
ENDBRANCH   5  21
TORSDOF 3
ENDMDL
MODEL 7
REMARK VINA RESULT:      -7.1     13.603     16.251
REMARK  3 active torsions:
REMARK  status: ('A' for Active; 'I' for Inactive)
REMARK    1  A    between atoms: C10_14  and  O2_2 
REMARK    2  A    between atoms: C7_11  and  N1_4 
REMARK    3  A    between atoms: C7_11  and  C8_12 
ROOT
HETATM    1  O1  UNK     1      30.483  -6.526  29.730  1.00  0.00    -0.274 OA
HETATM    2  O3  UNK     1      30.388  -4.557  30.889  1.00  0.00    -0.260 OA
HETATM    3  C8  UNK     1      30.580  -8.582  28.522  1.00  0.00     0.038 A 
HETATM    4  C9  UNK     1      29.826  -7.688  29.277  1.00  0.00     0.101 A 
HETATM    5  C10 UNK     1      29.993  -9.745  28.045  1.00  0.00     0.076 A 
HETATM    6  C11 UNK     1      28.483  -7.920  29.578  1.00  0.00     0.005 A 
HETATM    7  C12 UNK     1      28.654 -10.004  28.328  1.00  0.00     0.038 A 
HETATM    8  C13 UNK     1      27.903  -9.099  29.089  1.00  0.00     0.017 A 
HETATM    9  C14 UNK     1      27.759  -6.926  30.381  1.00  0.00    -0.043 A 
HETATM   10  C15 UNK     1      28.409  -5.831  30.798  1.00  0.00     0.090 A 
HETATM   11  C16 UNK     1      29.825  -5.571  30.490  1.00  0.00     0.288 A 
HETATM   12  C17 UNK     1      26.314  -7.148  30.720  1.00  0.00     0.049 C 
ENDROOT
BRANCH   3  13
HETATM   13  C7  UNK     1      32.022  -8.295  28.220  1.00  0.00     0.316 C 
BRANCH  13  14
HETATM   14  N1  UNK     1      32.863  -8.397  29.414  1.00  0.00     0.092 N 
HETATM   15  C1  UNK     1      32.892  -9.786  29.885  1.00  0.00     0.272 C 
HETATM   16  C3  UNK     1      33.925 -10.141  30.959  1.00  0.00     0.030 C 
HETATM   17  C5  UNK     1      34.133  -9.070  32.024  1.00  0.00     0.002 C 
HETATM   18  C6  UNK     1      35.144  -8.014  31.586  1.00  0.00     0.002 C 
HETATM   19  C4  UNK     1      34.684  -7.104  30.451  1.00  0.00     0.030 C 
HETATM   20  C2  UNK     1      34.184  -7.809  29.187  1.00  0.00     0.272 C 
ENDBRANCH  13  14
ENDBRANCH   3  13
BRANCH   5  21
HETATM   21  O2  UNK     1      30.702 -10.640  27.301  1.00  0.00    -0.360 OA
HETATM   22  H21 UNK     1      31.380 -11.052  27.863  1.00  0.00     0.217 HD
ENDBRANCH   5  21
TORSDOF 3
ENDMDL
MODEL 8
REMARK VINA RESULT:      -7.0      5.173      9.086
REMARK  3 active torsions:
REMARK  status: ('A' for Active; 'I' for Inactive)
REMARK    1  A    between atoms: C10_14  and  O2_2 
REMARK    2  A    between atoms: C7_11  and  N1_4 
REMARK    3  A    between atoms: C7_11  and  C8_12 
ROOT
HETATM    1  O1  UNK     1      18.397   9.036  34.320  1.00  0.00    -0.274 OA
HETATM    2  O3  UNK     1      20.544   9.822  34.388  1.00  0.00    -0.260 OA
HETATM    3  C8  UNK     1      16.157   8.219  34.250  1.00  0.00     0.038 A 
HETATM    4  C9  UNK     1      17.018   9.311  34.229  1.00  0.00     0.101 A 
HETATM    5  C10 UNK     1      14.786   8.421  34.163  1.00  0.00     0.076 A 
HETATM    6  C11 UNK     1      16.551  10.622  34.124  1.00  0.00     0.005 A 
HETATM    7  C12 UNK     1      14.290   9.718  34.057  1.00  0.00     0.038 A 
HETATM    8  C13 UNK     1      15.165  10.812  34.037  1.00  0.00     0.017 A 
HETATM    9  C14 UNK     1      17.527  11.719  34.109  1.00  0.00    -0.043 A 
HETATM   10  C15 UNK     1      18.832  11.427  34.197  1.00  0.00     0.090 A 
HETATM   11  C16 UNK     1      19.342  10.051  34.308  1.00  0.00     0.288 A 
HETATM   12  C17 UNK     1      17.055  13.139  33.996  1.00  0.00     0.049 C 
ENDROOT
BRANCH   3  13
HETATM   13  C7  UNK     1      16.700   6.824  34.364  1.00  0.00     0.316 C 
BRANCH  13  14
HETATM   14  N1  UNK     1      17.491   6.446  33.191  1.00  0.00     0.092 N 
HETATM   15  C1  UNK     1      17.974   5.069  33.340  1.00  0.00     0.272 C 
HETATM   16  C3  UNK     1      18.594   4.406  32.106  1.00  0.00     0.030 C 
HETATM   17  C5  UNK     1      19.456   5.327  31.250  1.00  0.00     0.002 C 
HETATM   18  C6  UNK     1      18.625   6.122  30.246  1.00  0.00     0.002 C 
HETATM   19  C4  UNK     1      17.711   7.183  30.852  1.00  0.00     0.030 C 
HETATM   20  C2  UNK     1      16.759   6.699  31.950  1.00  0.00     0.272 C 
ENDBRANCH  13  14
ENDBRANCH   3  13
BRANCH   5  21
HETATM   21  O2  UNK     1      13.916   7.373  34.179  1.00  0.00    -0.360 OA
HETATM   22  H21 UNK     1      13.565   7.267  35.079  1.00  0.00     0.217 HD
ENDBRANCH   5  21
TORSDOF 3
ENDMDL
MODEL 9
REMARK VINA RESULT:      -6.9     12.631     14.375
REMARK  3 active torsions:
REMARK  status: ('A' for Active; 'I' for Inactive)
REMARK    1  A    between atoms: C10_14  and  O2_2 
REMARK    2  A    between atoms: C7_11  and  N1_4 
REMARK    3  A    between atoms: C7_11  and  C8_12 
ROOT
HETATM    1  O1  UNK     1      29.009  -6.840  36.313  1.00  0.00    -0.274 OA
HETATM    2  O3  UNK     1      27.017  -7.438  37.265  1.00  0.00    -0.260 OA
HETATM    3  C8  UNK     1      31.087  -6.214  35.320  1.00  0.00     0.038 A 
HETATM    4  C9  UNK     1      30.146  -6.008  36.325  1.00  0.00     0.101 A 
HETATM    5  C10 UNK     1      32.230  -5.429  35.276  1.00  0.00     0.076 A 
HETATM    6  C11 UNK     1      30.309  -5.026  37.303  1.00  0.00     0.005 A 
HETATM    7  C12 UNK     1      32.421  -4.440  36.239  1.00  0.00     0.038 A 
HETATM    8  C13 UNK     1      31.468  -4.239  37.246  1.00  0.00     0.017 A 
HETATM    9  C14 UNK     1      29.269  -4.872  38.328  1.00  0.00    -0.043 A 
HETATM   10  C15 UNK     1      28.199  -5.678  38.291  1.00  0.00     0.090 A 
HETATM   11  C16 UNK     1      28.011  -6.719  37.267  1.00  0.00     0.288 A 
HETATM   12  C17 UNK     1      29.417  -3.825  39.393  1.00  0.00     0.049 C 
ENDROOT
BRANCH   3  13
HETATM   13  C7  UNK     1      30.874  -7.282  34.287  1.00  0.00     0.316 C 
BRANCH  13  14
HETATM   14  N1  UNK     1      30.147  -6.778  33.120  1.00  0.00     0.092 N 
HETATM   15  C1  UNK     1      31.043  -6.733  31.958  1.00  0.00     0.272 C 
HETATM   16  C3  UNK     1      30.403  -6.487  30.588  1.00  0.00     0.030 C 
HETATM   17  C5  UNK     1      29.258  -5.480  30.589  1.00  0.00     0.002 C 
HETATM   18  C6  UNK     1      27.924  -6.127  30.952  1.00  0.00     0.002 C 
HETATM   19  C4  UNK     1      27.800  -6.597  32.398  1.00  0.00     0.030 C 
HETATM   20  C2  UNK     1      28.909  -7.527  32.898  1.00  0.00     0.272 C 
ENDBRANCH  13  14
ENDBRANCH   3  13
BRANCH   5  21
HETATM   21  O2  UNK     1      33.171  -5.606  34.307  1.00  0.00    -0.360 OA
HETATM   22  H21 UNK     1      34.040  -5.351  34.660  1.00  0.00     0.217 HD
ENDBRANCH   5  21
TORSDOF 3
ENDMDL
MODEL 10
REMARK VINA RESULT:      -6.8     14.029     15.276
REMARK  3 active torsions:
REMARK  status: ('A' for Active; 'I' for Inactive)
REMARK    1  A    between atoms: C10_14  and  O2_2 
REMARK    2  A    between atoms: C7_11  and  N1_4 
REMARK    3  A    between atoms: C7_11  and  C8_12 
ROOT
HETATM    1  O1  UNK     1      29.670  -6.226  35.468  1.00  0.00    -0.274 OA
HETATM    2  O3  UNK     1      29.747  -7.162  33.383  1.00  0.00    -0.260 OA
HETATM    3  C8  UNK     1      29.586  -5.250  37.645  1.00  0.00     0.038 A 
HETATM    4  C9  UNK     1      29.169  -6.262  36.785  1.00  0.00     0.101 A 
HETATM    5  C10 UNK     1      29.130  -5.229  38.955  1.00  0.00     0.076 A 
HETATM    6  C11 UNK     1      28.295  -7.270  37.196  1.00  0.00     0.005 A 
HETATM    7  C12 UNK     1      28.257  -6.222  39.394  1.00  0.00     0.038 A 
HETATM    8  C13 UNK     1      27.842  -7.236  38.522  1.00  0.00     0.017 A 
HETATM    9  C14 UNK     1      27.903  -8.301  36.226  1.00  0.00    -0.043 A 
HETATM   10  C15 UNK     1      28.395  -8.241  34.981  1.00  0.00     0.090 A 
HETATM   11  C16 UNK     1      29.317  -7.185  34.531  1.00  0.00     0.288 A 
HETATM   12  C17 UNK     1      26.965  -9.398  36.638  1.00  0.00     0.049 C 
ENDROOT
BRANCH   3  13
HETATM   13  C7  UNK     1      30.527  -4.185  37.164  1.00  0.00     0.316 C 
BRANCH  13  14
HETATM   14  N1  UNK     1      31.837  -4.732  36.804  1.00  0.00     0.092 N 
HETATM   15  C1  UNK     1      32.498  -3.845  35.840  1.00  0.00     0.272 C 
HETATM   16  C3  UNK     1      33.979  -4.107  35.547  1.00  0.00     0.030 C 
HETATM   17  C5  UNK     1      34.365  -5.580  35.474  1.00  0.00     0.002 C 
HETATM   18  C6  UNK     1      34.668  -6.164  36.851  1.00  0.00     0.002 C 
HETATM   19  C4  UNK     1      33.464  -6.301  37.779  1.00  0.00     0.030 C 
HETATM   20  C2  UNK     1      32.635  -5.032  37.993  1.00  0.00     0.272 C 
ENDBRANCH  13  14
ENDBRANCH   3  13
BRANCH   5  21
HETATM   21  O2  UNK     1      29.521  -4.254  39.822  1.00  0.00    -0.360 OA
HETATM   22  H21 UNK     1      29.496  -4.607  40.728  1.00  0.00     0.217 HD
ENDBRANCH   5  21
TORSDOF 3
ENDMDL
