MODEL 1
REMARK VINA RESULT:      -9.2      0.000      0.000
REMARK  3 active torsions:
REMARK  status: ('A' for Active; 'I' for Inactive)
REMARK    1  A    between atoms: N1_5  and  N2_6 
REMARK       I    between atoms: C12_19  and  N2_6 
REMARK    2  A    between atoms: C10_17  and  C4_11 
REMARK    3  A    between atoms: C11_18  and  C12_19 
ROOT
HETATM    1 Cl1  UNK     1      18.431  12.208  34.794  1.00  0.00    -0.084 Cl
HETATM    2  O1  UNK     1      15.763   7.438  32.618  1.00  0.00    -0.321 OA
HETATM    3  O2  UNK     1      19.819   7.321  33.073  1.00  0.00    -0.286 OA
HETATM    4  C1  UNK     1      17.814   8.550  33.301  1.00  0.00     0.050 A 
HETATM    5  C2  UNK     1      16.430   8.528  33.122  1.00  0.00     0.089 A 
HETATM    6  C3  UNK     1      18.604   7.358  32.937  1.00  0.00     0.198 A 
HETATM    7  C4  UNK     1      17.836   6.213  32.398  1.00  0.00     0.056 A 
HETATM    8  C5  UNK     1      18.439   9.686  33.819  1.00  0.00     0.042 A 
HETATM    9  C6  UNK     1      15.664   9.643  33.459  1.00  0.00     0.040 A 
HETATM   10  C7  UNK     1      16.510   6.334  32.281  1.00  0.00     0.159 A 
HETATM   11  C8  UNK     1      17.671  10.801  34.156  1.00  0.00     0.035 A 
HETATM   12  C9  UNK     1      16.287  10.780  33.977  1.00  0.00     0.026 A 
ENDROOT
BRANCH   7  13
HETATM   13  C10 UNK     1      18.450   4.951  31.984  1.00  0.00     0.156 C 
HETATM   14  N1  UNK     1      18.736   4.689  30.750  1.00  0.00    -0.183 NA
BRANCH  14  15
HETATM   15  N2  UNK     1      19.298   3.472  30.560  1.00  0.00    -0.243 N 
HETATM   16  C12 UNK     1      18.466   2.378  30.412  1.00  0.00     0.271 C 
HETATM   17  O3  UNK     1      17.238   2.420  30.439  1.00  0.00    -0.266 OA
HETATM   18  H6  UNK     1      20.309   3.415  30.590  1.00  0.00     0.192 HD
BRANCH  16  19
HETATM   19  C11 UNK     1      19.146   1.069  30.228  1.00  0.00     0.036 A 
HETATM   20  C13 UNK     1      19.444   0.313  31.337  1.00  0.00     0.036 A 
HETATM   21  C15 UNK     1      20.078  -0.899  31.113  1.00  0.00     0.117 A 
HETATM   22  N3  UNK     1      20.410  -1.364  29.888  1.00  0.00    -0.273 NA
HETATM   23  C16 UNK     1      20.090  -0.574  28.839  1.00  0.00     0.117 A 
HETATM   24  C14 UNK     1      19.456   0.653  28.956  1.00  0.00     0.036 A 
ENDBRANCH  16  19
ENDBRANCH  14  15
ENDBRANCH   7  13
TORSDOF 3
ENDMDL
MODEL 2
REMARK VINA RESULT:      -8.9      3.874      9.309
REMARK  3 active torsions:
REMARK  status: ('A' for Active; 'I' for Inactive)
REMARK    1  A    between atoms: N1_5  and  N2_6 
REMARK       I    between atoms: C12_19  and  N2_6 
REMARK    2  A    between atoms: C10_17  and  C4_11 
REMARK    3  A    between atoms: C11_18  and  C12_19 
ROOT
HETATM    1 Cl1  UNK     1      20.944  -3.438  31.947  1.00  0.00    -0.084 Cl
HETATM    2  O1  UNK     1      19.288   1.169  28.685  1.00  0.00    -0.321 OA
HETATM    3  O2  UNK     1      18.719   1.381  32.723  1.00  0.00    -0.286 OA
HETATM    4  C1  UNK     1      19.490   0.130  30.874  1.00  0.00     0.050 A 
HETATM    5  C2  UNK     1      19.658   0.118  29.488  1.00  0.00     0.089 A 
HETATM    6  C3  UNK     1      18.890   1.316  31.514  1.00  0.00     0.198 A 
HETATM    7  C4  UNK     1      18.508   2.418  30.603  1.00  0.00     0.056 A 
HETATM    8  C5  UNK     1      19.886  -0.968  31.640  1.00  0.00     0.042 A 
HETATM    9  C6  UNK     1      20.224  -0.992  28.862  1.00  0.00     0.040 A 
HETATM   10  C7  UNK     1      18.729   2.269  29.293  1.00  0.00     0.159 A 
HETATM   11  C8  UNK     1      20.452  -2.078  31.012  1.00  0.00     0.035 A 
HETATM   12  C9  UNK     1      20.621  -2.091  29.626  1.00  0.00     0.026 A 
ENDROOT
BRANCH   7  13
HETATM   13  C10 UNK     1      17.900   3.669  31.058  1.00  0.00     0.156 C 
HETATM   14  N1  UNK     1      18.598   4.654  31.523  1.00  0.00    -0.183 NA
BRANCH  14  15
HETATM   15  N2  UNK     1      17.861   5.726  31.895  1.00  0.00    -0.243 N 
HETATM   16  C12 UNK     1      18.517   6.843  32.377  1.00  0.00     0.271 C 
HETATM   17  O3  UNK     1      19.736   6.944  32.498  1.00  0.00    -0.266 OA
HETATM   18  H6  UNK     1      16.852   5.637  31.851  1.00  0.00     0.192 HD
BRANCH  16  19
HETATM   19  C11 UNK     1      17.648   7.977  32.787  1.00  0.00     0.036 A 
HETATM   20  C13 UNK     1      18.158   8.934  33.632  1.00  0.00     0.036 A 
HETATM   21  C15 UNK     1      17.308   9.971  33.985  1.00  0.00     0.117 A 
HETATM   22  N3  UNK     1      16.033  10.085  33.550  1.00  0.00    -0.273 NA
HETATM   23  C16 UNK     1      15.592   9.112  32.721  1.00  0.00     0.117 A 
HETATM   24  C14 UNK     1      16.361   8.036  32.309  1.00  0.00     0.036 A 
ENDBRANCH  16  19
ENDBRANCH  14  15
ENDBRANCH   7  13
TORSDOF 3
ENDMDL
MODEL 3
REMARK VINA RESULT:      -8.8     16.132     17.509
REMARK  3 active torsions:
REMARK  status: ('A' for Active; 'I' for Inactive)
REMARK    1  A    between atoms: N1_5  and  N2_6 
REMARK       I    between atoms: C12_19  and  N2_6 
REMARK    2  A    between atoms: C10_17  and  C4_11 
REMARK    3  A    between atoms: C11_18  and  C12_19 
ROOT
HETATM    1 Cl1  UNK     1      33.479  -6.773  37.958  1.00  0.00    -0.084 Cl
HETATM    2  O1  UNK     1      27.928  -5.033  38.827  1.00  0.00    -0.321 OA
HETATM    3  O2  UNK     1      28.595  -8.988  38.067  1.00  0.00    -0.286 OA
HETATM    4  C1  UNK     1      29.500  -6.825  38.353  1.00  0.00     0.050 A 
HETATM    5  C2  UNK     1      29.207  -5.486  38.617  1.00  0.00     0.089 A 
HETATM    6  C3  UNK     1      28.397  -7.803  38.294  1.00  0.00     0.198 A 
HETATM    7  C4  UNK     1      27.040  -7.262  38.527  1.00  0.00     0.056 A 
HETATM    8  C5  UNK     1      30.821  -7.230  38.148  1.00  0.00     0.042 A 
HETATM    9  C6  UNK     1      30.234  -4.545  38.678  1.00  0.00     0.040 A 
HETATM   10  C7  UNK     1      26.908  -5.953  38.769  1.00  0.00     0.159 A 
HETATM   11  C8  UNK     1      31.847  -6.286  38.210  1.00  0.00     0.035 A 
HETATM   12  C9  UNK     1      31.555  -4.947  38.474  1.00  0.00     0.026 A 
ENDROOT
BRANCH   7  13
HETATM   13  C10 UNK     1      25.827  -8.081  38.505  1.00  0.00     0.156 C 
HETATM   14  N1  UNK     1      24.650  -7.586  38.708  1.00  0.00    -0.183 NA
BRANCH  14  15
HETATM   15  N2  UNK     1      23.651  -8.497  38.650  1.00  0.00    -0.243 N 
HETATM   16  C12 UNK     1      22.452  -8.126  38.070  1.00  0.00     0.271 C 
HETATM   17  O3  UNK     1      22.215  -7.018  37.594  1.00  0.00    -0.266 OA
HETATM   18  H6  UNK     1      23.814  -9.397  39.087  1.00  0.00     0.192 HD
BRANCH  16  19
HETATM   19  C11 UNK     1      21.390  -9.166  38.058  1.00  0.00     0.036 A 
HETATM   20  C13 UNK     1      20.468  -9.188  39.078  1.00  0.00     0.036 A 
HETATM   21  C15 UNK     1      19.499 -10.178  39.021  1.00  0.00     0.117 A 
HETATM   22  N3  UNK     1      19.417 -11.100  38.036  1.00  0.00    -0.273 NA
HETATM   23  C16 UNK     1      20.352 -11.025  37.063  1.00  0.00     0.117 A 
HETATM   24  C14 UNK     1      21.361 -10.076  37.027  1.00  0.00     0.036 A 
ENDBRANCH  16  19
ENDBRANCH  14  15
ENDBRANCH   7  13
TORSDOF 3
ENDMDL
MODEL 4
REMARK VINA RESULT:      -8.6      8.631     13.053
REMARK  3 active torsions:
REMARK  status: ('A' for Active; 'I' for Inactive)
REMARK    1  A    between atoms: N1_5  and  N2_6 
REMARK       I    between atoms: C12_19  and  N2_6 
REMARK    2  A    between atoms: C10_17  and  C4_11 
REMARK    3  A    between atoms: C11_18  and  C12_19 
ROOT
HETATM    1 Cl1  UNK     1      19.406 -11.064  38.276  1.00  0.00    -0.084 Cl
HETATM    2  O1  UNK     1      20.760  -5.340  38.386  1.00  0.00    -0.321 OA
HETATM    3  O2  UNK     1      19.145  -6.858  34.957  1.00  0.00    -0.286 OA
HETATM    4  C1  UNK     1      19.873  -7.249  37.170  1.00  0.00     0.050 A 
HETATM    5  C2  UNK     1      20.428  -6.671  38.312  1.00  0.00     0.089 A 
HETATM    6  C3  UNK     1      19.629  -6.405  35.984  1.00  0.00     0.198 A 
HETATM    7  C4  UNK     1      20.005  -4.980  36.116  1.00  0.00     0.056 A 
HETATM    8  C5  UNK     1      19.554  -8.609  37.153  1.00  0.00     0.042 A 
HETATM    9  C6  UNK     1      20.667  -7.450  39.444  1.00  0.00     0.040 A 
HETATM   10  C7  UNK     1      20.528  -4.564  37.274  1.00  0.00     0.159 A 
HETATM   11  C8  UNK     1      19.794  -9.386  38.286  1.00  0.00     0.035 A 
HETATM   12  C9  UNK     1      20.349  -8.808  39.429  1.00  0.00     0.026 A 
ENDROOT
BRANCH   7  13
HETATM   13  C10 UNK     1      19.837  -3.997  35.046  1.00  0.00     0.156 C 
HETATM   14  N1  UNK     1      20.622  -2.978  34.908  1.00  0.00    -0.183 NA
BRANCH  14  15
HETATM   15  N2  UNK     1      20.310  -2.178  33.862  1.00  0.00    -0.243 N 
HETATM   16  C12 UNK     1      20.727  -2.552  32.598  1.00  0.00     0.271 C 
HETATM   17  O3  UNK     1      21.370  -3.567  32.342  1.00  0.00    -0.266 OA
HETATM   18  H6  UNK     1      19.827  -1.311  34.066  1.00  0.00     0.192 HD
BRANCH  16  19
HETATM   19  C11 UNK     1      20.369  -1.619  31.497  1.00  0.00     0.036 A 
HETATM   20  C13 UNK     1      19.797  -0.409  31.809  1.00  0.00     0.036 A 
HETATM   21  C15 UNK     1      19.482   0.425  30.748  1.00  0.00     0.117 A 
HETATM   22  N3  UNK     1      19.704   0.114  29.451  1.00  0.00    -0.273 NA
HETATM   23  C16 UNK     1      20.268  -1.090  29.210  1.00  0.00     0.117 A 
HETATM   24  C14 UNK     1      20.621  -1.994  30.199  1.00  0.00     0.036 A 
ENDBRANCH  16  19
ENDBRANCH  14  15
ENDBRANCH   7  13
TORSDOF 3
ENDMDL
MODEL 5
REMARK VINA RESULT:      -8.5     16.853     21.157
REMARK  3 active torsions:
REMARK  status: ('A' for Active; 'I' for Inactive)
REMARK    1  A    between atoms: N1_5  and  N2_6 
REMARK       I    between atoms: C12_19  and  N2_6 
REMARK    2  A    between atoms: C10_17  and  C4_11 
REMARK    3  A    between atoms: C11_18  and  C12_19 
ROOT
HETATM    1 Cl1  UNK     1      18.508  -7.121   9.062  1.00  0.00    -0.084 Cl
HETATM    2  O1  UNK     1      19.994  -1.658  10.658  1.00  0.00    -0.321 OA
HETATM    3  O2  UNK     1      18.690  -4.211  13.565  1.00  0.00    -0.286 OA
HETATM    4  C1  UNK     1      19.183  -3.863  11.281  1.00  0.00     0.050 A 
HETATM    5  C2  UNK     1      19.636  -2.943  10.334  1.00  0.00     0.089 A 
HETATM    6  C3  UNK     1      19.080  -3.448  12.693  1.00  0.00     0.198 A 
HETATM    7  C4  UNK     1      19.478  -2.053  12.987  1.00  0.00     0.056 A 
HETATM    8  C5  UNK     1      18.832  -5.158  10.893  1.00  0.00     0.042 A 
HETATM    9  C6  UNK     1      19.740  -3.314   8.993  1.00  0.00     0.040 A 
HETATM   10  C7  UNK     1      19.894  -1.282  11.977  1.00  0.00     0.159 A 
HETATM   11  C8  UNK     1      18.938  -5.527   9.552  1.00  0.00     0.035 A 
HETATM   12  C9  UNK     1      19.391  -4.608   8.604  1.00  0.00     0.026 A 
ENDROOT
BRANCH   7  13
HETATM   13  C10 UNK     1      19.442  -1.467  14.328  1.00  0.00     0.156 C 
HETATM   14  N1  UNK     1      19.295  -0.198  14.528  1.00  0.00    -0.183 NA
BRANCH  14  15
HETATM   15  N2  UNK     1      19.286   0.157  15.834  1.00  0.00    -0.243 N 
HETATM   16  C12 UNK     1      19.217   1.501  16.152  1.00  0.00     0.271 C 
HETATM   17  O3  UNK     1      19.163   2.415  15.332  1.00  0.00    -0.266 OA
HETATM   18  H6  UNK     1      19.385  -0.583  16.519  1.00  0.00     0.192 HD
BRANCH  16  19
HETATM   19  C11 UNK     1      19.233   1.824  17.603  1.00  0.00     0.036 A 
HETATM   20  C13 UNK     1      19.674   3.062  18.005  1.00  0.00     0.036 A 
HETATM   21  C15 UNK     1      19.669   3.314  19.368  1.00  0.00     0.117 A 
HETATM   22  N3  UNK     1      19.261   2.424  20.300  1.00  0.00    -0.273 NA
HETATM   23  C16 UNK     1      18.840   1.225  19.840  1.00  0.00     0.117 A 
HETATM   24  C14 UNK     1      18.805   0.875  18.500  1.00  0.00     0.036 A 
ENDBRANCH  16  19
ENDBRANCH  14  15
ENDBRANCH   7  13
TORSDOF 3
ENDMDL
MODEL 6
REMARK VINA RESULT:      -8.4     15.544     20.400
REMARK  3 active torsions:
REMARK  status: ('A' for Active; 'I' for Inactive)
REMARK    1  A    between atoms: N1_5  and  N2_6 
REMARK       I    between atoms: C12_19  and  N2_6 
REMARK    2  A    between atoms: C10_17  and  C4_11 
REMARK    3  A    between atoms: C11_18  and  C12_19 
ROOT
HETATM    1 Cl1  UNK     1      21.602  -9.538  12.553  1.00  0.00    -0.084 Cl
HETATM    2  O1  UNK     1      18.037  -4.903  13.198  1.00  0.00    -0.321 OA
HETATM    3  O2  UNK     1      21.609  -4.858  15.174  1.00  0.00    -0.286 OA
HETATM    4  C1  UNK     1      20.137  -6.007  13.728  1.00  0.00     0.050 A 
HETATM    5  C2  UNK     1      18.902  -5.963  13.078  1.00  0.00     0.089 A 
HETATM    6  C3  UNK     1      20.540  -4.873  14.582  1.00  0.00     0.198 A 
HETATM    7  C4  UNK     1      19.571  -3.759  14.676  1.00  0.00     0.056 A 
HETATM    8  C5  UNK     1      20.977  -7.112  13.569  1.00  0.00     0.042 A 
HETATM    9  C6  UNK     1      18.501  -7.024  12.266  1.00  0.00     0.040 A 
HETATM   10  C7  UNK     1      18.423  -3.853  13.997  1.00  0.00     0.159 A 
HETATM   11  C8  UNK     1      20.574  -8.171  12.756  1.00  0.00     0.035 A 
HETATM   12  C9  UNK     1      19.340  -8.128  12.106  1.00  0.00     0.026 A 
ENDROOT
BRANCH   7  13
HETATM   13  C10 UNK     1      19.798  -2.555  15.476  1.00  0.00     0.156 C 
HETATM   14  N1  UNK     1      19.516  -2.493  16.737  1.00  0.00    -0.183 NA
BRANCH  14  15
HETATM   15  N2  UNK     1      19.795  -1.298  17.306  1.00  0.00    -0.243 N 
HETATM   16  C12 UNK     1      18.744  -0.520  17.755  1.00  0.00     0.271 C 
HETATM   17  O3  UNK     1      17.557  -0.829  17.678  1.00  0.00    -0.266 OA
HETATM   18  H6  UNK     1      20.765  -1.006  17.328  1.00  0.00     0.192 HD
BRANCH  16  19
HETATM   19  C11 UNK     1      19.117   0.790  18.351  1.00  0.00     0.036 A 
HETATM   20  C13 UNK     1      19.521   0.832  19.665  1.00  0.00     0.036 A 
HETATM   21  C15 UNK     1      19.858   2.077  20.174  1.00  0.00     0.117 A 
HETATM   22  N3  UNK     1      19.811   3.224  19.460  1.00  0.00    -0.273 NA
HETATM   23  C16 UNK     1      19.406   3.115  18.175  1.00  0.00     0.117 A 
HETATM   24  C14 UNK     1      19.048   1.920  17.572  1.00  0.00     0.036 A 
ENDBRANCH  16  19
ENDBRANCH  14  15
ENDBRANCH   7  13
TORSDOF 3
ENDMDL
MODEL 7
REMARK VINA RESULT:      -8.4      1.528      2.229
REMARK  3 active torsions:
REMARK  status: ('A' for Active; 'I' for Inactive)
REMARK    1  A    between atoms: N1_5  and  N2_6 
REMARK       I    between atoms: C12_19  and  N2_6 
REMARK    2  A    between atoms: C10_17  and  C4_11 
REMARK    3  A    between atoms: C11_18  and  C12_19 
ROOT
HETATM    1 Cl1  UNK     1      13.451  11.083  33.515  1.00  0.00    -0.084 Cl
HETATM    2  O1  UNK     1      18.700   8.428  33.538  1.00  0.00    -0.321 OA
HETATM    3  O2  UNK     1      15.757   6.827  31.204  1.00  0.00    -0.286 OA
HETATM    4  C1  UNK     1      16.411   8.514  32.723  1.00  0.00     0.050 A 
HETATM    5  C2  UNK     1      17.458   9.013  33.501  1.00  0.00     0.089 A 
HETATM    6  C3  UNK     1      16.637   7.308  31.904  1.00  0.00     0.198 A 
HETATM    7  C4  UNK     1      17.992   6.718  31.982  1.00  0.00     0.056 A 
HETATM    8  C5  UNK     1      15.168   9.151  32.724  1.00  0.00     0.042 A 
HETATM    9  C6  UNK     1      17.267  10.152  34.282  1.00  0.00     0.040 A 
HETATM   10  C7  UNK     1      18.899   7.305  32.771  1.00  0.00     0.159 A 
HETATM   11  C8  UNK     1      14.979  10.290  33.507  1.00  0.00     0.035 A 
HETATM   12  C9  UNK     1      16.025  10.790  34.284  1.00  0.00     0.026 A 
ENDROOT
BRANCH   7  13
HETATM   13  C10 UNK     1      18.398   5.523  31.242  1.00  0.00     0.156 C 
HETATM   14  N1  UNK     1      18.158   4.325  31.669  1.00  0.00    -0.183 NA
BRANCH  14  15
HETATM   15  N2  UNK     1      18.609   3.347  30.850  1.00  0.00    -0.243 N 
HETATM   16  C12 UNK     1      18.635   2.049  31.324  1.00  0.00     0.271 C 
HETATM   17  O3  UNK     1      18.276   1.704  32.448  1.00  0.00    -0.266 OA
HETATM   18  H6  UNK     1      18.958   3.625  29.939  1.00  0.00     0.192 HD
BRANCH  16  19
HETATM   19  C11 UNK     1      19.161   1.026  30.382  1.00  0.00     0.036 A 
HETATM   20  C13 UNK     1      20.152   0.175  30.810  1.00  0.00     0.036 A 
HETATM   21  C15 UNK     1      20.608  -0.761  29.894  1.00  0.00     0.117 A 
HETATM   22  N3  UNK     1      20.139  -0.874  28.631  1.00  0.00    -0.273 NA
HETATM   23  C16 UNK     1      19.166  -0.008  28.273  1.00  0.00     0.117 A 
HETATM   24  C14 UNK     1      18.641   0.962  29.111  1.00  0.00     0.036 A 
ENDBRANCH  16  19
ENDBRANCH  14  15
ENDBRANCH   7  13
TORSDOF 3
ENDMDL
MODEL 8
REMARK VINA RESULT:      -8.3     15.282     20.172
REMARK  3 active torsions:
REMARK  status: ('A' for Active; 'I' for Inactive)
REMARK    1  A    between atoms: N1_5  and  N2_6 
REMARK       I    between atoms: C12_19  and  N2_6 
REMARK    2  A    between atoms: C10_17  and  C4_11 
REMARK    3  A    between atoms: C11_18  and  C12_19 
ROOT
HETATM    1 Cl1  UNK     1      16.032  -9.103  13.179  1.00  0.00    -0.084 Cl
HETATM    2  O1  UNK     1      20.647  -5.468  13.497  1.00  0.00    -0.321 OA
HETATM    3  O2  UNK     1      17.410  -4.661  15.851  1.00  0.00    -0.286 OA
HETATM    4  C1  UNK     1      18.409  -6.066  14.237  1.00  0.00     0.050 A 
HETATM    5  C2  UNK     1      19.545  -6.288  13.457  1.00  0.00     0.089 A 
HETATM    6  C3  UNK     1      18.379  -4.904  15.145  1.00  0.00     0.198 A 
HETATM    7  C4  UNK     1      19.590  -4.053  15.149  1.00  0.00     0.056 A 
HETATM    8  C5  UNK     1      17.318  -6.934  14.155  1.00  0.00     0.042 A 
HETATM    9  C6  UNK     1      19.596  -7.380  12.591  1.00  0.00     0.040 A 
HETATM   10  C7  UNK     1      20.606  -4.388  14.347  1.00  0.00     0.159 A 
HETATM   11  C8  UNK     1      17.371  -8.026  13.288  1.00  0.00     0.035 A 
HETATM   12  C9  UNK     1      18.507  -8.249  12.508  1.00  0.00     0.026 A 
ENDROOT
BRANCH   7  13
HETATM   13  C10 UNK     1      19.738  -2.861  15.983  1.00  0.00     0.156 C 
HETATM   14  N1  UNK     1      19.179  -1.732  15.689  1.00  0.00    -0.183 NA
BRANCH  14  15
HETATM   15  N2  UNK     1      19.431  -0.743  16.578  1.00  0.00    -0.243 N 
HETATM   16  C12 UNK     1      18.463  -0.437  17.516  1.00  0.00     0.271 C 
HETATM   17  O3  UNK     1      17.373  -0.997  17.610  1.00  0.00    -0.266 OA
HETATM   18  H6  UNK     1      20.303  -0.236  16.478  1.00  0.00     0.192 HD
BRANCH  16  19
HETATM   19  C11 UNK     1      18.794   0.672  18.449  1.00  0.00     0.036 A 
HETATM   20  C13 UNK     1      18.756   0.436  19.803  1.00  0.00     0.036 A 
HETATM   21  C15 UNK     1      19.073   1.502  20.631  1.00  0.00     0.117 A 
HETATM   22  N3  UNK     1      19.408   2.733  20.183  1.00  0.00    -0.273 NA
HETATM   23  C16 UNK     1      19.427   2.900  18.842  1.00  0.00     0.117 A 
HETATM   24  C14 UNK     1      19.128   1.901  17.931  1.00  0.00     0.036 A 
ENDBRANCH  16  19
ENDBRANCH  14  15
ENDBRANCH   7  13
TORSDOF 3
ENDMDL
MODEL 9
REMARK VINA RESULT:      -8.1      8.051     10.554
REMARK  3 active torsions:
REMARK  status: ('A' for Active; 'I' for Inactive)
REMARK    1  A    between atoms: N1_5  and  N2_6 
REMARK       I    between atoms: C12_19  and  N2_6 
REMARK    2  A    between atoms: C10_17  and  C4_11 
REMARK    3  A    between atoms: C11_18  and  C12_19 
ROOT
HETATM    1 Cl1  UNK     1      18.285   3.295  34.345  1.00  0.00    -0.084 Cl
HETATM    2  O1  UNK     1      18.163  -1.293  38.025  1.00  0.00    -0.321 OA
HETATM    3  O2  UNK     1      19.913  -1.816  34.372  1.00  0.00    -0.286 OA
HETATM    4  C1  UNK     1      18.799  -0.366  35.869  1.00  0.00     0.050 A 
HETATM    5  C2  UNK     1      18.215  -0.251  37.131  1.00  0.00     0.089 A 
HETATM    6  C3  UNK     1      19.388  -1.657  35.466  1.00  0.00     0.198 A 
HETATM    7  C4  UNK     1      19.305  -2.746  36.464  1.00  0.00     0.056 A 
HETATM    8  C5  UNK     1      18.824   0.728  35.002  1.00  0.00     0.042 A 
HETATM    9  C6  UNK     1      17.653   0.961  37.533  1.00  0.00     0.040 A 
HETATM   10  C7  UNK     1      18.715  -2.492  37.637  1.00  0.00     0.159 A 
HETATM   11  C8  UNK     1      18.261   1.939  35.406  1.00  0.00     0.035 A 
HETATM   12  C9  UNK     1      17.677   2.056  36.668  1.00  0.00     0.026 A 
ENDROOT
BRANCH   7  13
HETATM   13  C10 UNK     1      19.833  -4.092  36.240  1.00  0.00     0.156 C 
HETATM   14  N1  UNK     1      20.259  -4.842  37.204  1.00  0.00    -0.183 NA
BRANCH  14  15
HETATM   15  N2  UNK     1      20.711  -6.053  36.803  1.00  0.00    -0.243 N 
HETATM   16  C12 UNK     1      19.962  -7.173  37.113  1.00  0.00     0.271 C 
HETATM   17  O3  UNK     1      18.902  -7.159  37.735  1.00  0.00    -0.266 OA
HETATM   18  H6  UNK     1      21.611  -6.085  36.336  1.00  0.00     0.192 HD
BRANCH  16  19
HETATM   19  C11 UNK     1      20.524  -8.473  36.662  1.00  0.00     0.036 A 
HETATM   20  C13 UNK     1      21.178  -8.531  35.454  1.00  0.00     0.036 A 
HETATM   21  C15 UNK     1      21.685  -9.766  35.078  1.00  0.00     0.117 A 
HETATM   22  N3  UNK     1      21.570 -10.889  35.823  1.00  0.00    -0.273 NA
HETATM   23  C16 UNK     1      20.916 -10.764  36.999  1.00  0.00     0.117 A 
HETATM   24  C14 UNK     1      20.374  -9.578  37.465  1.00  0.00     0.036 A 
ENDBRANCH  16  19
ENDBRANCH  14  15
ENDBRANCH   7  13
TORSDOF 3
ENDMDL
MODEL 10
REMARK VINA RESULT:      -8.1      9.785     14.496
REMARK  3 active torsions:
REMARK  status: ('A' for Active; 'I' for Inactive)
REMARK    1  A    between atoms: N1_5  and  N2_6 
REMARK       I    between atoms: C12_19  and  N2_6 
REMARK    2  A    between atoms: C10_17  and  C4_11 
REMARK    3  A    between atoms: C11_18  and  C12_19 
ROOT
HETATM    1 Cl1  UNK     1      22.867 -11.550  35.507  1.00  0.00    -0.084 Cl
HETATM    2  O1  UNK     1      18.700  -8.247  38.024  1.00  0.00    -0.321 OA
HETATM    3  O2  UNK     1      20.932  -6.568  35.046  1.00  0.00    -0.286 OA
HETATM    4  C1  UNK     1      20.481  -8.462  36.383  1.00  0.00     0.050 A 
HETATM    5  C2  UNK     1      19.685  -8.979  37.407  1.00  0.00     0.089 A 
HETATM    6  C3  UNK     1      20.265  -7.072  35.938  1.00  0.00     0.198 A 
HETATM    7  C4  UNK     1      19.193  -6.329  36.636  1.00  0.00     0.056 A 
HETATM    8  C5  UNK     1      21.468  -9.254  35.791  1.00  0.00     0.042 A 
HETATM    9  C6  UNK     1      19.871 -10.290  37.844  1.00  0.00     0.040 A 
HETATM   10  C7  UNK     1      18.508  -6.953  37.601  1.00  0.00     0.159 A 
HETATM   11  C8  UNK     1      21.653 -10.565  36.230  1.00  0.00     0.035 A 
HETATM   12  C9  UNK     1      20.857 -11.083  37.253  1.00  0.00     0.026 A 
ENDROOT
BRANCH   7  13
HETATM   13  C10 UNK     1      18.838  -4.943  36.330  1.00  0.00     0.156 C 
HETATM   14  N1  UNK     1      19.694  -3.975  36.398  1.00  0.00    -0.183 NA
BRANCH  14  15
HETATM   15  N2  UNK     1      19.182  -2.763  36.080  1.00  0.00    -0.243 N 
HETATM   16  C12 UNK     1      18.917  -1.869  37.101  1.00  0.00     0.271 C 
HETATM   17  O3  UNK     1      19.112  -2.088  38.294  1.00  0.00    -0.266 OA
HETATM   18  H6  UNK     1      18.966  -2.589  35.105  1.00  0.00     0.192 HD
BRANCH  16  19
HETATM   19  C11 UNK     1      18.337  -0.565  36.685  1.00  0.00     0.036 A 
HETATM   20  C13 UNK     1      17.454   0.069  37.527  1.00  0.00     0.036 A 
HETATM   21  C15 UNK     1      16.940   1.281  37.094  1.00  0.00     0.117 A 
HETATM   22  N3  UNK     1      17.257   1.858  35.912  1.00  0.00    -0.273 NA
HETATM   23  C16 UNK     1      18.131   1.185  35.131  1.00  0.00     0.117 A 
HETATM   24  C14 UNK     1      18.700  -0.031  35.472  1.00  0.00     0.036 A 
ENDBRANCH  16  19
ENDBRANCH  14  15
ENDBRANCH   7  13
TORSDOF 3
ENDMDL
