MODEL 1
REMARK VINA RESULT:      -9.2      0.000      0.000
REMARK  3 active torsions:
REMARK  status: ('A' for Active; 'I' for Inactive)
REMARK    1  A    between atoms: C14_18  and  O3_3 
REMARK    2  A    between atoms: C4_8  and  C6_10 
REMARK    3  A    between atoms: C14_18  and  C7_11 
ROOT
HETATM    1  O1  UNK     1      18.694   0.263  32.567  1.00  0.00    -0.307 OA
HETATM    2  O2  UNK     1      21.004  -3.085  32.707  1.00  0.00    -0.287 OA
HETATM    3  C1  UNK     1      20.171  -1.290  31.440  1.00  0.00     0.050 A 
HETATM    4  C2  UNK     1      19.368  -0.155  31.451  1.00  0.00     0.107 A 
HETATM    5  C3  UNK     1      19.556  -1.596  33.868  1.00  0.00     0.024 A 
HETATM    6  C4  UNK     1      18.820  -0.474  33.731  1.00  0.00     0.096 A 
HETATM    7  C5  UNK     1      20.305  -2.080  32.673  1.00  0.00     0.193 A 
HETATM    8  C7  UNK     1      19.222   0.611  30.294  1.00  0.00     0.072 A 
HETATM    9  C8  UNK     1      20.837  -1.669  30.271  1.00  0.00     0.018 A 
HETATM   10  C9  UNK     1      19.696  -2.430  35.108  1.00  0.00     0.055 C 
HETATM   11  C10 UNK     1      19.884   0.235  29.125  1.00  0.00     0.021 A 
HETATM   12  C11 UNK     1      20.691  -0.902  29.114  1.00  0.00     0.002 A 
ENDROOT
BRANCH   6  13
HETATM   13  C6  UNK     1      18.045   0.106  34.837  1.00  0.00    -0.002 A 
HETATM   14  C12 UNK     1      16.690  -0.196  34.974  1.00  0.00     0.014 A 
HETATM   15  C15 UNK     1      15.954   0.353  36.024  1.00  0.00     0.001 A 
HETATM   16  C17 UNK     1      16.573   1.205  36.938  1.00  0.00     0.000 A 
HETATM   17  C16 UNK     1      17.928   1.508  36.802  1.00  0.00     0.001 A 
HETATM   18  C13 UNK     1      18.664   0.958  35.752  1.00  0.00     0.014 A 
ENDBRANCH   6  13
BRANCH   8  19
HETATM   19  C14 UNK     1      18.388   1.805  30.274  1.00  0.00     0.179 C 
HETATM   20  O4  UNK     1      17.453   2.009  29.495  1.00  0.00    -0.646 OA
BRANCH  19  21
HETATM   21  O3  UNK     1      18.748   2.705  31.228  1.00  0.00    -0.773 OA
HETATM   22  H12 UNK     1      19.517   3.247  30.948  1.00  0.00     0.167 HD
ENDBRANCH  19  21
ENDBRANCH   8  19
TORSDOF 3
ENDMDL
MODEL 2
REMARK VINA RESULT:      -8.5      6.356      8.946
REMARK  3 active torsions:
REMARK  status: ('A' for Active; 'I' for Inactive)
REMARK    1  A    between atoms: C14_18  and  O3_3 
REMARK    2  A    between atoms: C4_8  and  C6_10 
REMARK    3  A    between atoms: C14_18  and  C7_11 
ROOT
HETATM    1  O1  UNK     1      16.645   6.758  32.489  1.00  0.00    -0.307 OA
HETATM    2  O2  UNK     1      19.397   9.161  34.285  1.00  0.00    -0.287 OA
HETATM    3  C1  UNK     1      17.148   8.786  33.713  1.00  0.00     0.050 A 
HETATM    4  C2  UNK     1      16.254   7.927  33.084  1.00  0.00     0.107 A 
HETATM    5  C3  UNK     1      18.966   7.153  33.081  1.00  0.00     0.024 A 
HETATM    6  C4  UNK     1      17.987   6.418  32.517  1.00  0.00     0.096 A 
HETATM    7  C5  UNK     1      18.576   8.432  33.741  1.00  0.00     0.193 A 
HETATM    8  C7  UNK     1      14.895   8.240  33.042  1.00  0.00     0.072 A 
HETATM    9  C8  UNK     1      16.691   9.967  34.305  1.00  0.00     0.018 A 
HETATM   10  C9  UNK     1      20.431   6.826  33.109  1.00  0.00     0.055 C 
HETATM   11  C10 UNK     1      14.435   9.417  33.632  1.00  0.00     0.021 A 
HETATM   12  C11 UNK     1      15.332  10.279  34.263  1.00  0.00     0.002 A 
ENDROOT
BRANCH   6  13
HETATM   13  C6  UNK     1      18.244   5.137  31.844  1.00  0.00    -0.002 A 
HETATM   14  C12 UNK     1      18.047   3.936  32.526  1.00  0.00     0.014 A 
HETATM   15  C15 UNK     1      18.290   2.721  31.887  1.00  0.00     0.001 A 
HETATM   16  C17 UNK     1      18.732   2.705  30.565  1.00  0.00     0.000 A 
HETATM   17  C16 UNK     1      18.931   3.905  29.881  1.00  0.00     0.001 A 
HETATM   18  C13 UNK     1      18.686   5.120  30.521  1.00  0.00     0.014 A 
ENDBRANCH   6  13
BRANCH   8  19
HETATM   19  C14 UNK     1      13.933   7.359  32.392  1.00  0.00     0.179 C 
HETATM   20  O4  UNK     1      13.032   6.741  32.965  1.00  0.00    -0.646 OA
BRANCH  19  21
HETATM   21  O3  UNK     1      14.127   7.281  31.048  1.00  0.00    -0.773 OA
HETATM   22  H12 UNK     1      13.285   7.139  30.565  1.00  0.00     0.167 HD
ENDBRANCH  19  21
ENDBRANCH   8  19
TORSDOF 3
ENDMDL
MODEL 3
REMARK VINA RESULT:      -8.2      2.920      4.486
REMARK  3 active torsions:
REMARK  status: ('A' for Active; 'I' for Inactive)
REMARK    1  A    between atoms: C14_18  and  O3_3 
REMARK    2  A    between atoms: C4_8  and  C6_10 
REMARK    3  A    between atoms: C14_18  and  C7_11 
ROOT
HETATM    1  O1  UNK     1      17.914   3.433  33.359  1.00  0.00    -0.307 OA
HETATM    2  O2  UNK     1      19.370   1.512  30.079  1.00  0.00    -0.287 OA
HETATM    3  C1  UNK     1      18.729   3.538  31.081  1.00  0.00     0.050 A 
HETATM    4  C2  UNK     1      18.227   4.140  32.230  1.00  0.00     0.107 A 
HETATM    5  C3  UNK     1      18.576   1.343  32.317  1.00  0.00     0.024 A 
HETATM    6  C4  UNK     1      18.106   2.062  33.356  1.00  0.00     0.096 A 
HETATM    7  C5  UNK     1      18.930   2.081  31.070  1.00  0.00     0.193 A 
HETATM    8  C7  UNK     1      18.025   5.520  32.266  1.00  0.00     0.072 A 
HETATM    9  C8  UNK     1      19.032   4.311  29.956  1.00  0.00     0.018 A 
HETATM   10  C9  UNK     1      18.775  -0.144  32.272  1.00  0.00     0.055 C 
HETATM   11  C10 UNK     1      18.327   6.295  31.146  1.00  0.00     0.021 A 
HETATM   12  C11 UNK     1      18.830   5.691  29.994  1.00  0.00     0.002 A 
ENDROOT
BRANCH   6  13
HETATM   13  C6  UNK     1      17.731   1.450  34.638  1.00  0.00    -0.002 A 
HETATM   14  C12 UNK     1      18.498   1.689  35.778  1.00  0.00     0.014 A 
HETATM   15  C15 UNK     1      18.141   1.109  36.996  1.00  0.00     0.001 A 
HETATM   16  C17 UNK     1      17.015   0.290  37.073  1.00  0.00     0.000 A 
HETATM   17  C16 UNK     1      16.247   0.049  35.934  1.00  0.00     0.001 A 
HETATM   18  C13 UNK     1      16.605   0.630  34.717  1.00  0.00     0.014 A 
ENDBRANCH   6  13
BRANCH   8  19
HETATM   19  C14 UNK     1      17.502   6.180  33.455  1.00  0.00     0.179 C 
HETATM   20  O4  UNK     1      16.410   6.749  33.532  1.00  0.00    -0.646 OA
BRANCH  19  21
HETATM   21  O3  UNK     1      18.360   6.108  34.507  1.00  0.00    -0.773 OA
HETATM   22  H12 UNK     1      18.803   5.234  34.559  1.00  0.00     0.167 HD
ENDBRANCH  19  21
ENDBRANCH   8  19
TORSDOF 3
ENDMDL
MODEL 4
REMARK VINA RESULT:      -8.2      1.141      3.774
REMARK  3 active torsions:
REMARK  status: ('A' for Active; 'I' for Inactive)
REMARK    1  A    between atoms: C14_18  and  O3_3 
REMARK    2  A    between atoms: C4_8  and  C6_10 
REMARK    3  A    between atoms: C14_18  and  C7_11 
ROOT
HETATM    1  O1  UNK     1      19.181  -0.004  32.794  1.00  0.00    -0.307 OA
HETATM    2  O2  UNK     1      18.723   2.808  29.887  1.00  0.00    -0.287 OA
HETATM    3  C1  UNK     1      19.515   0.681  30.495  1.00  0.00     0.050 A 
HETATM    4  C2  UNK     1      19.643  -0.241  31.528  1.00  0.00     0.107 A 
HETATM    5  C3  UNK     1      18.368   2.194  32.158  1.00  0.00     0.024 A 
HETATM    6  C4  UNK     1      18.557   1.204  33.055  1.00  0.00     0.096 A 
HETATM    7  C5  UNK     1      18.858   1.969  30.768  1.00  0.00     0.193 A 
HETATM    8  C7  UNK     1      20.265  -1.469  31.296  1.00  0.00     0.072 A 
HETATM    9  C8  UNK     1      20.006   0.384  29.220  1.00  0.00     0.018 A 
HETATM   10  C9  UNK     1      17.717   3.522  32.413  1.00  0.00     0.055 C 
HETATM   11  C10 UNK     1      20.756  -1.769  30.026  1.00  0.00     0.021 A 
HETATM   12  C11 UNK     1      20.626  -0.845  28.990  1.00  0.00     0.002 A 
ENDROOT
BRANCH   6  13
HETATM   13  C6  UNK     1      18.113   1.304  34.452  1.00  0.00    -0.002 A 
HETATM   14  C12 UNK     1      18.874   2.016  35.379  1.00  0.00     0.014 A 
HETATM   15  C15 UNK     1      18.451   2.112  36.705  1.00  0.00     0.001 A 
HETATM   16  C17 UNK     1      17.266   1.496  37.104  1.00  0.00     0.000 A 
HETATM   17  C16 UNK     1      16.504   0.783  36.179  1.00  0.00     0.001 A 
HETATM   18  C13 UNK     1      16.927   0.688  34.852  1.00  0.00     0.014 A 
ENDBRANCH   6  13
BRANCH   8  19
HETATM   19  C14 UNK     1      20.413  -2.456  32.357  1.00  0.00     0.179 C 
HETATM   20  O4  UNK     1      21.256  -3.358  32.378  1.00  0.00    -0.646 OA
BRANCH  19  21
HETATM   21  O3  UNK     1      19.507  -2.285  33.356  1.00  0.00    -0.773 OA
HETATM   22  H12 UNK     1      19.048  -3.123  33.580  1.00  0.00     0.167 HD
ENDBRANCH  19  21
ENDBRANCH   8  19
TORSDOF 3
ENDMDL
MODEL 5
REMARK VINA RESULT:      -8.1      3.673      5.852
REMARK  3 active torsions:
REMARK  status: ('A' for Active; 'I' for Inactive)
REMARK    1  A    between atoms: C14_18  and  O3_3 
REMARK    2  A    between atoms: C4_8  and  C6_10 
REMARK    3  A    between atoms: C14_18  and  C7_11 
ROOT
HETATM    1  O1  UNK     1      18.267   3.108  33.924  1.00  0.00    -0.307 OA
HETATM    2  O2  UNK     1      18.763   1.049  30.448  1.00  0.00    -0.287 OA
HETATM    3  C1  UNK     1      18.502   0.985  32.783  1.00  0.00     0.050 A 
HETATM    4  C2  UNK     1      18.334   1.741  33.938  1.00  0.00     0.107 A 
HETATM    5  C3  UNK     1      18.539   3.166  31.513  1.00  0.00     0.024 A 
HETATM    6  C4  UNK     1      18.367   3.763  32.710  1.00  0.00     0.096 A 
HETATM    7  C5  UNK     1      18.616   1.677  31.490  1.00  0.00     0.193 A 
HETATM    8  C7  UNK     1      18.227   1.110  35.177  1.00  0.00     0.072 A 
HETATM    9  C8  UNK     1      18.564  -0.410  32.856  1.00  0.00     0.018 A 
HETATM   10  C9  UNK     1      18.675   3.846  30.182  1.00  0.00     0.055 C 
HETATM   11  C10 UNK     1      18.288  -0.282  35.255  1.00  0.00     0.021 A 
HETATM   12  C11 UNK     1      18.456  -1.040  34.096  1.00  0.00     0.002 A 
ENDROOT
BRANCH   6  13
HETATM   13  C6  UNK     1      18.270   5.221  32.861  1.00  0.00    -0.002 A 
HETATM   14  C12 UNK     1      19.382   5.958  33.270  1.00  0.00     0.014 A 
HETATM   15  C15 UNK     1      19.289   7.343  33.412  1.00  0.00     0.001 A 
HETATM   16  C17 UNK     1      18.084   7.992  33.146  1.00  0.00     0.000 A 
HETATM   17  C16 UNK     1      16.971   7.256  32.738  1.00  0.00     0.001 A 
HETATM   18  C13 UNK     1      17.064   5.871  32.595  1.00  0.00     0.014 A 
ENDBRANCH   6  13
BRANCH   8  19
HETATM   19  C14 UNK     1      18.049   1.873  36.405  1.00  0.00     0.179 C 
HETATM   20  O4  UNK     1      17.006   1.933  37.062  1.00  0.00    -0.646 OA
BRANCH  19  21
HETATM   21  O3  UNK     1      19.178   2.535  36.772  1.00  0.00    -0.773 OA
HETATM   22  H12 UNK     1      18.986   3.269  37.395  1.00  0.00     0.167 HD
ENDBRANCH  19  21
ENDBRANCH   8  19
TORSDOF 3
ENDMDL
MODEL 6
REMARK VINA RESULT:      -8.0     23.365     26.007
REMARK  3 active torsions:
REMARK  status: ('A' for Active; 'I' for Inactive)
REMARK    1  A    between atoms: C14_18  and  O3_3 
REMARK    2  A    between atoms: C4_8  and  C6_10 
REMARK    3  A    between atoms: C14_18  and  C7_11 
ROOT
HETATM    1  O1  UNK     1      12.936   6.974   9.121  1.00  0.00    -0.307 OA
HETATM    2  O2  UNK     1      12.590  10.465  11.187  1.00  0.00    -0.287 OA
HETATM    3  C1  UNK     1      13.898   8.588  10.650  1.00  0.00     0.050 A 
HETATM    4  C2  UNK     1      13.959   7.405   9.922  1.00  0.00     0.107 A 
HETATM    5  C3  UNK     1      11.590   8.915   9.683  1.00  0.00     0.024 A 
HETATM    6  C4  UNK     1      11.794   7.752   9.032  1.00  0.00     0.096 A 
HETATM    7  C5  UNK     1      12.685   9.415  10.563  1.00  0.00     0.193 A 
HETATM    8  C7  UNK     1      15.097   6.600   9.988  1.00  0.00     0.072 A 
HETATM    9  C8  UNK     1      14.975   8.977  11.452  1.00  0.00     0.018 A 
HETATM   10  C9  UNK     1      10.357   9.770   9.627  1.00  0.00     0.055 C 
HETATM   11  C10 UNK     1      16.174   6.986  10.787  1.00  0.00     0.021 A 
HETATM   12  C11 UNK     1      16.113   8.173  11.517  1.00  0.00     0.002 A 
ENDROOT
BRANCH   6  13
HETATM   13  C6  UNK     1      10.794   7.161   8.131  1.00  0.00    -0.002 A 
HETATM   14  C12 UNK     1       9.601   6.655   8.647  1.00  0.00     0.014 A 
HETATM   15  C15 UNK     1       8.652   6.096   7.792  1.00  0.00     0.001 A 
HETATM   16  C17 UNK     1       8.895   6.042   6.420  1.00  0.00     0.000 A 
HETATM   17  C16 UNK     1      10.088   6.547   5.903  1.00  0.00     0.001 A 
HETATM   18  C13 UNK     1      11.037   7.107   6.759  1.00  0.00     0.014 A 
ENDBRANCH   6  13
BRANCH   8  19
HETATM   19  C14 UNK     1      15.192   5.356   9.236  1.00  0.00     0.179 C 
HETATM   20  O4  UNK     1      15.528   4.264   9.704  1.00  0.00    -0.646 OA
BRANCH  19  21
HETATM   21  O3  UNK     1      14.865   5.515   7.926  1.00  0.00    -0.773 OA
HETATM   22  H12 UNK     1      13.972   5.906   7.817  1.00  0.00     0.167 HD
ENDBRANCH  19  21
ENDBRANCH   8  19
TORSDOF 3
ENDMDL
MODEL 7
REMARK VINA RESULT:      -7.8     24.018     26.207
REMARK  3 active torsions:
REMARK  status: ('A' for Active; 'I' for Inactive)
REMARK    1  A    between atoms: C14_18  and  O3_3 
REMARK    2  A    between atoms: C4_8  and  C6_10 
REMARK    3  A    between atoms: C14_18  and  C7_11 
ROOT
HETATM    1  O1  UNK     1      13.417   7.633   8.461  1.00  0.00    -0.307 OA
HETATM    2  O2  UNK     1      15.212   4.210   9.737  1.00  0.00    -0.287 OA
HETATM    3  C1  UNK     1      15.315   6.546   9.500  1.00  0.00     0.050 A 
HETATM    4  C2  UNK     1      14.654   7.681   9.045  1.00  0.00     0.107 A 
HETATM    5  C3  UNK     1      13.319   5.220   8.707  1.00  0.00     0.024 A 
HETATM    6  C4  UNK     1      12.798   6.403   8.321  1.00  0.00     0.096 A 
HETATM    7  C5  UNK     1      14.665   5.235   9.349  1.00  0.00     0.193 A 
HETATM    8  C7  UNK     1      15.249   8.936   9.173  1.00  0.00     0.072 A 
HETATM    9  C8  UNK     1      16.578   6.655  10.089  1.00  0.00     0.018 A 
HETATM   10  C9  UNK     1      12.687   3.868   8.550  1.00  0.00     0.055 C 
HETATM   11  C10 UNK     1      16.509   9.050   9.761  1.00  0.00     0.021 A 
HETATM   12  C11 UNK     1      17.172   7.911  10.218  1.00  0.00     0.002 A 
ENDROOT
BRANCH   6  13
HETATM   13  C6  UNK     1      11.479   6.518   7.686  1.00  0.00    -0.002 A 
HETATM   14  C12 UNK     1      11.358   6.414   6.300  1.00  0.00     0.014 A 
HETATM   15  C15 UNK     1      10.105   6.522   5.697  1.00  0.00     0.001 A 
HETATM   16  C17 UNK     1       8.971   6.736   6.480  1.00  0.00     0.000 A 
HETATM   17  C16 UNK     1       9.090   6.841   7.865  1.00  0.00     0.001 A 
HETATM   18  C13 UNK     1      10.344   6.732   8.468  1.00  0.00     0.014 A 
ENDBRANCH   6  13
BRANCH   8  19
HETATM   19  C14 UNK     1      14.581  10.145   8.708  1.00  0.00     0.179 C 
HETATM   20  O4  UNK     1      15.029  10.926   7.863  1.00  0.00    -0.646 OA
BRANCH  19  21
HETATM   21  O3  UNK     1      13.378  10.337   9.310  1.00  0.00    -0.773 OA
HETATM   22  H12 UNK     1      13.270   9.770  10.103  1.00  0.00     0.167 HD
ENDBRANCH  19  21
ENDBRANCH   8  19
TORSDOF 3
ENDMDL
MODEL 8
REMARK VINA RESULT:      -7.7      1.856      5.493
REMARK  3 active torsions:
REMARK  status: ('A' for Active; 'I' for Inactive)
REMARK    1  A    between atoms: C14_18  and  O3_3 
REMARK    2  A    between atoms: C4_8  and  C6_10 
REMARK    3  A    between atoms: C14_18  and  C7_11 
ROOT
HETATM    1  O1  UNK     1      18.729  -0.726  33.603  1.00  0.00    -0.307 OA
HETATM    2  O2  UNK     1      20.749  -3.641  35.601  1.00  0.00    -0.287 OA
HETATM    3  C1  UNK     1      19.143  -1.927  35.666  1.00  0.00     0.050 A 
HETATM    4  C2  UNK     1      18.485  -0.946  34.932  1.00  0.00     0.107 A 
HETATM    5  C3  UNK     1      20.388  -2.497  33.546  1.00  0.00     0.024 A 
HETATM    6  C4  UNK     1      19.669  -1.516  32.964  1.00  0.00     0.096 A 
HETATM    7  C5  UNK     1      20.147  -2.765  34.993  1.00  0.00     0.193 A 
HETATM    8  C7  UNK     1      17.530  -0.135  35.547  1.00  0.00     0.072 A 
HETATM    9  C8  UNK     1      18.853  -2.107  37.021  1.00  0.00     0.018 A 
HETATM   10  C9  UNK     1      21.430  -3.355  32.888  1.00  0.00     0.055 C 
HETATM   11  C10 UNK     1      17.237  -0.312  36.900  1.00  0.00     0.021 A 
HETATM   12  C11 UNK     1      17.897  -1.296  37.635  1.00  0.00     0.002 A 
ENDROOT
BRANCH   6  13
HETATM   13  C6  UNK     1      19.811  -1.163  31.545  1.00  0.00    -0.002 A 
HETATM   14  C12 UNK     1      20.145  -2.143  30.610  1.00  0.00     0.014 A 
HETATM   15  C15 UNK     1      20.279  -1.808  29.263  1.00  0.00     0.001 A 
HETATM   16  C17 UNK     1      20.079  -0.492  28.849  1.00  0.00     0.000 A 
HETATM   17  C16 UNK     1      19.746   0.490  29.782  1.00  0.00     0.001 A 
HETATM   18  C13 UNK     1      19.611   0.154  31.130  1.00  0.00     0.014 A 
ENDBRANCH   6  13
BRANCH   8  19
HETATM   19  C14 UNK     1      16.822   0.900  34.806  1.00  0.00     0.179 C 
HETATM   20  O4  UNK     1      15.633   0.856  34.480  1.00  0.00    -0.646 OA
BRANCH  19  21
HETATM   21  O3  UNK     1      17.622   1.955  34.497  1.00  0.00    -0.773 OA
HETATM   22  H12 UNK     1      17.115   2.793  34.432  1.00  0.00     0.167 HD
ENDBRANCH  19  21
ENDBRANCH   8  19
TORSDOF 3
ENDMDL
MODEL 9
REMARK VINA RESULT:      -7.5      1.498      5.185
REMARK  3 active torsions:
REMARK  status: ('A' for Active; 'I' for Inactive)
REMARK    1  A    between atoms: C14_18  and  O3_3 
REMARK    2  A    between atoms: C4_8  and  C6_10 
REMARK    3  A    between atoms: C14_18  and  C7_11 
ROOT
HETATM    1  O1  UNK     1      18.660  -0.004  32.992  1.00  0.00    -0.307 OA
HETATM    2  O2  UNK     1      21.216  -3.133  32.496  1.00  0.00    -0.287 OA
HETATM    3  C1  UNK     1      19.777  -1.942  33.922  1.00  0.00     0.050 A 
HETATM    4  C2  UNK     1      18.915  -0.856  34.032  1.00  0.00     0.107 A 
HETATM    5  C3  UNK     1      20.151  -1.238  31.527  1.00  0.00     0.024 A 
HETATM    6  C4  UNK     1      19.287  -0.234  31.780  1.00  0.00     0.096 A 
HETATM    7  C5  UNK     1      20.450  -2.188  32.637  1.00  0.00     0.193 A 
HETATM    8  C7  UNK     1      18.266  -0.599  35.240  1.00  0.00     0.072 A 
HETATM    9  C8  UNK     1      19.998  -2.780  35.018  1.00  0.00     0.018 A 
HETATM   10  C9  UNK     1      20.864  -1.503  30.233  1.00  0.00     0.055 C 
HETATM   11  C10 UNK     1      18.484  -1.433  36.337  1.00  0.00     0.021 A 
HETATM   12  C11 UNK     1      19.348  -2.522  36.225  1.00  0.00     0.002 A 
ENDROOT
BRANCH   6  13
HETATM   13  C6  UNK     1      18.907   0.759  30.766  1.00  0.00    -0.002 A 
HETATM   14  C12 UNK     1      18.623   0.355  29.462  1.00  0.00     0.014 A 
HETATM   15  C15 UNK     1      18.261   1.298  28.500  1.00  0.00     0.001 A 
HETATM   16  C17 UNK     1      18.184   2.648  28.842  1.00  0.00     0.000 A 
HETATM   17  C16 UNK     1      18.469   3.054  30.146  1.00  0.00     0.001 A 
HETATM   18  C13 UNK     1      18.830   2.110  31.108  1.00  0.00     0.014 A 
ENDBRANCH   6  13
BRANCH   8  19
HETATM   19  C14 UNK     1      17.355   0.529  35.388  1.00  0.00     0.179 C 
HETATM   20  O4  UNK     1      17.466   1.429  36.226  1.00  0.00    -0.646 OA
BRANCH  19  21
HETATM   21  O3  UNK     1      16.339   0.497  34.485  1.00  0.00    -0.773 OA
HETATM   22  H12 UNK     1      15.630   1.137  34.710  1.00  0.00     0.167 HD
ENDBRANCH  19  21
ENDBRANCH   8  19
TORSDOF 3
ENDMDL
MODEL 10
REMARK VINA RESULT:      -7.5      8.987     11.744
REMARK  3 active torsions:
REMARK  status: ('A' for Active; 'I' for Inactive)
REMARK    1  A    between atoms: C14_18  and  O3_3 
REMARK    2  A    between atoms: C4_8  and  C6_10 
REMARK    3  A    between atoms: C14_18  and  C7_11 
ROOT
HETATM    1  O1  UNK     1      23.825  -8.201  37.514  1.00  0.00    -0.307 OA
HETATM    2  O2  UNK     1      23.021 -11.556  35.353  1.00  0.00    -0.287 OA
HETATM    3  C1  UNK     1      22.229  -9.553  36.293  1.00  0.00     0.050 A 
HETATM    4  C2  UNK     1      22.562  -8.427  37.036  1.00  0.00     0.107 A 
HETATM    5  C3  UNK     1      24.635 -10.273  36.542  1.00  0.00     0.024 A 
HETATM    6  C4  UNK     1      24.811  -9.133  37.241  1.00  0.00     0.096 A 
HETATM    7  C5  UNK     1      23.271 -10.550  36.005  1.00  0.00     0.193 A 
HETATM    8  C7  UNK     1      21.591  -7.467  37.325  1.00  0.00     0.072 A 
HETATM    9  C8  UNK     1      20.921  -9.731  35.830  1.00  0.00     0.018 A 
HETATM   10  C9  UNK     1      25.675 -11.314  36.248  1.00  0.00     0.055 C 
HETATM   11  C10 UNK     1      20.285  -7.641  36.866  1.00  0.00     0.021 A 
HETATM   12  C11 UNK     1      19.952  -8.770  36.119  1.00  0.00     0.002 A 
ENDROOT
BRANCH   6  13
HETATM   13  C6  UNK     1      26.107  -8.746  37.813  1.00  0.00    -0.002 A 
HETATM   14  C12 UNK     1      27.076  -8.145  37.009  1.00  0.00     0.014 A 
HETATM   15  C15 UNK     1      28.306  -7.777  37.552  1.00  0.00     0.001 A 
HETATM   16  C17 UNK     1      28.570  -8.009  38.902  1.00  0.00     0.000 A 
HETATM   17  C16 UNK     1      27.603  -8.611  39.708  1.00  0.00     0.001 A 
HETATM   18  C13 UNK     1      26.372  -8.978  39.163  1.00  0.00     0.014 A 
ENDBRANCH   6  13
BRANCH   8  19
HETATM   19  C14 UNK     1      21.908  -6.275  38.101  1.00  0.00     0.179 C 
HETATM   20  O4  UNK     1      21.951  -5.125  37.655  1.00  0.00    -0.646 OA
BRANCH  19  21
HETATM   21  O3  UNK     1      22.161  -6.558  39.407  1.00  0.00    -0.773 OA
HETATM   22  H12 UNK     1      23.072  -6.304  39.667  1.00  0.00     0.167 HD
ENDBRANCH  19  21
ENDBRANCH   8  19
TORSDOF 3
ENDMDL
