MODEL 1
REMARK VINA RESULT:     -11.4      0.000      0.000
REMARK  5 active torsions:
REMARK  status: ('A' for Active; 'I' for Inactive)
REMARK       I    between atoms: C10_17  and  N1_6 
REMARK    1  A    between atoms: C3_10  and  N1_6 
REMARK       I    between atoms: C11_18  and  N2_7 
REMARK    2  A    between atoms: C6_13  and  N2_7 
REMARK    3  A    between atoms: C10_17  and  C2_9 
REMARK    4  A    between atoms: C11_18  and  C4_11 
REMARK    5  A    between atoms: C6_13  and  C9_16 
ROOT
HETATM    1  C3  UNK     1      18.305  -2.349  36.793  1.00  0.00     0.035 A 
HETATM    2  C4  UNK     1      17.879  -0.313  35.601  1.00  0.00     0.034 A 
HETATM    3  C8  UNK     1      18.127  -1.685  35.591  1.00  0.00     0.046 A 
HETATM    4  C13 UNK     1      18.243  -1.680  38.005  1.00  0.00     0.029 A 
HETATM    5  C14 UNK     1      17.814   0.376  36.812  1.00  0.00     0.017 A 
HETATM    6  C17 UNK     1      17.995  -0.308  38.013  1.00  0.00     0.003 A 
ENDROOT
BRANCH   1   7
HETATM    7  N1  UNK     1      18.555  -3.742  36.784  1.00  0.00    -0.323 N 
HETATM    8  C10 UNK     1      19.542  -4.420  36.082  1.00  0.00     0.262 C 
HETATM    9  O2  UNK     1      20.396  -3.953  35.329  1.00  0.00    -0.267 OA
HETATM   10  H5  UNK     1      17.909  -4.283  37.352  1.00  0.00     0.169 HD
BRANCH   8  11
HETATM   11  C2  UNK     1      19.497  -5.868  36.321  1.00  0.00     0.108 A 
HETATM   12  C15 UNK     1      18.263  -6.552  36.770  1.00  0.00     0.304 A 
HETATM   13  O1  UNK     1      18.346  -7.928  36.963  1.00  0.00    -0.274 OA
HETATM   14  O4  UNK     1      17.218  -5.941  36.962  1.00  0.00    -0.259 OA
HETATM   15  C5  UNK     1      19.543  -8.639  36.743  1.00  0.00     0.089 A 
HETATM   16  C1  UNK     1      20.691  -7.976  36.323  1.00  0.00     0.001 A 
HETATM   17  C16 UNK     1      19.528 -10.014  36.962  1.00  0.00     0.040 A 
HETATM   18  C7  UNK     1      20.637  -6.538  36.112  1.00  0.00     0.037 A 
HETATM   19  C12 UNK     1      21.859  -8.716  36.116  1.00  0.00     0.038 A 
HETATM   20  C18 UNK     1      21.859 -10.097  36.332  1.00  0.00     0.035 A 
HETATM   21  C19 UNK     1      20.696 -10.744  36.754  1.00  0.00     0.026 A 
HETATM   22 Cl1  UNK     1      23.300 -11.004  36.077  1.00  0.00    -0.084 Cl
ENDBRANCH   8  11
ENDBRANCH   1   7
BRANCH   2  23
HETATM   23  C11 UNK     1      17.690   0.401  34.347  1.00  0.00     0.252 C 
HETATM   24  O3  UNK     1      16.616   0.946  34.058  1.00  0.00    -0.268 OA
HETATM   25  N2  UNK     1      18.800   0.461  33.502  1.00  0.00    -0.353 N 
HETATM   26  H6  UNK     1      19.694   0.081  33.794  1.00  0.00     0.163 HD
BRANCH  25  27
HETATM   27  C6  UNK     1      18.780   1.158  32.236  1.00  0.00     0.161 C 
BRANCH  27  28
HETATM   28  C9  UNK     1      19.320   0.312  31.120  1.00  0.00    -0.041 A 
HETATM   29  C20 UNK     1      19.329   0.811  29.822  1.00  0.00     0.009 A 
HETATM   30  C22 UNK     1      19.831   0.025  28.784  1.00  0.00     0.001 A 
HETATM   31  C24 UNK     1      20.320  -1.254  29.051  1.00  0.00     0.000 A 
HETATM   32  C23 UNK     1      20.306  -1.747  30.355  1.00  0.00     0.001 A 
HETATM   33  C21 UNK     1      19.804  -0.961  31.394  1.00  0.00     0.009 A 
ENDBRANCH  27  28
ENDBRANCH  25  27
ENDBRANCH   2  23
TORSDOF 5
ENDMDL
MODEL 2
REMARK VINA RESULT:     -11.2      1.601      1.884
REMARK  5 active torsions:
REMARK  status: ('A' for Active; 'I' for Inactive)
REMARK       I    between atoms: C10_17  and  N1_6 
REMARK    1  A    between atoms: C3_10  and  N1_6 
REMARK       I    between atoms: C11_18  and  N2_7 
REMARK    2  A    between atoms: C6_13  and  N2_7 
REMARK    3  A    between atoms: C10_17  and  C2_9 
REMARK    4  A    between atoms: C11_18  and  C4_11 
REMARK    5  A    between atoms: C6_13  and  C9_16 
ROOT
HETATM    1  C3  UNK     1      18.462  -1.981  36.750  1.00  0.00     0.035 A 
HETATM    2  C4  UNK     1      18.273   0.162  35.692  1.00  0.00     0.034 A 
HETATM    3  C8  UNK     1      18.602  -1.191  35.621  1.00  0.00     0.046 A 
HETATM    4  C13 UNK     1      18.004  -1.457  37.948  1.00  0.00     0.029 A 
HETATM    5  C14 UNK     1      17.811   0.707  36.890  1.00  0.00     0.017 A 
HETATM    6  C17 UNK     1      17.676  -0.103  38.017  1.00  0.00     0.003 A 
ENDROOT
BRANCH   1   7
HETATM    7  N1  UNK     1      18.795  -3.355  36.679  1.00  0.00    -0.323 N 
HETATM    8  C10 UNK     1      19.954  -3.970  37.133  1.00  0.00     0.262 C 
HETATM    9  O2  UNK     1      20.922  -3.452  37.686  1.00  0.00    -0.267 OA
HETATM   10  H5  UNK     1      18.092  -3.928  36.220  1.00  0.00     0.169 HD
BRANCH   8  11
HETATM   11  C2  UNK     1      19.945  -5.418  36.887  1.00  0.00     0.108 A 
HETATM   12  C15 UNK     1      20.133  -5.986  35.533  1.00  0.00     0.304 A 
HETATM   13  O1  UNK     1      20.105  -7.374  35.428  1.00  0.00    -0.274 OA
HETATM   14  O4  UNK     1      20.308  -5.274  34.551  1.00  0.00    -0.259 OA
HETATM   15  C5  UNK     1      19.907  -8.201  36.552  1.00  0.00     0.089 A 
HETATM   16  C1  UNK     1      19.730  -7.645  37.815  1.00  0.00     0.001 A 
HETATM   17  C16 UNK     1      19.895  -9.578  36.347  1.00  0.00     0.040 A 
HETATM   18  C7  UNK     1      19.755  -6.198  37.958  1.00  0.00     0.037 A 
HETATM   19  C12 UNK     1      19.536  -8.499  38.905  1.00  0.00     0.038 A 
HETATM   20  C18 UNK     1      19.520  -9.883  38.716  1.00  0.00     0.035 A 
HETATM   21  C19 UNK     1      19.699 -10.421  37.439  1.00  0.00     0.026 A 
HETATM   22 Cl1  UNK     1      19.280 -10.931  40.061  1.00  0.00    -0.084 Cl
ENDBRANCH   8  11
ENDBRANCH   1   7
BRANCH   2  23
HETATM   23  C11 UNK     1      18.414   1.007  34.516  1.00  0.00     0.252 C 
HETATM   24  O3  UNK     1      18.400   2.243  34.591  1.00  0.00    -0.268 OA
HETATM   25  N2  UNK     1      18.595   0.342  33.301  1.00  0.00    -0.353 N 
HETATM   26  H6  UNK     1      18.688  -0.668  33.272  1.00  0.00     0.163 HD
BRANCH  25  27
HETATM   27  C6  UNK     1      18.779   1.041  32.049  1.00  0.00     0.161 C 
BRANCH  27  28
HETATM   28  C9  UNK     1      19.388   0.159  30.998  1.00  0.00    -0.041 A 
HETATM   29  C20 UNK     1      19.492   0.619  29.690  1.00  0.00     0.009 A 
HETATM   30  C22 UNK     1      20.058  -0.200  28.713  1.00  0.00     0.001 A 
HETATM   31  C24 UNK     1      20.516  -1.475  29.050  1.00  0.00     0.000 A 
HETATM   32  C23 UNK     1      20.406  -1.929  30.364  1.00  0.00     0.001 A 
HETATM   33  C21 UNK     1      19.841  -1.110  31.341  1.00  0.00     0.009 A 
ENDBRANCH  27  28
ENDBRANCH  25  27
ENDBRANCH   2  23
TORSDOF 5
ENDMDL
MODEL 3
REMARK VINA RESULT:     -10.7      2.660      3.466
REMARK  5 active torsions:
REMARK  status: ('A' for Active; 'I' for Inactive)
REMARK       I    between atoms: C10_17  and  N1_6 
REMARK    1  A    between atoms: C3_10  and  N1_6 
REMARK       I    between atoms: C11_18  and  N2_7 
REMARK    2  A    between atoms: C6_13  and  N2_7 
REMARK    3  A    between atoms: C10_17  and  C2_9 
REMARK    4  A    between atoms: C11_18  and  C4_11 
REMARK    5  A    between atoms: C6_13  and  C9_16 
ROOT
HETATM    1  C3  UNK     1      18.098  -1.520  36.501  1.00  0.00     0.035 A 
HETATM    2  C4  UNK     1      18.072   0.219  34.851  1.00  0.00     0.034 A 
HETATM    3  C8  UNK     1      18.367  -1.095  35.211  1.00  0.00     0.046 A 
HETATM    4  C13 UNK     1      17.543  -0.669  37.442  1.00  0.00     0.029 A 
HETATM    5  C14 UNK     1      17.513   1.090  35.787  1.00  0.00     0.017 A 
HETATM    6  C17 UNK     1      17.248   0.645  37.081  1.00  0.00     0.003 A 
ENDROOT
BRANCH   1   7
HETATM    7  N1  UNK     1      18.396  -2.855  36.866  1.00  0.00    -0.323 N 
HETATM    8  C10 UNK     1      19.511  -3.602  36.508  1.00  0.00     0.262 C 
HETATM    9  O2  UNK     1      20.460  -3.260  35.805  1.00  0.00    -0.267 OA
HETATM   10  H5  UNK     1      17.684  -3.297  37.442  1.00  0.00     0.169 HD
BRANCH   8  11
HETATM   11  C2  UNK     1      19.479  -4.954  37.079  1.00  0.00     0.108 A 
HETATM   12  C15 UNK     1      18.330  -5.866  36.876  1.00  0.00     0.304 A 
HETATM   13  O1  UNK     1      18.417  -7.123  37.469  1.00  0.00    -0.274 OA
HETATM   14  O4  UNK     1      17.349  -5.535  36.218  1.00  0.00    -0.259 OA
HETATM   15  C5  UNK     1      19.540  -7.512  38.224  1.00  0.00     0.089 A 
HETATM   16  C1  UNK     1      20.608  -6.639  38.404  1.00  0.00     0.001 A 
HETATM   17  C16 UNK     1      19.536  -8.790  38.778  1.00  0.00     0.040 A 
HETATM   18  C7  UNK     1      20.547  -5.318  37.798  1.00  0.00     0.037 A 
HETATM   19  C12 UNK     1      21.704  -7.062  39.161  1.00  0.00     0.038 A 
HETATM   20  C18 UNK     1      21.715  -8.341  39.723  1.00  0.00     0.035 A 
HETATM   21  C19 UNK     1      20.632  -9.203  39.532  1.00  0.00     0.026 A 
HETATM   22 Cl1  UNK     1      23.066  -8.858  40.655  1.00  0.00    -0.084 Cl
ENDBRANCH   8  11
ENDBRANCH   1   7
BRANCH   2  23
HETATM   23  C11 UNK     1      18.348   0.683  33.501  1.00  0.00     0.252 C 
HETATM   24  O3  UNK     1      18.881  -0.046  32.653  1.00  0.00    -0.268 OA
HETATM   25  N2  UNK     1      17.950   1.989  33.207  1.00  0.00    -0.353 N 
HETATM   26  H6  UNK     1      17.439   2.540  33.889  1.00  0.00     0.163 HD
BRANCH  25  27
HETATM   27  C6  UNK     1      18.128   2.584  31.902  1.00  0.00     0.161 C 
BRANCH  27  28
HETATM   28  C9  UNK     1      18.404   4.057  31.989  1.00  0.00    -0.041 A 
HETATM   29  C20 UNK     1      18.891   4.732  30.875  1.00  0.00     0.009 A 
HETATM   30  C22 UNK     1      19.147   6.101  30.955  1.00  0.00     0.001 A 
HETATM   31  C24 UNK     1      18.918   6.785  32.149  1.00  0.00     0.000 A 
HETATM   32  C23 UNK     1      18.431   6.100  33.262  1.00  0.00     0.001 A 
HETATM   33  C21 UNK     1      18.173   4.732  33.182  1.00  0.00     0.009 A 
ENDBRANCH  27  28
ENDBRANCH  25  27
ENDBRANCH   2  23
TORSDOF 5
ENDMDL
MODEL 4
REMARK VINA RESULT:     -10.6      6.540     12.505
REMARK  5 active torsions:
REMARK  status: ('A' for Active; 'I' for Inactive)
REMARK       I    between atoms: C10_17  and  N1_6 
REMARK    1  A    between atoms: C3_10  and  N1_6 
REMARK       I    between atoms: C11_18  and  N2_7 
REMARK    2  A    between atoms: C6_13  and  N2_7 
REMARK    3  A    between atoms: C10_17  and  C2_9 
REMARK    4  A    between atoms: C11_18  and  C4_11 
REMARK    5  A    between atoms: C6_13  and  C9_16 
ROOT
HETATM    1  C3  UNK     1      18.562   2.888  30.467  1.00  0.00     0.035 A 
HETATM    2  C4  UNK     1      19.214   0.581  30.489  1.00  0.00     0.034 A 
HETATM    3  C8  UNK     1      19.107   1.809  31.141  1.00  0.00     0.046 A 
HETATM    4  C13 UNK     1      18.122   2.777  29.158  1.00  0.00     0.029 A 
HETATM    5  C14 UNK     1      18.776   0.451  29.171  1.00  0.00     0.017 A 
HETATM    6  C17 UNK     1      18.230   1.548  28.506  1.00  0.00     0.003 A 
ENDROOT
BRANCH   1   7
HETATM    7  N1  UNK     1      18.451   4.135  31.129  1.00  0.00    -0.323 N 
HETATM    8  C10 UNK     1      19.123   5.313  30.833  1.00  0.00     0.262 C 
HETATM    9  O2  UNK     1      19.945   5.515  29.941  1.00  0.00    -0.267 OA
HETATM   10  H5  UNK     1      17.814   4.129  31.920  1.00  0.00     0.169 HD
BRANCH   8  11
HETATM   11  C2  UNK     1      18.750   6.406  31.739  1.00  0.00     0.108 A 
HETATM   12  C15 UNK     1      19.672   6.913  32.780  1.00  0.00     0.304 A 
HETATM   13  O1  UNK     1      19.204   7.953  33.578  1.00  0.00    -0.274 OA
HETATM   14  O4  UNK     1      20.795   6.445  32.934  1.00  0.00    -0.259 OA
HETATM   15  C5  UNK     1      17.916   8.499  33.408  1.00  0.00     0.089 A 
HETATM   16  C1  UNK     1      17.064   8.006  32.425  1.00  0.00     0.001 A 
HETATM   17  C16 UNK     1      17.536   9.538  34.255  1.00  0.00     0.040 A 
HETATM   18  C7  UNK     1      17.525   6.920  31.574  1.00  0.00     0.037 A 
HETATM   19  C12 UNK     1      15.795   8.574  32.287  1.00  0.00     0.038 A 
HETATM   20  C18 UNK     1      15.399   9.616  33.129  1.00  0.00     0.035 A 
HETATM   21  C19 UNK     1      16.269  10.097  34.111  1.00  0.00     0.026 A 
HETATM   22 Cl1  UNK     1      13.834  10.312  32.957  1.00  0.00    -0.084 Cl
ENDBRANCH   8  11
ENDBRANCH   1   7
BRANCH   2  23
HETATM   23  C11 UNK     1      19.784  -0.563  31.182  1.00  0.00     0.252 C 
HETATM   24  O3  UNK     1      20.633  -1.294  30.654  1.00  0.00    -0.268 OA
HETATM   25  N2  UNK     1      19.339  -0.773  32.489  1.00  0.00    -0.353 N 
HETATM   26  H6  UNK     1      18.707  -0.115  32.933  1.00  0.00     0.163 HD
BRANCH  25  27
HETATM   27  C6  UNK     1      19.833  -1.849  33.319  1.00  0.00     0.161 C 
BRANCH  27  28
HETATM   28  C9  UNK     1      19.307  -1.763  34.722  1.00  0.00    -0.041 A 
HETATM   29  C20 UNK     1      18.251  -0.905  35.010  1.00  0.00     0.009 A 
HETATM   30  C22 UNK     1      17.762  -0.826  36.313  1.00  0.00     0.001 A 
HETATM   31  C24 UNK     1      18.332  -1.604  37.321  1.00  0.00     0.000 A 
HETATM   32  C23 UNK     1      19.391  -2.461  37.025  1.00  0.00     0.001 A 
HETATM   33  C21 UNK     1      19.880  -2.542  35.720  1.00  0.00     0.009 A 
ENDBRANCH  27  28
ENDBRANCH  25  27
ENDBRANCH   2  23
TORSDOF 5
ENDMDL
MODEL 5
REMARK VINA RESULT:     -10.6      8.525     14.282
REMARK  5 active torsions:
REMARK  status: ('A' for Active; 'I' for Inactive)
REMARK       I    between atoms: C10_17  and  N1_6 
REMARK    1  A    between atoms: C3_10  and  N1_6 
REMARK       I    between atoms: C11_18  and  N2_7 
REMARK    2  A    between atoms: C6_13  and  N2_7 
REMARK    3  A    between atoms: C10_17  and  C2_9 
REMARK    4  A    between atoms: C11_18  and  C4_11 
REMARK    5  A    between atoms: C6_13  and  C9_16 
ROOT
HETATM    1  C3  UNK     1      17.853   6.164  31.822  1.00  0.00     0.035 A 
HETATM    2  C4  UNK     1      18.415   3.872  31.402  1.00  0.00     0.034 A 
HETATM    3  C8  UNK     1      17.722   4.825  32.147  1.00  0.00     0.046 A 
HETATM    4  C13 UNK     1      18.658   6.579  30.775  1.00  0.00     0.029 A 
HETATM    5  C14 UNK     1      19.231   4.272  30.344  1.00  0.00     0.017 A 
HETATM    6  C17 UNK     1      19.352   5.625  30.030  1.00  0.00     0.003 A 
ENDROOT
BRANCH   1   7
HETATM    7  N1  UNK     1      17.148   7.132  32.578  1.00  0.00    -0.323 N 
HETATM    8  C10 UNK     1      16.363   8.172  32.099  1.00  0.00     0.262 C 
HETATM    9  O2  UNK     1      16.120   8.465  30.929  1.00  0.00    -0.267 OA
HETATM   10  H5  UNK     1      17.265   7.039  33.583  1.00  0.00     0.169 HD
BRANCH   8  11
HETATM   11  C2  UNK     1      15.784   8.975  33.184  1.00  0.00     0.108 A 
HETATM   12  C15 UNK     1      16.310   8.921  34.567  1.00  0.00     0.304 A 
HETATM   13  O1  UNK     1      15.678   9.728  35.508  1.00  0.00    -0.274 OA
HETATM   14  O4  UNK     1      17.257   8.203  34.872  1.00  0.00    -0.259 OA
HETATM   15  C5  UNK     1      14.591  10.557  35.166  1.00  0.00     0.089 A 
HETATM   16  C1  UNK     1      14.112  10.591  33.861  1.00  0.00     0.001 A 
HETATM   17  C16 UNK     1      14.024  11.330  36.177  1.00  0.00     0.040 A 
HETATM   18  C7  UNK     1      14.752   9.759  32.854  1.00  0.00     0.037 A 
HETATM   19  C12 UNK     1      13.032  11.426  33.561  1.00  0.00     0.038 A 
HETATM   20  C18 UNK     1      12.452  12.207  34.564  1.00  0.00     0.035 A 
HETATM   21  C19 UNK     1      12.947  12.159  35.869  1.00  0.00     0.026 A 
HETATM   22 Cl1  UNK     1      11.121  13.234  34.191  1.00  0.00    -0.084 Cl
ENDBRANCH   8  11
ENDBRANCH   1   7
BRANCH   2  23
HETATM   23  C11 UNK     1      18.290   2.460  31.729  1.00  0.00     0.252 C 
HETATM   24  O3  UNK     1      18.402   1.575  30.870  1.00  0.00    -0.268 OA
HETATM   25  N2  UNK     1      18.063   2.160  33.074  1.00  0.00    -0.353 N 
HETATM   26  H6  UNK     1      18.059   2.893  33.775  1.00  0.00     0.163 HD
BRANCH  25  27
HETATM   27  C6  UNK     1      17.945   0.804  33.562  1.00  0.00     0.161 C 
BRANCH  27  28
HETATM   28  C9  UNK     1      17.826   0.754  35.057  1.00  0.00    -0.041 A 
HETATM   29  C20 UNK     1      18.126   1.883  35.810  1.00  0.00     0.009 A 
HETATM   30  C22 UNK     1      18.014   1.837  37.199  1.00  0.00     0.001 A 
HETATM   31  C24 UNK     1      17.604   0.660  37.828  1.00  0.00     0.000 A 
HETATM   32  C23 UNK     1      17.307  -0.469  37.065  1.00  0.00     0.001 A 
HETATM   33  C21 UNK     1      17.417  -0.422  35.675  1.00  0.00     0.009 A 
ENDBRANCH  27  28
ENDBRANCH  25  27
ENDBRANCH   2  23
TORSDOF 5
ENDMDL
MODEL 6
REMARK VINA RESULT:     -10.6      1.722      2.051
REMARK  5 active torsions:
REMARK  status: ('A' for Active; 'I' for Inactive)
REMARK       I    between atoms: C10_17  and  N1_6 
REMARK    1  A    between atoms: C3_10  and  N1_6 
REMARK       I    between atoms: C11_18  and  N2_7 
REMARK    2  A    between atoms: C6_13  and  N2_7 
REMARK    3  A    between atoms: C10_17  and  C2_9 
REMARK    4  A    between atoms: C11_18  and  C4_11 
REMARK    5  A    between atoms: C6_13  and  C9_16 
ROOT
HETATM    1  C3  UNK     1      18.399  -1.080  36.996  1.00  0.00     0.035 A 
HETATM    2  C4  UNK     1      18.157   0.825  35.560  1.00  0.00     0.034 A 
HETATM    3  C8  UNK     1      18.555  -0.499  35.749  1.00  0.00     0.046 A 
HETATM    4  C13 UNK     1      17.858  -0.377  38.060  1.00  0.00     0.029 A 
HETATM    5  C14 UNK     1      17.611   1.547  36.620  1.00  0.00     0.017 A 
HETATM    6  C17 UNK     1      17.461   0.947  37.869  1.00  0.00     0.003 A 
ENDROOT
BRANCH   1   7
HETATM    7  N1  UNK     1      18.802  -2.424  37.188  1.00  0.00    -0.323 N 
HETATM    8  C10 UNK     1      19.920  -3.056  36.662  1.00  0.00     0.262 C 
HETATM    9  O2  UNK     1      20.784  -2.582  35.926  1.00  0.00    -0.267 OA
HETATM   10  H5  UNK     1      18.168  -2.967  37.768  1.00  0.00     0.169 HD
BRANCH   8  11
HETATM   11  C2  UNK     1      20.012  -4.459  37.083  1.00  0.00     0.108 A 
HETATM   12  C15 UNK     1      18.876  -5.398  36.943  1.00  0.00     0.304 A 
HETATM   13  O1  UNK     1      19.086  -6.703  37.379  1.00  0.00    -0.274 OA
HETATM   14  O4  UNK     1      17.802  -5.048  36.467  1.00  0.00    -0.259 OA
HETATM   15  C5  UNK     1      20.317  -7.115  37.926  1.00  0.00     0.089 A 
HETATM   16  C1  UNK     1      21.372  -6.216  38.049  1.00  0.00     0.001 A 
HETATM   17  C16 UNK     1      20.433  -8.442  38.333  1.00  0.00     0.040 A 
HETATM   18  C7  UNK     1      21.184  -4.845  37.603  1.00  0.00     0.037 A 
HETATM   19  C12 UNK     1      22.577  -6.663  38.598  1.00  0.00     0.038 A 
HETATM   20  C18 UNK     1      22.708  -7.991  39.011  1.00  0.00     0.035 A 
HETATM   21  C19 UNK     1      21.638  -8.879  38.879  1.00  0.00     0.026 A 
HETATM   22 Cl1  UNK     1      24.195  -8.537  39.686  1.00  0.00    -0.084 Cl
ENDBRANCH   8  11
ENDBRANCH   1   7
BRANCH   2  23
HETATM   23  C11 UNK     1      18.313   1.451  34.257  1.00  0.00     0.252 C 
HETATM   24  O3  UNK     1      18.196   2.674  34.099  1.00  0.00    -0.268 OA
HETATM   25  N2  UNK     1      18.631   0.597  33.199  1.00  0.00    -0.353 N 
HETATM   26  H6  UNK     1      18.805  -0.389  33.364  1.00  0.00     0.163 HD
BRANCH  25  27
HETATM   27  C6  UNK     1      18.847   1.071  31.850  1.00  0.00     0.161 C 
BRANCH  27  28
HETATM   28  C9  UNK     1      19.490   0.027  30.984  1.00  0.00    -0.041 A 
HETATM   29  C20 UNK     1      19.721  -1.245  31.496  1.00  0.00     0.009 A 
HETATM   30  C22 UNK     1      20.317  -2.215  30.691  1.00  0.00     0.001 A 
HETATM   31  C24 UNK     1      20.681  -1.907  29.380  1.00  0.00     0.000 A 
HETATM   32  C23 UNK     1      20.447  -0.629  28.875  1.00  0.00     0.001 A 
HETATM   33  C21 UNK     1      19.849   0.342  29.679  1.00  0.00     0.009 A 
ENDBRANCH  27  28
ENDBRANCH  25  27
ENDBRANCH   2  23
TORSDOF 5
ENDMDL
MODEL 7
REMARK VINA RESULT:     -10.6      8.784     14.189
REMARK  5 active torsions:
REMARK  status: ('A' for Active; 'I' for Inactive)
REMARK       I    between atoms: C10_17  and  N1_6 
REMARK    1  A    between atoms: C3_10  and  N1_6 
REMARK       I    between atoms: C11_18  and  N2_7 
REMARK    2  A    between atoms: C6_13  and  N2_7 
REMARK    3  A    between atoms: C10_17  and  C2_9 
REMARK    4  A    between atoms: C11_18  and  C4_11 
REMARK    5  A    between atoms: C6_13  and  C9_16 
ROOT
HETATM    1  C3  UNK     1      18.286   6.669  32.437  1.00  0.00     0.035 A 
HETATM    2  C4  UNK     1      18.698   4.598  31.301  1.00  0.00     0.034 A 
HETATM    3  C8  UNK     1      17.802   5.501  31.872  1.00  0.00     0.046 A 
HETATM    4  C13 UNK     1      19.640   6.961  32.449  1.00  0.00     0.029 A 
HETATM    5  C14 UNK     1      20.065   4.875  31.305  1.00  0.00     0.017 A 
HETATM    6  C17 UNK     1      20.535   6.056  31.878  1.00  0.00     0.003 A 
ENDROOT
BRANCH   1   7
HETATM    7  N1  UNK     1      17.376   7.587  33.015  1.00  0.00    -0.323 N 
HETATM    8  C10 UNK     1      16.439   8.376  32.362  1.00  0.00     0.262 C 
HETATM    9  O2  UNK     1      16.209   8.440  31.155  1.00  0.00    -0.267 OA
HETATM   10  H5  UNK     1      17.455   7.669  34.025  1.00  0.00     0.169 HD
BRANCH   8  11
HETATM   11  C2  UNK     1      15.667   9.207  33.294  1.00  0.00     0.108 A 
HETATM   12  C15 UNK     1      15.967   9.247  34.743  1.00  0.00     0.304 A 
HETATM   13  O1  UNK     1      15.164  10.072  35.525  1.00  0.00    -0.274 OA
HETATM   14  O4  UNK     1      16.877   8.588  35.235  1.00  0.00    -0.259 OA
HETATM   15  C5  UNK     1      14.117  10.834  34.970  1.00  0.00     0.089 A 
HETATM   16  C1  UNK     1      13.851  10.780  33.605  1.00  0.00     0.001 A 
HETATM   17  C16 UNK     1      13.369  11.631  35.832  1.00  0.00     0.040 A 
HETATM   18  C7  UNK     1      14.673   9.927  32.761  1.00  0.00     0.037 A 
HETATM   19  C12 UNK     1      12.804  11.550  33.092  1.00  0.00     0.038 A 
HETATM   20  C18 UNK     1      12.044  12.355  33.945  1.00  0.00     0.035 A 
HETATM   21  C19 UNK     1      12.326  12.395  35.312  1.00  0.00     0.026 A 
HETATM   22 Cl1  UNK     1      10.754  13.301  33.308  1.00  0.00    -0.084 Cl
ENDBRANCH   8  11
ENDBRANCH   1   7
BRANCH   2  23
HETATM   23  C11 UNK     1      18.208   3.366  30.703  1.00  0.00     0.252 C 
HETATM   24  O3  UNK     1      17.109   2.883  31.006  1.00  0.00    -0.268 OA
HETATM   25  N2  UNK     1      19.037   2.777  29.747  1.00  0.00    -0.353 N 
HETATM   26  H6  UNK     1      19.894   3.233  29.452  1.00  0.00     0.163 HD
BRANCH  25  27
HETATM   27  C6  UNK     1      18.677   1.567  29.041  1.00  0.00     0.161 C 
BRANCH  27  28
HETATM   28  C9  UNK     1      19.329   0.354  29.638  1.00  0.00    -0.041 A 
HETATM   29  C20 UNK     1      19.292   0.160  31.015  1.00  0.00     0.009 A 
HETATM   30  C22 UNK     1      19.897  -0.968  31.569  1.00  0.00     0.001 A 
HETATM   31  C24 UNK     1      20.537  -1.894  30.744  1.00  0.00     0.000 A 
HETATM   32  C23 UNK     1      20.570  -1.691  29.365  1.00  0.00     0.001 A 
HETATM   33  C21 UNK     1      19.964  -0.564  28.810  1.00  0.00     0.009 A 
ENDBRANCH  27  28
ENDBRANCH  25  27
ENDBRANCH   2  23
TORSDOF 5
ENDMDL
MODEL 8
REMARK VINA RESULT:     -10.5      3.305      4.600
REMARK  5 active torsions:
REMARK  status: ('A' for Active; 'I' for Inactive)
REMARK       I    between atoms: C10_17  and  N1_6 
REMARK    1  A    between atoms: C3_10  and  N1_6 
REMARK       I    between atoms: C11_18  and  N2_7 
REMARK    2  A    between atoms: C6_13  and  N2_7 
REMARK    3  A    between atoms: C10_17  and  C2_9 
REMARK    4  A    between atoms: C11_18  and  C4_11 
REMARK    5  A    between atoms: C6_13  and  C9_16 
ROOT
HETATM    1  C3  UNK     1      18.351  -0.826  36.187  1.00  0.00     0.035 A 
HETATM    2  C4  UNK     1      17.978   1.299  35.142  1.00  0.00     0.034 A 
HETATM    3  C8  UNK     1      18.390  -0.030  35.055  1.00  0.00     0.046 A 
HETATM    4  C13 UNK     1      17.914  -0.331  37.405  1.00  0.00     0.029 A 
HETATM    5  C14 UNK     1      17.534   1.814  36.360  1.00  0.00     0.017 A 
HETATM    6  C17 UNK     1      17.502   0.999  37.491  1.00  0.00     0.003 A 
ENDROOT
BRANCH   1   7
HETATM    7  N1  UNK     1      18.769  -2.176  36.099  1.00  0.00    -0.323 N 
HETATM    8  C10 UNK     1      19.514  -2.894  37.024  1.00  0.00     0.262 C 
HETATM    9  O2  UNK     1      19.963  -2.507  38.102  1.00  0.00    -0.267 OA
HETATM   10  H5  UNK     1      18.490  -2.641  35.239  1.00  0.00     0.169 HD
BRANCH   8  11
HETATM   11  C2  UNK     1      19.754  -4.276  36.590  1.00  0.00     0.108 A 
HETATM   12  C15 UNK     1      20.210  -4.601  35.220  1.00  0.00     0.304 A 
HETATM   13  O1  UNK     1      20.402  -5.949  34.928  1.00  0.00    -0.274 OA
HETATM   14  O4  UNK     1      20.413  -3.730  34.381  1.00  0.00    -0.259 OA
HETATM   15  C5  UNK     1      20.174  -6.956  35.886  1.00  0.00     0.089 A 
HETATM   16  C1  UNK     1      19.743  -6.629  37.168  1.00  0.00     0.001 A 
HETATM   17  C16 UNK     1      20.394  -8.277  35.501  1.00  0.00     0.040 A 
HETATM   18  C7  UNK     1      19.534  -5.229  37.504  1.00  0.00     0.037 A 
HETATM   19  C12 UNK     1      19.528  -7.657  38.089  1.00  0.00     0.038 A 
HETATM   20  C18 UNK     1      19.744  -8.987  37.718  1.00  0.00     0.035 A 
HETATM   21  C19 UNK     1      20.176  -9.295  36.426  1.00  0.00     0.026 A 
HETATM   22 Cl1  UNK     1      19.477 -10.250  38.856  1.00  0.00    -0.084 Cl
ENDBRANCH   8  11
ENDBRANCH   1   7
BRANCH   2  23
HETATM   23  C11 UNK     1      18.012   2.150  33.963  1.00  0.00     0.252 C 
HETATM   24  O3  UNK     1      17.819   1.701  32.825  1.00  0.00    -0.268 OA
HETATM   25  N2  UNK     1      18.246   3.507  34.192  1.00  0.00    -0.353 N 
HETATM   26  H6  UNK     1      18.317   3.868  35.137  1.00  0.00     0.163 HD
BRANCH  25  27
HETATM   27  C6  UNK     1      18.279   4.484  33.127  1.00  0.00     0.161 C 
BRANCH  27  28
HETATM   28  C9  UNK     1      18.494   5.876  33.647  1.00  0.00    -0.041 A 
HETATM   29  C20 UNK     1      17.455   6.536  34.295  1.00  0.00     0.009 A 
HETATM   30  C22 UNK     1      17.655   7.828  34.779  1.00  0.00     0.001 A 
HETATM   31  C24 UNK     1      18.891   8.454  34.611  1.00  0.00     0.000 A 
HETATM   32  C23 UNK     1      19.926   7.786  33.959  1.00  0.00     0.001 A 
HETATM   33  C21 UNK     1      19.727   6.492  33.476  1.00  0.00     0.009 A 
ENDBRANCH  27  28
ENDBRANCH  25  27
ENDBRANCH   2  23
TORSDOF 5
ENDMDL
MODEL 9
REMARK VINA RESULT:     -10.4      4.726     10.796
REMARK  5 active torsions:
REMARK  status: ('A' for Active; 'I' for Inactive)
REMARK       I    between atoms: C10_17  and  N1_6 
REMARK    1  A    between atoms: C3_10  and  N1_6 
REMARK       I    between atoms: C11_18  and  N2_7 
REMARK    2  A    between atoms: C6_13  and  N2_7 
REMARK    3  A    between atoms: C10_17  and  C2_9 
REMARK    4  A    between atoms: C11_18  and  C4_11 
REMARK    5  A    between atoms: C6_13  and  C9_16 
ROOT
HETATM    1  C3  UNK     1      18.281   0.298  35.895  1.00  0.00     0.035 A 
HETATM    2  C4  UNK     1      19.126  -1.808  36.668  1.00  0.00     0.034 A 
HETATM    3  C8  UNK     1      19.125  -0.786  35.720  1.00  0.00     0.046 A 
HETATM    4  C13 UNK     1      17.437   0.389  36.989  1.00  0.00     0.029 A 
HETATM    5  C14 UNK     1      18.283  -1.733  37.776  1.00  0.00     0.017 A 
HETATM    6  C17 UNK     1      17.439  -0.635  37.937  1.00  0.00     0.003 A 
ENDROOT
BRANCH   1   7
HETATM    7  N1  UNK     1      18.280   1.337  34.933  1.00  0.00    -0.323 N 
HETATM    8  C10 UNK     1      18.289   1.210  33.550  1.00  0.00     0.262 C 
HETATM    9  O2  UNK     1      18.299   0.178  32.882  1.00  0.00    -0.267 OA
HETATM   10  H5  UNK     1      18.293   2.272  35.332  1.00  0.00     0.169 HD
BRANCH   8  11
HETATM   11  C2  UNK     1      18.282   2.514  32.875  1.00  0.00     0.108 A 
HETATM   12  C15 UNK     1      18.377   2.636  31.402  1.00  0.00     0.304 A 
HETATM   13  O1  UNK     1      18.361   3.926  30.880  1.00  0.00    -0.274 OA
HETATM   14  O4  UNK     1      18.463   1.652  30.675  1.00  0.00    -0.259 OA
HETATM   15  C5  UNK     1      18.260   5.062  31.707  1.00  0.00     0.089 A 
HETATM   16  C1  UNK     1      18.174   4.925  33.088  1.00  0.00     0.001 A 
HETATM   17  C16 UNK     1      18.252   6.312  31.092  1.00  0.00     0.040 A 
HETATM   18  C7  UNK     1      18.188   3.590  33.665  1.00  0.00     0.037 A 
HETATM   19  C12 UNK     1      18.076   6.076  33.875  1.00  0.00     0.038 A 
HETATM   20  C18 UNK     1      18.066   7.336  33.273  1.00  0.00     0.035 A 
HETATM   21  C19 UNK     1      18.154   7.454  31.884  1.00  0.00     0.026 A 
HETATM   22 Cl1  UNK     1      17.945   8.752  34.245  1.00  0.00    -0.084 Cl
ENDBRANCH   8  11
ENDBRANCH   1   7
BRANCH   2  23
HETATM   23  C11 UNK     1      20.006  -2.954  36.501  1.00  0.00     0.252 C 
HETATM   24  O3  UNK     1      20.506  -3.243  35.405  1.00  0.00    -0.268 OA
HETATM   25  N2  UNK     1      20.279  -3.691  37.655  1.00  0.00    -0.353 N 
HETATM   26  H6  UNK     1      19.929  -3.389  38.558  1.00  0.00     0.163 HD
BRANCH  25  27
HETATM   27  C6  UNK     1      21.159  -4.839  37.658  1.00  0.00     0.161 C 
BRANCH  27  28
HETATM   28  C9  UNK     1      20.420  -6.112  37.951  1.00  0.00    -0.041 A 
HETATM   29  C20 UNK     1      19.553  -6.639  37.000  1.00  0.00     0.009 A 
HETATM   30  C22 UNK     1      18.867  -7.822  37.272  1.00  0.00     0.001 A 
HETATM   31  C24 UNK     1      19.050  -8.471  38.493  1.00  0.00     0.000 A 
HETATM   32  C23 UNK     1      19.920  -7.935  39.442  1.00  0.00     0.001 A 
HETATM   33  C21 UNK     1      20.608  -6.752  39.170  1.00  0.00     0.009 A 
ENDBRANCH  27  28
ENDBRANCH  25  27
ENDBRANCH   2  23
TORSDOF 5
ENDMDL
MODEL 10
REMARK VINA RESULT:     -10.3      6.728     10.711
REMARK  5 active torsions:
REMARK  status: ('A' for Active; 'I' for Inactive)
REMARK       I    between atoms: C10_17  and  N1_6 
REMARK    1  A    between atoms: C3_10  and  N1_6 
REMARK       I    between atoms: C11_18  and  N2_7 
REMARK    2  A    between atoms: C6_13  and  N2_7 
REMARK    3  A    between atoms: C10_17  and  C2_9 
REMARK    4  A    between atoms: C11_18  and  C4_11 
REMARK    5  A    between atoms: C6_13  and  C9_16 
ROOT
HETATM    1  C3  UNK     1      25.356  -9.872  36.679  1.00  0.00     0.035 A 
HETATM    2  C4  UNK     1      23.173 -10.661  36.080  1.00  0.00     0.034 A 
HETATM    3  C8  UNK     1      24.006  -9.624  36.498  1.00  0.00     0.046 A 
HETATM    4  C13 UNK     1      25.898 -11.127  36.456  1.00  0.00     0.029 A 
HETATM    5  C14 UNK     1      23.701 -11.932  35.851  1.00  0.00     0.017 A 
HETATM    6  C17 UNK     1      25.063 -12.164  36.039  1.00  0.00     0.003 A 
ENDROOT
BRANCH   1   7
HETATM    7  N1  UNK     1      26.202  -8.818  37.101  1.00  0.00    -0.323 N 
HETATM    8  C10 UNK     1      26.341  -8.307  38.384  1.00  0.00     0.262 C 
HETATM    9  O2  UNK     1      25.762  -8.661  39.410  1.00  0.00    -0.267 OA
HETATM   10  H5  UNK     1      26.744  -8.396  36.352  1.00  0.00     0.169 HD
BRANCH   8  11
HETATM   11  C2  UNK     1      27.319  -7.213  38.442  1.00  0.00     0.108 A 
HETATM   12  C15 UNK     1      26.912  -5.807  38.658  1.00  0.00     0.304 A 
HETATM   13  O1  UNK     1      27.932  -4.859  38.693  1.00  0.00    -0.274 OA
HETATM   14  O4  UNK     1      25.737  -5.487  38.802  1.00  0.00    -0.259 OA
HETATM   15  C5  UNK     1      29.285  -5.217  38.531  1.00  0.00     0.089 A 
HETATM   16  C1  UNK     1      29.645  -6.545  38.327  1.00  0.00     0.001 A 
HETATM   17  C16 UNK     1      30.234  -4.199  38.582  1.00  0.00     0.040 A 
HETATM   18  C7  UNK     1      28.603  -7.559  38.286  1.00  0.00     0.037 A 
HETATM   19  C12 UNK     1      30.998  -6.860  38.171  1.00  0.00     0.038 A 
HETATM   20  C18 UNK     1      31.961  -5.849  38.219  1.00  0.00     0.035 A 
HETATM   21  C19 UNK     1      31.580  -4.521  38.424  1.00  0.00     0.026 A 
HETATM   22 Cl1  UNK     1      33.626  -6.241  38.025  1.00  0.00    -0.084 Cl
ENDBRANCH   8  11
ENDBRANCH   1   7
BRANCH   2  23
HETATM   23  C11 UNK     1      21.752 -10.419  35.885  1.00  0.00     0.252 C 
HETATM   24  O3  UNK     1      21.278 -10.155  34.772  1.00  0.00    -0.268 OA
HETATM   25  N2  UNK     1      20.948 -10.532  37.022  1.00  0.00    -0.353 N 
HETATM   26  H6  UNK     1      21.342 -10.832  37.907  1.00  0.00     0.163 HD
BRANCH  25  27
HETATM   27  C6  UNK     1      19.515 -10.350  36.985  1.00  0.00     0.161 C 
BRANCH  27  28
HETATM   28  C9  UNK     1      19.130  -8.900  37.040  1.00  0.00    -0.041 A 
HETATM   29  C20 UNK     1      19.616  -8.098  38.066  1.00  0.00     0.009 A 
HETATM   30  C22 UNK     1      19.260  -6.751  38.117  1.00  0.00     0.001 A 
HETATM   31  C24 UNK     1      18.418  -6.214  37.142  1.00  0.00     0.000 A 
HETATM   32  C23 UNK     1      17.934  -7.026  36.117  1.00  0.00     0.001 A 
HETATM   33  C21 UNK     1      18.291  -8.373  36.065  1.00  0.00     0.009 A 
ENDBRANCH  27  28
ENDBRANCH  25  27
ENDBRANCH   2  23
TORSDOF 5
ENDMDL
