MODEL 1
REMARK VINA RESULT:      -9.5      0.000      0.000
REMARK  7 active torsions:
REMARK  status: ('A' for Active; 'I' for Inactive)
REMARK    1  A    between atoms: C2_10  and  N1_3 
REMARK    2  A    between atoms: C3_11  and  N1_3 
REMARK    3  A    between atoms: C8_16  and  N1_3 
REMARK    4  A    between atoms: C16_24  and  N2_4 
REMARK    5  A    between atoms: C5_13  and  N2_4 
REMARK    6  A    between atoms: C19_27  and  N6_8 
REMARK    7  A    between atoms: C12_20  and  C6_14 
ROOT
HETATM    1  O1  UNK     1      18.002   3.259  33.251  1.00  0.00    -0.274 OA
HETATM    2  O2  UNK     1      18.195   1.018  32.876  1.00  0.00    -0.259 OA
HETATM    3  C1  UNK     1      18.507   4.834  31.473  1.00  0.00    -0.001 A 
HETATM    4  C4  UNK     1      18.095   4.581  32.776  1.00  0.00     0.091 A 
HETATM    5  C5  UNK     1      17.841   6.929  33.209  1.00  0.00     0.052 A 
HETATM    6  C6  UNK     1      18.752   2.448  31.058  1.00  0.00     0.051 A 
HETATM    7  C7  UNK     1      18.844   3.711  30.613  1.00  0.00     0.032 A 
HETATM    8  C9  UNK     1      17.761   5.611  33.653  1.00  0.00     0.068 A 
HETATM    9  C10 UNK     1      18.585   6.158  31.036  1.00  0.00     0.016 A 
HETATM   10  C11 UNK     1      18.253   7.203  31.903  1.00  0.00     0.031 A 
HETATM   11  C15 UNK     1      18.305   2.163  32.448  1.00  0.00     0.299 A 
ENDROOT
BRANCH   5  12
HETATM   12  N2  UNK     1      17.508   7.988  34.080  1.00  0.00    -0.187 N 
HETATM   13  H9  UNK     1      18.060   8.018  34.932  1.00  0.00     0.184 HD
BRANCH  12  14
HETATM   14  C16 UNK     1      16.666   9.108  33.940  1.00  0.00     0.758 A 
HETATM   15  N3  UNK     1      17.166  10.294  34.329  1.00  0.00     0.131 NA
HETATM   16  C8  UNK     1      16.308  11.315  34.168  1.00  0.00     0.756 A 
HETATM   17  N4  UNK     1      15.061  11.243  33.677  1.00  0.00     0.131 NA
HETATM   18  C19 UNK     1      14.695   9.999  33.330  1.00  0.00     0.751 A 
HETATM   19  N5  UNK     1      15.442   8.886  33.432  1.00  0.00     0.131 NA
BRANCH  16  20
HETATM   20  N1  UNK     1      16.763  12.593  34.557  1.00  0.00    -0.214 N 
BRANCH  20  21
HETATM   21  C2  UNK     1      15.824  13.597  35.015  1.00  0.00     0.137 C 
HETATM   22  C13 UNK     1      15.782  13.620  36.530  1.00  0.00     0.027 C 
ENDBRANCH  20  21
BRANCH  20  23
HETATM   23  C3  UNK     1      18.172  12.922  34.489  1.00  0.00     0.137 C 
HETATM   24  C14 UNK     1      18.504  13.522  33.137  1.00  0.00     0.027 C 
ENDBRANCH  20  23
ENDBRANCH  16  20
BRANCH  18  25
HETATM   25  N6  UNK     1      13.395   9.843  32.804  1.00  0.00    -0.230 N 
HETATM   26  H21 UNK     1      12.606  10.225  33.308  1.00  0.00     0.174 HD
HETATM   27  H22 UNK     1      13.268   9.354  31.929  1.00  0.00     0.174 HD
ENDBRANCH  18  25
ENDBRANCH  12  14
ENDBRANCH   5  12
BRANCH   6  28
HETATM   28  C12 UNK     1      19.120   1.343  30.152  1.00  0.00    -0.020 A 
HETATM   29  C17 UNK     1      20.183   0.501  30.478  1.00  0.00     0.012 A 
HETATM   30  C20 UNK     1      20.532  -0.544  29.622  1.00  0.00     0.001 A 
HETATM   31  C22 UNK     1      19.818  -0.746  28.440  1.00  0.00     0.000 A 
HETATM   32  C21 UNK     1      18.755   0.098  28.115  1.00  0.00     0.001 A 
HETATM   33  C18 UNK     1      18.406   1.142  28.971  1.00  0.00     0.012 A 
ENDBRANCH   6  28
TORSDOF 7
ENDMDL
MODEL 2
REMARK VINA RESULT:      -9.5      0.055      1.288
REMARK  7 active torsions:
REMARK  status: ('A' for Active; 'I' for Inactive)
REMARK    1  A    between atoms: C2_10  and  N1_3 
REMARK    2  A    between atoms: C3_11  and  N1_3 
REMARK    3  A    between atoms: C8_16  and  N1_3 
REMARK    4  A    between atoms: C16_24  and  N2_4 
REMARK    5  A    between atoms: C5_13  and  N2_4 
REMARK    6  A    between atoms: C19_27  and  N6_8 
REMARK    7  A    between atoms: C12_20  and  C6_14 
ROOT
HETATM    1  O1  UNK     1      17.990   3.282  33.218  1.00  0.00    -0.274 OA
HETATM    2  O2  UNK     1      18.167   1.038  32.853  1.00  0.00    -0.259 OA
HETATM    3  C1  UNK     1      18.532   4.845  31.441  1.00  0.00    -0.001 A 
HETATM    4  C4  UNK     1      18.102   4.601  32.739  1.00  0.00     0.091 A 
HETATM    5  C5  UNK     1      17.864   6.952  33.161  1.00  0.00     0.052 A 
HETATM    6  C6  UNK     1      18.761   2.456  31.037  1.00  0.00     0.051 A 
HETATM    7  C7  UNK     1      18.869   3.716  30.589  1.00  0.00     0.032 A 
HETATM    8  C9  UNK     1      17.766   5.637  33.609  1.00  0.00     0.068 A 
HETATM    9  C10 UNK     1      18.628   6.167  30.999  1.00  0.00     0.016 A 
HETATM   10  C11 UNK     1      18.294   7.218  31.859  1.00  0.00     0.031 A 
HETATM   11  C15 UNK     1      18.293   2.180  32.422  1.00  0.00     0.299 A 
ENDROOT
BRANCH   5  12
HETATM   12  N2  UNK     1      17.530   8.018  34.024  1.00  0.00    -0.187 N 
HETATM   13  H9  UNK     1      18.093   8.065  34.867  1.00  0.00     0.184 HD
BRANCH  12  14
HETATM   14  C16 UNK     1      16.672   9.126  33.882  1.00  0.00     0.758 A 
HETATM   15  N3  UNK     1      17.150  10.317  34.284  1.00  0.00     0.131 NA
HETATM   16  C8  UNK     1      16.278  11.326  34.121  1.00  0.00     0.756 A 
HETATM   17  N4  UNK     1      15.037  11.238  33.616  1.00  0.00     0.131 NA
HETATM   18  C19 UNK     1      14.695   9.990  33.258  1.00  0.00     0.751 A 
HETATM   19  N5  UNK     1      15.457   8.889  33.361  1.00  0.00     0.131 NA
BRANCH  16  20
HETATM   20  N1  UNK     1      16.710  12.608  34.522  1.00  0.00    -0.214 N 
BRANCH  20  21
HETATM   21  C2  UNK     1      18.117  12.952  34.487  1.00  0.00     0.137 C 
HETATM   22  C13 UNK     1      18.462  13.608  33.165  1.00  0.00     0.027 C 
ENDBRANCH  20  21
BRANCH  20  23
HETATM   23  C3  UNK     1      15.754  13.591  34.987  1.00  0.00     0.137 C 
HETATM   24  C14 UNK     1      15.797  13.688  36.500  1.00  0.00     0.027 C 
ENDBRANCH  20  23
ENDBRANCH  16  20
BRANCH  18  25
HETATM   25  N6  UNK     1      13.402   9.818  32.717  1.00  0.00    -0.230 N 
HETATM   26  H21 UNK     1      12.635   9.579  33.331  1.00  0.00     0.174 HD
HETATM   27  H22 UNK     1      13.258   9.939  31.724  1.00  0.00     0.174 HD
ENDBRANCH  18  25
ENDBRANCH  12  14
ENDBRANCH   5  12
BRANCH   6  28
HETATM   28  C12 UNK     1      19.130   1.344  30.140  1.00  0.00    -0.020 A 
HETATM   29  C17 UNK     1      20.183   0.496  30.480  1.00  0.00     0.012 A 
HETATM   30  C20 UNK     1      20.533  -0.556  29.632  1.00  0.00     0.001 A 
HETATM   31  C22 UNK     1      19.829  -0.758  28.444  1.00  0.00     0.000 A 
HETATM   32  C21 UNK     1      18.775   0.092  28.105  1.00  0.00     0.001 A 
HETATM   33  C18 UNK     1      18.426   1.142  28.952  1.00  0.00     0.012 A 
ENDBRANCH   6  28
TORSDOF 7
ENDMDL
MODEL 3
REMARK VINA RESULT:      -9.3      1.080      2.380
REMARK  7 active torsions:
REMARK  status: ('A' for Active; 'I' for Inactive)
REMARK    1  A    between atoms: C2_10  and  N1_3 
REMARK    2  A    between atoms: C3_11  and  N1_3 
REMARK    3  A    between atoms: C8_16  and  N1_3 
REMARK    4  A    between atoms: C16_24  and  N2_4 
REMARK    5  A    between atoms: C5_13  and  N2_4 
REMARK    6  A    between atoms: C19_27  and  N6_8 
REMARK    7  A    between atoms: C12_20  and  C6_14 
ROOT
HETATM    1  O1  UNK     1      18.019   3.221  33.330  1.00  0.00    -0.274 OA
HETATM    2  O2  UNK     1      18.152   0.990  32.879  1.00  0.00    -0.259 OA
HETATM    3  C1  UNK     1      18.558   4.841  31.604  1.00  0.00    -0.001 A 
HETATM    4  C4  UNK     1      18.146   4.555  32.899  1.00  0.00     0.091 A 
HETATM    5  C5  UNK     1      17.955   6.893  33.412  1.00  0.00     0.052 A 
HETATM    6  C6  UNK     1      18.740   2.464  31.107  1.00  0.00     0.051 A 
HETATM    7  C7  UNK     1      18.863   3.739  30.705  1.00  0.00     0.032 A 
HETATM    8  C9  UNK     1      17.841   5.563  33.812  1.00  0.00     0.068 A 
HETATM    9  C10 UNK     1      18.670   6.176  31.210  1.00  0.00     0.016 A 
HETATM   10  C11 UNK     1      18.368   7.200  32.114  1.00  0.00     0.031 A 
HETATM   11  C15 UNK     1      18.290   2.145  32.489  1.00  0.00     0.299 A 
ENDROOT
BRANCH   5  12
HETATM   12  N2  UNK     1      17.653   7.930  34.319  1.00  0.00    -0.187 N 
HETATM   13  H9  UNK     1      17.772   7.680  35.295  1.00  0.00     0.184 HD
BRANCH  12  14
HETATM   14  C16 UNK     1      17.363   9.297  34.142  1.00  0.00     0.758 A 
HETATM   15  N3  UNK     1      16.069   9.657  34.211  1.00  0.00     0.131 NA
HETATM   16  C8  UNK     1      15.869  10.973  34.033  1.00  0.00     0.756 A 
HETATM   17  N4  UNK     1      16.811  11.902  33.802  1.00  0.00     0.131 NA
HETATM   18  C19 UNK     1      18.055  11.401  33.758  1.00  0.00     0.751 A 
HETATM   19  N5  UNK     1      18.407  10.114  33.919  1.00  0.00     0.131 NA
BRANCH  16  20
HETATM   20  N1  UNK     1      14.533  11.425  34.091  1.00  0.00    -0.214 N 
BRANCH  20  21
HETATM   21  C2  UNK     1      13.493  10.733  33.357  1.00  0.00     0.137 C 
HETATM   22  C13 UNK     1      12.502  11.732  32.790  1.00  0.00     0.027 C 
ENDBRANCH  20  21
BRANCH  20  23
HETATM   23  C3  UNK     1      14.188  12.592  34.875  1.00  0.00     0.137 C 
HETATM   24  C14 UNK     1      13.917  12.195  36.313  1.00  0.00     0.027 C 
ENDBRANCH  20  23
ENDBRANCH  16  20
BRANCH  18  25
HETATM   25  N6  UNK     1      19.100  12.319  33.520  1.00  0.00    -0.230 N 
HETATM   26  H21 UNK     1      19.225  12.700  32.591  1.00  0.00     0.174 HD
HETATM   27  H22 UNK     1      19.711  12.585  34.279  1.00  0.00     0.174 HD
ENDBRANCH  18  25
ENDBRANCH  12  14
ENDBRANCH   5  12
BRANCH   6  28
HETATM   28  C12 UNK     1      19.076   1.382  30.164  1.00  0.00    -0.020 A 
HETATM   29  C17 UNK     1      20.131   0.515  30.446  1.00  0.00     0.012 A 
HETATM   30  C20 UNK     1      20.450  -0.510  29.554  1.00  0.00     0.001 A 
HETATM   31  C22 UNK     1      19.713  -0.667  28.380  1.00  0.00     0.000 A 
HETATM   32  C21 UNK     1      18.657   0.202  28.099  1.00  0.00     0.001 A 
HETATM   33  C18 UNK     1      18.339   1.225  28.990  1.00  0.00     0.012 A 
ENDBRANCH   6  28
TORSDOF 7
ENDMDL
MODEL 4
REMARK VINA RESULT:      -9.1      1.279      2.122
REMARK  7 active torsions:
REMARK  status: ('A' for Active; 'I' for Inactive)
REMARK    1  A    between atoms: C2_10  and  N1_3 
REMARK    2  A    between atoms: C3_11  and  N1_3 
REMARK    3  A    between atoms: C8_16  and  N1_3 
REMARK    4  A    between atoms: C16_24  and  N2_4 
REMARK    5  A    between atoms: C5_13  and  N2_4 
REMARK    6  A    between atoms: C19_27  and  N6_8 
REMARK    7  A    between atoms: C12_20  and  C6_14 
ROOT
HETATM    1  O1  UNK     1      17.853   3.253  32.868  1.00  0.00    -0.274 OA
HETATM    2  O2  UNK     1      18.162   0.994  32.831  1.00  0.00    -0.259 OA
HETATM    3  C1  UNK     1      18.491   4.596  30.949  1.00  0.00    -0.001 A 
HETATM    4  C4  UNK     1      17.951   4.501  32.225  1.00  0.00     0.091 A 
HETATM    5  C5  UNK     1      17.571   6.871  32.299  1.00  0.00     0.052 A 
HETATM    6  C6  UNK     1      18.862   2.190  30.897  1.00  0.00     0.051 A 
HETATM    7  C7  UNK     1      18.956   3.384  30.292  1.00  0.00     0.032 A 
HETATM    8  C9  UNK     1      17.489   5.623  32.912  1.00  0.00     0.068 A 
HETATM    9  C10 UNK     1      18.570   5.850  30.341  1.00  0.00     0.016 A 
HETATM   10  C11 UNK     1      18.111   6.986  31.016  1.00  0.00     0.031 A 
HETATM   11  C15 UNK     1      18.278   2.074  32.261  1.00  0.00     0.299 A 
ENDROOT
BRANCH   5  12
HETATM   12  N2  UNK     1      17.110   8.020  32.975  1.00  0.00    -0.187 N 
HETATM   13  H9  UNK     1      16.133   7.981  33.248  1.00  0.00     0.184 HD
BRANCH  12  14
HETATM   14  C16 UNK     1      17.770   9.155  33.485  1.00  0.00     0.758 A 
HETATM   15  N3  UNK     1      17.052  10.290  33.562  1.00  0.00     0.131 NA
HETATM   16  C8  UNK     1      17.745  11.329  34.056  1.00  0.00     0.756 A 
HETATM   17  N4  UNK     1      19.027  11.319  34.454  1.00  0.00     0.131 NA
HETATM   18  C19 UNK     1      19.619  10.122  34.320  1.00  0.00     0.751 A 
HETATM   19  N5  UNK     1      19.055   8.999  33.845  1.00  0.00     0.131 NA
BRANCH  16  20
HETATM   20  N1  UNK     1      17.056  12.555  34.166  1.00  0.00    -0.214 N 
BRANCH  20  21
HETATM   21  C2  UNK     1      15.608  12.588  34.131  1.00  0.00     0.137 C 
HETATM   22  C13 UNK     1      15.089  13.692  35.031  1.00  0.00     0.027 C 
ENDBRANCH  20  21
BRANCH  20  23
HETATM   23  C3  UNK     1      17.788  13.798  34.300  1.00  0.00     0.137 C 
HETATM   24  C14 UNK     1      18.109  14.367  32.931  1.00  0.00     0.027 C 
ENDBRANCH  20  23
ENDBRANCH  16  20
BRANCH  18  25
HETATM   25  N6  UNK     1      20.970  10.034  34.718  1.00  0.00    -0.230 N 
HETATM   26  H21 UNK     1      21.192   9.734  35.658  1.00  0.00     0.174 HD
HETATM   27  H22 UNK     1      21.699  10.269  34.060  1.00  0.00     0.174 HD
ENDBRANCH  18  25
ENDBRANCH  12  14
ENDBRANCH   5  12
BRANCH   6  28
HETATM   28  C12 UNK     1      19.363   0.993  30.197  1.00  0.00    -0.020 A 
HETATM   29  C17 UNK     1      20.268   0.143  30.831  1.00  0.00     0.012 A 
HETATM   30  C20 UNK     1      20.743  -0.990  30.169  1.00  0.00     0.001 A 
HETATM   31  C22 UNK     1      20.312  -1.272  28.873  1.00  0.00     0.000 A 
HETATM   32  C21 UNK     1      19.405  -0.421  28.239  1.00  0.00     0.001 A 
HETATM   33  C18 UNK     1      18.931   0.711  28.900  1.00  0.00     0.012 A 
ENDBRANCH   6  28
TORSDOF 7
ENDMDL
MODEL 5
REMARK VINA RESULT:      -9.0      5.840      7.929
REMARK  7 active torsions:
REMARK  status: ('A' for Active; 'I' for Inactive)
REMARK    1  A    between atoms: C2_10  and  N1_3 
REMARK    2  A    between atoms: C3_11  and  N1_3 
REMARK    3  A    between atoms: C8_16  and  N1_3 
REMARK    4  A    between atoms: C16_24  and  N2_4 
REMARK    5  A    between atoms: C5_13  and  N2_4 
REMARK    6  A    between atoms: C19_27  and  N6_8 
REMARK    7  A    between atoms: C12_20  and  C6_14 
ROOT
HETATM    1  O1  UNK     1      19.707  -1.709  34.693  1.00  0.00    -0.274 OA
HETATM    2  O2  UNK     1      20.565  -3.806  34.434  1.00  0.00    -0.259 OA
HETATM    3  C1  UNK     1      18.597  -1.101  36.766  1.00  0.00    -0.001 A 
HETATM    4  C4  UNK     1      19.038  -0.763  35.492  1.00  0.00     0.091 A 
HETATM    5  C5  UNK     1      18.184   1.468  35.731  1.00  0.00     0.052 A 
HETATM    6  C6  UNK     1      19.475  -3.356  36.501  1.00  0.00     0.051 A 
HETATM    7  C7  UNK     1      18.834  -2.450  37.255  1.00  0.00     0.032 A 
HETATM    8  C9  UNK     1      18.840   0.511  34.961  1.00  0.00     0.068 A 
HETATM    9  C10 UNK     1      17.939  -0.136  37.531  1.00  0.00     0.016 A 
HETATM   10  C11 UNK     1      17.733   1.147  37.013  1.00  0.00     0.031 A 
HETATM   11  C15 UNK     1      19.960  -3.004  35.139  1.00  0.00     0.299 A 
ENDROOT
BRANCH   5  12
HETATM   12  N2  UNK     1      17.972   2.764  35.214  1.00  0.00    -0.187 N 
HETATM   13  H9  UNK     1      17.812   3.475  35.921  1.00  0.00     0.184 HD
BRANCH  12  14
HETATM   14  C16 UNK     1      18.087   3.305  33.919  1.00  0.00     0.758 A 
HETATM   15  N3  UNK     1      18.341   4.623  33.833  1.00  0.00     0.131 NA
HETATM   16  C8  UNK     1      18.436   5.068  32.570  1.00  0.00     0.756 A 
HETATM   17  N4  UNK     1      18.304   4.337  31.451  1.00  0.00     0.131 NA
HETATM   18  C19 UNK     1      18.053   3.040  31.688  1.00  0.00     0.751 A 
HETATM   19  N5  UNK     1      17.931   2.454  32.891  1.00  0.00     0.131 NA
BRANCH  16  20
HETATM   20  N1  UNK     1      18.701   6.444  32.400  1.00  0.00    -0.214 N 
BRANCH  20  21
HETATM   21  C2  UNK     1      17.911   7.234  31.477  1.00  0.00     0.137 C 
HETATM   22  C13 UNK     1      16.531   7.486  32.054  1.00  0.00     0.027 C 
ENDBRANCH  20  21
BRANCH  20  23
HETATM   23  C3  UNK     1      19.773   7.080  33.136  1.00  0.00     0.137 C 
HETATM   24  C14 UNK     1      21.110   6.495  32.722  1.00  0.00     0.027 C 
ENDBRANCH  20  23
ENDBRANCH  16  20
BRANCH  18  25
HETATM   25  N6  UNK     1      17.901   2.207  30.559  1.00  0.00    -0.230 N 
HETATM   26  H21 UNK     1      17.174   2.410  29.885  1.00  0.00     0.174 HD
HETATM   27  H22 UNK     1      18.521   1.419  30.435  1.00  0.00     0.174 HD
ENDBRANCH  18  25
ENDBRANCH  12  14
ENDBRANCH   5  12
BRANCH   6  28
HETATM   28  C12 UNK     1      19.678  -4.716  37.035  1.00  0.00    -0.020 A 
HETATM   29  C17 UNK     1      18.746  -5.717  36.762  1.00  0.00     0.012 A 
HETATM   30  C20 UNK     1      18.937  -7.004  37.267  1.00  0.00     0.001 A 
HETATM   31  C22 UNK     1      20.059  -7.288  38.046  1.00  0.00     0.000 A 
HETATM   32  C21 UNK     1      20.991  -6.285  38.318  1.00  0.00     0.001 A 
HETATM   33  C18 UNK     1      20.800  -5.000  37.813  1.00  0.00     0.012 A 
ENDBRANCH   6  28
TORSDOF 7
ENDMDL
MODEL 6
REMARK VINA RESULT:      -9.0      4.087      9.983
REMARK  7 active torsions:
REMARK  status: ('A' for Active; 'I' for Inactive)
REMARK    1  A    between atoms: C2_10  and  N1_3 
REMARK    2  A    between atoms: C3_11  and  N1_3 
REMARK    3  A    between atoms: C8_16  and  N1_3 
REMARK    4  A    between atoms: C16_24  and  N2_4 
REMARK    5  A    between atoms: C5_13  and  N2_4 
REMARK    6  A    between atoms: C19_27  and  N6_8 
REMARK    7  A    between atoms: C12_20  and  C6_14 
ROOT
HETATM    1  O1  UNK     1      15.753   7.963  32.422  1.00  0.00    -0.274 OA
HETATM    2  O2  UNK     1      14.668   9.924  32.848  1.00  0.00    -0.259 OA
HETATM    3  C1  UNK     1      18.013   7.626  33.242  1.00  0.00    -0.001 A 
HETATM    4  C4  UNK     1      16.898   7.156  32.560  1.00  0.00     0.091 A 
HETATM    5  C5  UNK     1      17.983   5.061  32.118  1.00  0.00     0.052 A 
HETATM    6  C6  UNK     1      16.889   9.740  33.681  1.00  0.00     0.051 A 
HETATM    7  C7  UNK     1      17.979   8.967  33.805  1.00  0.00     0.032 A 
HETATM    8  C9  UNK     1      16.865   5.883  31.995  1.00  0.00     0.068 A 
HETATM    9  C10 UNK     1      19.130   6.796  33.362  1.00  0.00     0.016 A 
HETATM   10  C11 UNK     1      19.114   5.516  32.800  1.00  0.00     0.031 A 
HETATM   11  C15 UNK     1      15.684   9.245  32.961  1.00  0.00     0.299 A 
ENDROOT
BRANCH   5  12
HETATM   12  N2  UNK     1      17.974   3.768  31.553  1.00  0.00    -0.187 N 
HETATM   13  H9  UNK     1      17.885   3.754  30.542  1.00  0.00     0.184 HD
BRANCH  12  14
HETATM   14  C16 UNK     1      18.217   2.490  32.093  1.00  0.00     0.758 A 
HETATM   15  N3  UNK     1      17.943   2.320  33.398  1.00  0.00     0.131 NA
HETATM   16  C8  UNK     1      18.200   1.079  33.842  1.00  0.00     0.756 A 
HETATM   17  N4  UNK     1      18.682   0.054  33.121  1.00  0.00     0.131 NA
HETATM   18  C19 UNK     1      18.908   0.367  31.836  1.00  0.00     0.751 A 
HETATM   19  N5  UNK     1      18.700   1.559  31.252  1.00  0.00     0.131 NA
BRANCH  16  20
HETATM   20  N1  UNK     1      17.938   0.827  35.206  1.00  0.00    -0.214 N 
BRANCH  20  21
HETATM   21  C2  UNK     1      18.474   1.701  36.229  1.00  0.00     0.137 C 
HETATM   22  C13 UNK     1      17.802   1.423  37.559  1.00  0.00     0.027 C 
ENDBRANCH  20  21
BRANCH  20  23
HETATM   23  C3  UNK     1      17.141  -0.316  35.600  1.00  0.00     0.137 C 
HETATM   24  C14 UNK     1      15.711  -0.146  35.122  1.00  0.00     0.027 C 
ENDBRANCH  20  23
ENDBRANCH  16  20
BRANCH  18  25
HETATM   25  N6  UNK     1      19.417  -0.661  31.013  1.00  0.00    -0.230 N 
HETATM   26  H21 UNK     1      20.262  -1.145  31.287  1.00  0.00     0.174 HD
HETATM   27  H22 UNK     1      18.930  -0.903  30.161  1.00  0.00     0.174 HD
ENDBRANCH  18  25
ENDBRANCH  12  14
ENDBRANCH   5  12
BRANCH   6  28
HETATM   28  C12 UNK     1      16.908  11.099  34.255  1.00  0.00    -0.020 A 
HETATM   29  C17 UNK     1      15.855  11.529  35.061  1.00  0.00     0.012 A 
HETATM   30  C20 UNK     1      15.872  12.815  35.604  1.00  0.00     0.001 A 
HETATM   31  C22 UNK     1      16.943  13.669  35.340  1.00  0.00     0.000 A 
HETATM   32  C21 UNK     1      17.997  13.237  34.533  1.00  0.00     0.001 A 
HETATM   33  C18 UNK     1      17.979  11.953  33.991  1.00  0.00     0.012 A 
ENDBRANCH   6  28
TORSDOF 7
ENDMDL
MODEL 7
REMARK VINA RESULT:      -8.9      3.814     10.539
REMARK  7 active torsions:
REMARK  status: ('A' for Active; 'I' for Inactive)
REMARK    1  A    between atoms: C2_10  and  N1_3 
REMARK    2  A    between atoms: C3_11  and  N1_3 
REMARK    3  A    between atoms: C8_16  and  N1_3 
REMARK    4  A    between atoms: C16_24  and  N2_4 
REMARK    5  A    between atoms: C5_13  and  N2_4 
REMARK    6  A    between atoms: C19_27  and  N6_8 
REMARK    7  A    between atoms: C12_20  and  C6_14 
ROOT
HETATM    1  O1  UNK     1      15.575   7.940  32.580  1.00  0.00    -0.274 OA
HETATM    2  O2  UNK     1      14.395   9.813  33.129  1.00  0.00    -0.259 OA
HETATM    3  C1  UNK     1      17.920   7.765  33.184  1.00  0.00    -0.001 A 
HETATM    4  C4  UNK     1      16.783   7.218  32.602  1.00  0.00     0.091 A 
HETATM    5  C5  UNK     1      17.972   5.211  32.035  1.00  0.00     0.052 A 
HETATM    6  C6  UNK     1      16.691   9.788  33.751  1.00  0.00     0.051 A 
HETATM    7  C7  UNK     1      17.840   9.096  33.764  1.00  0.00     0.032 A 
HETATM    8  C9  UNK     1      16.791   5.949  32.026  1.00  0.00     0.068 A 
HETATM    9  C10 UNK     1      19.100   7.019  33.190  1.00  0.00     0.016 A 
HETATM   10  C11 UNK     1      19.125   5.744  32.615  1.00  0.00     0.031 A 
HETATM   11  C15 UNK     1      15.464   9.210  33.139  1.00  0.00     0.299 A 
ENDROOT
BRANCH   5  12
HETATM   12  N2  UNK     1      18.004   3.924  31.457  1.00  0.00    -0.187 N 
HETATM   13  H9  UNK     1      17.961   3.921  30.443  1.00  0.00     0.184 HD
BRANCH  12  14
HETATM   14  C16 UNK     1      18.239   2.643  31.994  1.00  0.00     0.758 A 
HETATM   15  N3  UNK     1      18.864   1.758  31.198  1.00  0.00     0.131 NA
HETATM   16  C8  UNK     1      19.053   0.560  31.774  1.00  0.00     0.756 A 
HETATM   17  N4  UNK     1      18.685   0.201  33.015  1.00  0.00     0.131 NA
HETATM   18  C19 UNK     1      18.072   1.184  33.694  1.00  0.00     0.751 A 
HETATM   19  N5  UNK     1      17.816   2.426  33.251  1.00  0.00     0.131 NA
BRANCH  16  20
HETATM   20  N1  UNK     1      19.703  -0.422  30.997  1.00  0.00    -0.214 N 
BRANCH  20  21
HETATM   21  C2  UNK     1      20.448  -0.045  29.812  1.00  0.00     0.137 C 
HETATM   22  C13 UNK     1      19.801  -0.641  28.577  1.00  0.00     0.027 C 
ENDBRANCH  20  21
BRANCH  20  23
HETATM   23  C3  UNK     1      19.622  -1.820  31.365  1.00  0.00     0.137 C 
HETATM   24  C14 UNK     1      20.933  -2.276  31.979  1.00  0.00     0.027 C 
ENDBRANCH  20  23
ENDBRANCH  16  20
BRANCH  18  25
HETATM   25  N6  UNK     1      17.655   0.881  35.008  1.00  0.00    -0.230 N 
HETATM   26  H21 UNK     1      17.993   1.443  35.779  1.00  0.00     0.174 HD
HETATM   27  H22 UNK     1      17.023   0.109  35.164  1.00  0.00     0.174 HD
ENDBRANCH  18  25
ENDBRANCH  12  14
ENDBRANCH   5  12
BRANCH   6  28
HETATM   28  C12 UNK     1      16.665  11.141  34.338  1.00  0.00    -0.020 A 
HETATM   29  C17 UNK     1      15.625  11.510  35.191  1.00  0.00     0.012 A 
HETATM   30  C20 UNK     1      15.599  12.790  35.747  1.00  0.00     0.001 A 
HETATM   31  C22 UNK     1      16.613  13.700  35.448  1.00  0.00     0.000 A 
HETATM   32  C21 UNK     1      17.653  13.330  34.594  1.00  0.00     0.001 A 
HETATM   33  C18 UNK     1      17.679  12.051  34.039  1.00  0.00     0.012 A 
ENDBRANCH   6  28
TORSDOF 7
ENDMDL
MODEL 8
REMARK VINA RESULT:      -8.7      1.450      2.003
REMARK  7 active torsions:
REMARK  status: ('A' for Active; 'I' for Inactive)
REMARK    1  A    between atoms: C2_10  and  N1_3 
REMARK    2  A    between atoms: C3_11  and  N1_3 
REMARK    3  A    between atoms: C8_16  and  N1_3 
REMARK    4  A    between atoms: C16_24  and  N2_4 
REMARK    5  A    between atoms: C5_13  and  N2_4 
REMARK    6  A    between atoms: C19_27  and  N6_8 
REMARK    7  A    between atoms: C12_20  and  C6_14 
ROOT
HETATM    1  O1  UNK     1      18.019   3.080  32.807  1.00  0.00    -0.274 OA
HETATM    2  O2  UNK     1      18.144   0.810  32.978  1.00  0.00    -0.259 OA
HETATM    3  C1  UNK     1      18.877   4.196  30.828  1.00  0.00    -0.001 A 
HETATM    4  C4  UNK     1      18.257   4.256  32.070  1.00  0.00     0.091 A 
HETATM    5  C5  UNK     1      18.069   6.645  31.921  1.00  0.00     0.052 A 
HETATM    6  C6  UNK     1      19.053   1.774  31.002  1.00  0.00     0.051 A 
HETATM    7  C7  UNK     1      19.281   2.899  30.308  1.00  0.00     0.032 A 
HETATM    8  C9  UNK     1      17.848   5.465  32.629  1.00  0.00     0.068 A 
HETATM    9  C10 UNK     1      19.095   5.382  30.125  1.00  0.00     0.016 A 
HETATM   10  C11 UNK     1      18.691   6.604  30.671  1.00  0.00     0.031 A 
HETATM   11  C15 UNK     1      18.381   1.823  32.329  1.00  0.00     0.299 A 
ENDROOT
BRANCH   5  12
HETATM   12  N2  UNK     1      17.664   7.881  32.467  1.00  0.00    -0.187 N 
HETATM   13  H9  UNK     1      18.425   8.531  32.638  1.00  0.00     0.184 HD
BRANCH  12  14
HETATM   14  C16 UNK     1      16.398   8.460  32.683  1.00  0.00     0.758 A 
HETATM   15  N3  UNK     1      16.380   9.708  33.182  1.00  0.00     0.131 NA
HETATM   16  C8  UNK     1      15.141  10.194  33.363  1.00  0.00     0.756 A 
HETATM   17  N4  UNK     1      13.987   9.562  33.098  1.00  0.00     0.131 NA
HETATM   18  C19 UNK     1      14.157   8.325  32.605  1.00  0.00     0.751 A 
HETATM   19  N5  UNK     1      15.328   7.710  32.371  1.00  0.00     0.131 NA
BRANCH  16  20
HETATM   20  N1  UNK     1      15.043  11.501  33.887  1.00  0.00    -0.214 N 
BRANCH  20  21
HETATM   21  C2  UNK     1      14.477  12.569  33.088  1.00  0.00     0.137 C 
HETATM   22  C13 UNK     1      12.963  12.543  33.178  1.00  0.00     0.027 C 
ENDBRANCH  20  21
BRANCH  20  23
HETATM   23  C3  UNK     1      15.519  11.793  35.222  1.00  0.00     0.137 C 
HETATM   24  C14 UNK     1      14.355  11.832  36.195  1.00  0.00     0.027 C 
ENDBRANCH  20  23
ENDBRANCH  16  20
BRANCH  18  25
HETATM   25  N6  UNK     1      12.986   7.597  32.301  1.00  0.00    -0.230 N 
HETATM   26  H21 UNK     1      13.046   6.791  31.693  1.00  0.00     0.174 HD
HETATM   27  H22 UNK     1      12.103   7.888  32.697  1.00  0.00     0.174 HD
ENDBRANCH  18  25
ENDBRANCH  12  14
ENDBRANCH   5  12
BRANCH   6  28
HETATM   28  C12 UNK     1      19.495   0.484  30.439  1.00  0.00    -0.020 A 
HETATM   29  C17 UNK     1      19.676  -0.616  31.276  1.00  0.00     0.012 A 
HETATM   30  C20 UNK     1      20.095  -1.836  30.744  1.00  0.00     0.001 A 
HETATM   31  C22 UNK     1      20.332  -1.955  29.374  1.00  0.00     0.000 A 
HETATM   32  C21 UNK     1      20.150  -0.853  28.537  1.00  0.00     0.001 A 
HETATM   33  C18 UNK     1      19.732   0.365  29.069  1.00  0.00     0.012 A 
ENDBRANCH   6  28
TORSDOF 7
ENDMDL
MODEL 9
REMARK VINA RESULT:      -8.7      8.878     13.696
REMARK  7 active torsions:
REMARK  status: ('A' for Active; 'I' for Inactive)
REMARK    1  A    between atoms: C2_10  and  N1_3 
REMARK    2  A    between atoms: C3_11  and  N1_3 
REMARK    3  A    between atoms: C8_16  and  N1_3 
REMARK    4  A    between atoms: C16_24  and  N2_4 
REMARK    5  A    between atoms: C5_13  and  N2_4 
REMARK    6  A    between atoms: C19_27  and  N6_8 
REMARK    7  A    between atoms: C12_20  and  C6_14 
ROOT
HETATM    1  O1  UNK     1      20.527  -2.145  33.027  1.00  0.00    -0.274 OA
HETATM    2  O2  UNK     1      20.886  -1.418  30.896  1.00  0.00    -0.259 OA
HETATM    3  C1  UNK     1      18.854  -1.060  34.412  1.00  0.00    -0.001 A 
HETATM    4  C4  UNK     1      19.826  -2.039  34.243  1.00  0.00     0.091 A 
HETATM    5  C5  UNK     1      19.459  -2.866  36.467  1.00  0.00     0.052 A 
HETATM    6  C6  UNK     1      19.242  -0.244  32.152  1.00  0.00     0.051 A 
HETATM    7  C7  UNK     1      18.581  -0.145  33.315  1.00  0.00     0.032 A 
HETATM    8  C9  UNK     1      20.139  -2.945  35.254  1.00  0.00     0.068 A 
HETATM    9  C10 UNK     1      18.177  -0.986  35.631  1.00  0.00     0.016 A 
HETATM   10  C11 UNK     1      18.479  -1.888  36.656  1.00  0.00     0.031 A 
HETATM   11  C15 UNK     1      20.278  -1.293  31.954  1.00  0.00     0.299 A 
ENDROOT
BRANCH   5  12
HETATM   12  N2  UNK     1      19.759  -3.772  37.505  1.00  0.00    -0.187 N 
HETATM   13  H9  UNK     1      19.251  -3.603  38.368  1.00  0.00     0.184 HD
BRANCH  12  14
HETATM   14  C16 UNK     1      20.512  -4.962  37.545  1.00  0.00     0.758 A 
HETATM   15  N3  UNK     1      20.054  -5.993  36.813  1.00  0.00     0.131 NA
HETATM   16  C8  UNK     1      20.820  -7.092  36.900  1.00  0.00     0.756 A 
HETATM   17  N4  UNK     1      21.944  -7.231  37.622  1.00  0.00     0.131 NA
HETATM   18  C19 UNK     1      22.280  -6.123  38.302  1.00  0.00     0.751 A 
HETATM   19  N5  UNK     1      21.615  -4.956  38.312  1.00  0.00     0.131 NA
BRANCH  16  20
HETATM   20  N1  UNK     1      20.401  -8.217  36.158  1.00  0.00    -0.214 N 
BRANCH  20  21
HETATM   21  C2  UNK     1      21.240  -8.755  35.106  1.00  0.00     0.137 C 
HETATM   22  C13 UNK     1      21.824 -10.087  35.533  1.00  0.00     0.027 C 
ENDBRANCH  20  21
BRANCH  20  23
HETATM   23  C3  UNK     1      19.123  -8.840  36.430  1.00  0.00     0.137 C 
HETATM   24  C14 UNK     1      19.089  -9.365  37.853  1.00  0.00     0.027 C 
ENDBRANCH  20  23
ENDBRANCH  16  20
BRANCH  18  25
HETATM   25  N6  UNK     1      23.452  -6.192  39.086  1.00  0.00    -0.230 N 
HETATM   26  H21 UNK     1      24.291  -5.725  38.768  1.00  0.00     0.174 HD
HETATM   27  H22 UNK     1      23.438  -6.704  39.957  1.00  0.00     0.174 HD
ENDBRANCH  18  25
ENDBRANCH  12  14
ENDBRANCH   5  12
BRANCH   6  28
HETATM   28  C12 UNK     1      18.941   0.718  31.075  1.00  0.00    -0.020 A 
HETATM   29  C17 UNK     1      18.705   2.057  31.383  1.00  0.00     0.012 A 
HETATM   30  C20 UNK     1      18.419   2.967  30.364  1.00  0.00     0.001 A 
HETATM   31  C22 UNK     1      18.368   2.536  29.038  1.00  0.00     0.000 A 
HETATM   32  C21 UNK     1      18.604   1.195  28.731  1.00  0.00     0.001 A 
HETATM   33  C18 UNK     1      18.890   0.287  29.749  1.00  0.00     0.012 A 
ENDBRANCH   6  28
TORSDOF 7
ENDMDL
MODEL 10
REMARK VINA RESULT:      -8.7     14.176     18.270
REMARK  7 active torsions:
REMARK  status: ('A' for Active; 'I' for Inactive)
REMARK    1  A    between atoms: C2_10  and  N1_3 
REMARK    2  A    between atoms: C3_11  and  N1_3 
REMARK    3  A    between atoms: C8_16  and  N1_3 
REMARK    4  A    between atoms: C16_24  and  N2_4 
REMARK    5  A    between atoms: C5_13  and  N2_4 
REMARK    6  A    between atoms: C19_27  and  N6_8 
REMARK    7  A    between atoms: C12_20  and  C6_14 
ROOT
HETATM    1  O1  UNK     1      28.210  -6.146  38.751  1.00  0.00    -0.274 OA
HETATM    2  O2  UNK     1      30.064  -4.870  39.121  1.00  0.00    -0.259 OA
HETATM    3  C1  UNK     1      28.362  -8.129  37.358  1.00  0.00    -0.001 A 
HETATM    4  C4  UNK     1      27.613  -7.273  38.156  1.00  0.00     0.091 A 
HETATM    5  C5  UNK     1      25.642  -8.604  37.827  1.00  0.00     0.052 A 
HETATM    6  C6  UNK     1      30.348  -6.765  37.710  1.00  0.00     0.051 A 
HETATM    7  C7  UNK     1      29.770  -7.835  37.143  1.00  0.00     0.032 A 
HETATM    8  C9  UNK     1      26.259  -7.494  38.400  1.00  0.00     0.068 A 
HETATM    9  C10 UNK     1      27.737  -9.239  36.786  1.00  0.00     0.016 A 
HETATM   10  C11 UNK     1      26.378  -9.475  37.021  1.00  0.00     0.031 A 
HETATM   11  C15 UNK     1      29.559  -5.846  38.575  1.00  0.00     0.299 A 
ENDROOT
BRANCH   5  12
HETATM   12  N2  UNK     1      24.272  -8.848  38.059  1.00  0.00    -0.187 N 
HETATM   13  H9  UNK     1      24.039  -9.033  39.030  1.00  0.00     0.184 HD
BRANCH  12  14
HETATM   14  C16 UNK     1      23.131  -8.738  37.240  1.00  0.00     0.758 A 
HETATM   15  N3  UNK     1      22.323  -7.687  37.466  1.00  0.00     0.131 NA
HETATM   16  C8  UNK     1      21.257  -7.647  36.650  1.00  0.00     0.756 A 
HETATM   17  N4  UNK     1      20.956  -8.528  35.682  1.00  0.00     0.131 NA
HETATM   18  C19 UNK     1      21.850  -9.524  35.570  1.00  0.00     0.751 A 
HETATM   19  N5  UNK     1      22.957  -9.693  36.312  1.00  0.00     0.131 NA
BRANCH  16  20
HETATM   20  N1  UNK     1      20.362  -6.572  36.828  1.00  0.00    -0.214 N 
BRANCH  20  21
HETATM   21  C2  UNK     1      20.525  -5.660  37.943  1.00  0.00     0.137 C 
HETATM   22  C13 UNK     1      20.796  -4.257  37.434  1.00  0.00     0.027 C 
ENDBRANCH  20  21
BRANCH  20  23
HETATM   23  C3  UNK     1      19.261  -6.373  35.908  1.00  0.00     0.137 C 
HETATM   24  C14 UNK     1      17.939  -6.560  36.628  1.00  0.00     0.027 C 
ENDBRANCH  20  23
ENDBRANCH  16  20
BRANCH  18  25
HETATM   25  N6  UNK     1      21.601 -10.491  34.572  1.00  0.00    -0.230 N 
HETATM   26  H21 UNK     1      20.792 -11.093  34.654  1.00  0.00     0.174 HD
HETATM   27  H22 UNK     1      22.232 -10.569  33.787  1.00  0.00     0.174 HD
ENDBRANCH  18  25
ENDBRANCH  12  14
ENDBRANCH   5  12
BRANCH   6  28
HETATM   28  C12 UNK     1      31.775  -6.501  37.450  1.00  0.00    -0.020 A 
HETATM   29  C17 UNK     1      32.749  -7.325  38.012  1.00  0.00     0.012 A 
HETATM   30  C20 UNK     1      34.100  -7.075  37.766  1.00  0.00     0.001 A 
HETATM   31  C22 UNK     1      34.475  -6.001  36.959  1.00  0.00     0.000 A 
HETATM   32  C21 UNK     1      33.499  -5.177  36.397  1.00  0.00     0.001 A 
HETATM   33  C18 UNK     1      32.150  -5.426  36.643  1.00  0.00     0.012 A 
ENDBRANCH   6  28
TORSDOF 7
ENDMDL
