MODEL 1
REMARK VINA RESULT:      -8.4      0.000      0.000
REMARK  3 active torsions:
REMARK  status: ('A' for Active; 'I' for Inactive)
REMARK    1  A    between atoms: C5_9  and  O1_2 
REMARK    2  A    between atoms: C8_12  and  O1_2 
REMARK    3  A    between atoms: C11_15  and  C8_12 
ROOT
HETATM    1 Cl1  UNK     1      20.883   6.181  32.616  1.00  0.00    -0.081 Cl
HETATM    2  O2  UNK     1      17.240   9.208  34.433  1.00  0.00    -0.275 OA
HETATM    3  O3  UNK     1      15.677  10.632  35.304  1.00  0.00    -0.260 OA
HETATM    4  C1  UNK     1      16.514   7.375  32.991  1.00  0.00     0.007 A 
HETATM    5  C2  UNK     1      17.530   8.084  33.634  1.00  0.00     0.092 A 
HETATM    6  C3  UNK     1      15.125   7.825  33.160  1.00  0.00    -0.043 A 
HETATM    7  C4  UNK     1      16.884   6.269  32.213  1.00  0.00     0.053 A 
HETATM    8  C5  UNK     1      18.228   5.897  32.095  1.00  0.00     0.091 A 
HETATM    9  C6  UNK     1      18.874   7.724  33.525  1.00  0.00     0.065 A 
HETATM   10  C7  UNK     1      19.221   6.623  32.750  1.00  0.00     0.070 A 
HETATM   11  C9  UNK     1      14.880   8.898  33.926  1.00  0.00     0.090 A 
HETATM   12  C10 UNK     1      14.010   7.084  32.482  1.00  0.00     0.049 C 
HETATM   13  C12 UNK     1      15.940   9.656  34.611  1.00  0.00     0.288 A 
ENDROOT
BRANCH   8  14
HETATM   14  O1  UNK     1      18.539   4.813  31.327  1.00  0.00    -0.345 OA
BRANCH  14  15
HETATM   15  C8  UNK     1      18.224   3.530  31.862  1.00  0.00     0.214 C 
BRANCH  15  16
HETATM   16  C11 UNK     1      18.466   2.529  30.775  1.00  0.00    -0.034 A 
HETATM   17  C14 UNK     1      17.881   2.710  29.524  1.00  0.00     0.009 A 
HETATM   18  C16 UNK     1      18.106   1.778  28.512  1.00  0.00     0.001 A 
HETATM   19  C17 UNK     1      18.914   0.667  28.755  1.00  0.00     0.000 A 
HETATM   20  C15 UNK     1      19.497   0.489  30.009  1.00  0.00     0.001 A 
HETATM   21  C13 UNK     1      19.272   1.422  31.021  1.00  0.00     0.009 A 
ENDBRANCH  15  16
ENDBRANCH  14  15
ENDBRANCH   8  14
TORSDOF 3
ENDMDL
MODEL 2
REMARK VINA RESULT:      -8.1      3.920      8.731
REMARK  3 active torsions:
REMARK  status: ('A' for Active; 'I' for Inactive)
REMARK    1  A    between atoms: C5_9  and  O1_2 
REMARK    2  A    between atoms: C8_12  and  O1_2 
REMARK    3  A    between atoms: C11_15  and  C8_12 
ROOT
HETATM    1 Cl1  UNK     1      17.495   0.984  35.199  1.00  0.00    -0.081 Cl
HETATM    2  O2  UNK     1      20.212  -2.715  33.037  1.00  0.00    -0.275 OA
HETATM    3  O3  UNK     1      21.433  -4.438  32.160  1.00  0.00    -0.260 OA
HETATM    4  C1  UNK     1      19.653  -0.806  31.621  1.00  0.00     0.007 A 
HETATM    5  C2  UNK     1      19.597  -1.461  32.852  1.00  0.00     0.092 A 
HETATM    6  C3  UNK     1      20.369  -1.450  30.511  1.00  0.00    -0.043 A 
HETATM    7  C4  UNK     1      19.014   0.438  31.517  1.00  0.00     0.053 A 
HETATM    8  C5  UNK     1      18.349   0.994  32.616  1.00  0.00     0.091 A 
HETATM    9  C6  UNK     1      18.937  -0.919  33.956  1.00  0.00     0.065 A 
HETATM   10  C7  UNK     1      18.311   0.316  33.834  1.00  0.00     0.070 A 
HETATM   11  C9  UNK     1      20.944  -2.644  30.717  1.00  0.00     0.090 A 
HETATM   12  C10 UNK     1      20.448  -0.771  29.176  1.00  0.00     0.049 C 
HETATM   13  C12 UNK     1      20.894  -3.348  32.009  1.00  0.00     0.288 A 
ENDROOT
BRANCH   8  14
HETATM   14  O1  UNK     1      17.743   2.207  32.466  1.00  0.00    -0.345 OA
BRANCH  14  15
HETATM   15  C8  UNK     1      18.047   2.938  31.281  1.00  0.00     0.214 C 
BRANCH  15  16
HETATM   16  C11 UNK     1      18.597   4.262  31.712  1.00  0.00    -0.034 A 
HETATM   17  C14 UNK     1      19.424   4.981  30.853  1.00  0.00     0.009 A 
HETATM   18  C16 UNK     1      19.937   6.214  31.255  1.00  0.00     0.001 A 
HETATM   19  C17 UNK     1      19.622   6.723  32.515  1.00  0.00     0.000 A 
HETATM   20  C15 UNK     1      18.794   6.001  33.372  1.00  0.00     0.001 A 
HETATM   21  C13 UNK     1      18.280   4.767  32.970  1.00  0.00     0.009 A 
ENDBRANCH  15  16
ENDBRANCH  14  15
ENDBRANCH   8  14
TORSDOF 3
ENDMDL
MODEL 3
REMARK VINA RESULT:      -8.1      4.518      8.171
REMARK  3 active torsions:
REMARK  status: ('A' for Active; 'I' for Inactive)
REMARK    1  A    between atoms: C5_9  and  O1_2 
REMARK    2  A    between atoms: C8_12  and  O1_2 
REMARK    3  A    between atoms: C11_15  and  C8_12 
ROOT
HETATM    1 Cl1  UNK     1      20.866  -0.582  28.876  1.00  0.00    -0.081 Cl
HETATM    2  O2  UNK     1      20.393  -2.659  33.479  1.00  0.00    -0.275 OA
HETATM    3  O3  UNK     1      20.248  -3.679  35.522  1.00  0.00    -0.260 OA
HETATM    4  C1  UNK     1      19.180  -0.575  33.096  1.00  0.00     0.007 A 
HETATM    5  C2  UNK     1      20.025  -1.588  32.641  1.00  0.00     0.092 A 
HETATM    6  C3  UNK     1      18.676  -0.643  34.475  1.00  0.00    -0.043 A 
HETATM    7  C4  UNK     1      18.862   0.457  32.202  1.00  0.00     0.053 A 
HETATM    8  C5  UNK     1      19.378   0.459  30.901  1.00  0.00     0.091 A 
HETATM    9  C6  UNK     1      20.547  -1.599  31.347  1.00  0.00     0.065 A 
HETATM   10  C7  UNK     1      20.219  -0.567  30.474  1.00  0.00     0.070 A 
HETATM   11  C9  UNK     1      19.044  -1.674  35.249  1.00  0.00     0.090 A 
HETATM   12  C10 UNK     1      17.765   0.431  34.994  1.00  0.00     0.049 C 
HETATM   13  C12 UNK     1      19.934  -2.751  34.785  1.00  0.00     0.288 A 
ENDROOT
BRANCH   8  14
HETATM   14  O1  UNK     1      19.040   1.484  30.067  1.00  0.00    -0.345 OA
BRANCH  14  15
HETATM   15  C8  UNK     1      17.923   2.284  30.447  1.00  0.00     0.214 C 
BRANCH  15  16
HETATM   16  C11 UNK     1      18.455   3.636  30.811  1.00  0.00    -0.034 A 
HETATM   17  C14 UNK     1      19.130   4.394  29.859  1.00  0.00     0.009 A 
HETATM   18  C16 UNK     1      19.626   5.653  30.198  1.00  0.00     0.001 A 
HETATM   19  C17 UNK     1      19.445   6.148  31.490  1.00  0.00     0.000 A 
HETATM   20  C15 UNK     1      18.769   5.385  32.441  1.00  0.00     0.001 A 
HETATM   21  C13 UNK     1      18.273   4.126  32.101  1.00  0.00     0.009 A 
ENDBRANCH  15  16
ENDBRANCH  14  15
ENDBRANCH   8  14
TORSDOF 3
ENDMDL
MODEL 4
REMARK VINA RESULT:      -8.0      2.759      8.096
REMARK  3 active torsions:
REMARK  status: ('A' for Active; 'I' for Inactive)
REMARK    1  A    between atoms: C5_9  and  O1_2 
REMARK    2  A    between atoms: C8_12  and  O1_2 
REMARK    3  A    between atoms: C11_15  and  C8_12 
ROOT
HETATM    1 Cl1  UNK     1      18.650   4.608  29.614  1.00  0.00    -0.081 Cl
HETATM    2  O2  UNK     1      19.981  -0.279  29.895  1.00  0.00    -0.275 OA
HETATM    3  O3  UNK     1      20.622  -2.474  29.918  1.00  0.00    -0.260 OA
HETATM    4  C1  UNK     1      18.895   0.668  31.867  1.00  0.00     0.007 A 
HETATM    5  C2  UNK     1      19.385   0.806  30.568  1.00  0.00     0.092 A 
HETATM    6  C3  UNK     1      19.012  -0.638  32.529  1.00  0.00    -0.043 A 
HETATM    7  C4  UNK     1      18.318   1.796  32.467  1.00  0.00     0.053 A 
HETATM    8  C5  UNK     1      18.239   3.012  31.778  1.00  0.00     0.091 A 
HETATM    9  C6  UNK     1      19.314   2.012  29.868  1.00  0.00     0.065 A 
HETATM   10  C7  UNK     1      18.736   3.119  30.480  1.00  0.00     0.070 A 
HETATM   11  C9  UNK     1      19.584  -1.653  31.865  1.00  0.00     0.090 A 
HETATM   12  C10 UNK     1      18.494  -0.819  33.926  1.00  0.00     0.049 C 
HETATM   13  C12 UNK     1      20.106  -1.523  30.494  1.00  0.00     0.288 A 
ENDROOT
BRANCH   8  14
HETATM   14  O1  UNK     1      17.668   4.081  32.404  1.00  0.00    -0.345 OA
BRANCH  14  15
HETATM   15  C8  UNK     1      18.308   4.555  33.586  1.00  0.00     0.214 C 
BRANCH  15  16
HETATM   16  C11 UNK     1      18.271   6.050  33.536  1.00  0.00    -0.034 A 
HETATM   17  C14 UNK     1      19.246   6.790  34.199  1.00  0.00     0.009 A 
HETATM   18  C16 UNK     1      19.211   8.184  34.154  1.00  0.00     0.001 A 
HETATM   19  C17 UNK     1      18.200   8.832  33.444  1.00  0.00     0.000 A 
HETATM   20  C15 UNK     1      17.225   8.088  32.781  1.00  0.00     0.001 A 
HETATM   21  C13 UNK     1      17.261   6.694  32.827  1.00  0.00     0.009 A 
ENDBRANCH  15  16
ENDBRANCH  14  15
ENDBRANCH   8  14
TORSDOF 3
ENDMDL
MODEL 5
REMARK VINA RESULT:      -8.0      4.991      7.978
REMARK  3 active torsions:
REMARK  status: ('A' for Active; 'I' for Inactive)
REMARK    1  A    between atoms: C5_9  and  O1_2 
REMARK    2  A    between atoms: C8_12  and  O1_2 
REMARK    3  A    between atoms: C11_15  and  C8_12 
ROOT
HETATM    1 Cl1  UNK     1      19.135   0.222  31.165  1.00  0.00    -0.081 Cl
HETATM    2  O2  UNK     1      19.436  -2.346  35.530  1.00  0.00    -0.275 OA
HETATM    3  O3  UNK     1      19.627  -3.585  37.443  1.00  0.00    -0.260 OA
HETATM    4  C1  UNK     1      18.311  -0.180  35.617  1.00  0.00     0.007 A 
HETATM    5  C2  UNK     1      18.982  -1.171  34.899  1.00  0.00     0.092 A 
HETATM    6  C3  UNK     1      18.084  -0.383  37.054  1.00  0.00    -0.043 A 
HETATM    7  C4  UNK     1      17.893   0.960  34.916  1.00  0.00     0.053 A 
HETATM    8  C5  UNK     1      18.143   1.089  33.545  1.00  0.00     0.091 A 
HETATM    9  C6  UNK     1      19.239  -1.056  33.531  1.00  0.00     0.065 A 
HETATM   10  C7  UNK     1      18.815   0.082  32.854  1.00  0.00     0.070 A 
HETATM   11  C9  UNK     1      18.527  -1.511  37.627  1.00  0.00     0.090 A 
HETATM   12  C10 UNK     1      17.364   0.663  37.854  1.00  0.00     0.049 C 
HETATM   13  C12 UNK     1      19.237  -2.566  36.884  1.00  0.00     0.288 A 
ENDROOT
BRANCH   8  14
HETATM   14  O1  UNK     1      17.717   2.216  32.907  1.00  0.00    -0.345 OA
BRANCH  14  15
HETATM   15  C8  UNK     1      18.129   3.465  33.457  1.00  0.00     0.214 C 
BRANCH  15  16
HETATM   16  C11 UNK     1      18.531   4.339  32.309  1.00  0.00    -0.034 A 
HETATM   17  C14 UNK     1      18.795   5.688  32.526  1.00  0.00     0.009 A 
HETATM   18  C16 UNK     1      19.169   6.503  31.457  1.00  0.00     0.001 A 
HETATM   19  C17 UNK     1      19.275   5.963  30.175  1.00  0.00     0.000 A 
HETATM   20  C15 UNK     1      19.010   4.612  29.962  1.00  0.00     0.001 A 
HETATM   21  C13 UNK     1      18.637   3.797  31.032  1.00  0.00     0.009 A 
ENDBRANCH  15  16
ENDBRANCH  14  15
ENDBRANCH   8  14
TORSDOF 3
ENDMDL
MODEL 6
REMARK VINA RESULT:      -8.0      2.641      3.812
REMARK  3 active torsions:
REMARK  status: ('A' for Active; 'I' for Inactive)
REMARK    1  A    between atoms: C5_9  and  O1_2 
REMARK    2  A    between atoms: C8_12  and  O1_2 
REMARK    3  A    between atoms: C11_15  and  C8_12 
ROOT
HETATM    1 Cl1  UNK     1      18.188   1.025  34.305  1.00  0.00    -0.081 Cl
HETATM    2  O2  UNK     1      18.344   6.095  34.375  1.00  0.00    -0.275 OA
HETATM    3  O3  UNK     1      18.413   8.376  34.518  1.00  0.00    -0.260 OA
HETATM    4  C1  UNK     1      18.346   5.036  32.174  1.00  0.00     0.007 A 
HETATM    5  C2  UNK     1      18.321   4.941  33.566  1.00  0.00     0.092 A 
HETATM    6  C3  UNK     1      18.398   6.370  31.559  1.00  0.00    -0.043 A 
HETATM    7  C4  UNK     1      18.322   3.842  31.440  1.00  0.00     0.053 A 
HETATM    8  C5  UNK     1      18.273   2.604  32.092  1.00  0.00     0.091 A 
HETATM    9  C6  UNK     1      18.272   3.714  34.229  1.00  0.00     0.065 A 
HETATM   10  C7  UNK     1      18.247   2.540  33.484  1.00  0.00     0.070 A 
HETATM   11  C9  UNK     1      18.419   7.449  32.354  1.00  0.00     0.090 A 
HETATM   12  C10 UNK     1      18.426   6.505  30.065  1.00  0.00     0.049 C 
HETATM   13  C12 UNK     1      18.393   7.366  33.824  1.00  0.00     0.288 A 
ENDROOT
BRANCH   8  14
HETATM   14  O1  UNK     1      18.251   1.469  31.334  1.00  0.00    -0.345 OA
BRANCH  14  15
HETATM   15  C8  UNK     1      19.260   1.339  30.336  1.00  0.00     0.214 C 
BRANCH  15  16
HETATM   16  C11 UNK     1      19.771  -0.067  30.410  1.00  0.00    -0.034 A 
HETATM   17  C14 UNK     1      20.232  -0.697  29.258  1.00  0.00     0.009 A 
HETATM   18  C16 UNK     1      20.708  -2.006  29.326  1.00  0.00     0.001 A 
HETATM   19  C17 UNK     1      20.721  -2.680  30.548  1.00  0.00     0.000 A 
HETATM   20  C15 UNK     1      20.258  -2.046  31.699  1.00  0.00     0.001 A 
HETATM   21  C13 UNK     1      19.782  -0.736  31.630  1.00  0.00     0.009 A 
ENDBRANCH  15  16
ENDBRANCH  14  15
ENDBRANCH   8  14
TORSDOF 3
ENDMDL
MODEL 7
REMARK VINA RESULT:      -7.8     22.487     24.085
REMARK  3 active torsions:
REMARK  status: ('A' for Active; 'I' for Inactive)
REMARK    1  A    between atoms: C5_9  and  O1_2 
REMARK    2  A    between atoms: C8_12  and  O1_2 
REMARK    3  A    between atoms: C11_15  and  C8_12 
ROOT
HETATM    1 Cl1  UNK     1      10.787   9.037   9.615  1.00  0.00    -0.081 Cl
HETATM    2  O2  UNK     1      15.451  11.019   9.372  1.00  0.00    -0.275 OA
HETATM    3  O3  UNK     1      17.506  12.012   9.239  1.00  0.00    -0.260 OA
HETATM    4  C1  UNK     1      15.306   8.641   9.910  1.00  0.00     0.007 A 
HETATM    5  C2  UNK     1      14.690   9.856   9.604  1.00  0.00     0.092 A 
HETATM    6  C3  UNK     1      16.772   8.594   9.988  1.00  0.00    -0.043 A 
HETATM    7  C4  UNK     1      14.479   7.530  10.128  1.00  0.00     0.053 A 
HETATM    8  C5  UNK     1      13.087   7.646  10.038  1.00  0.00     0.091 A 
HETATM    9  C6  UNK     1      13.303   9.987   9.511  1.00  0.00     0.065 A 
HETATM   10  C7  UNK     1      12.500   8.872   9.729  1.00  0.00     0.070 A 
HETATM   11  C9  UNK     1      17.469   9.717   9.763  1.00  0.00     0.090 A 
HETATM   12  C10 UNK     1      17.464   7.303  10.315  1.00  0.00     0.049 C 
HETATM   13  C12 UNK     1      16.836  11.006   9.440  1.00  0.00     0.288 A 
ENDROOT
BRANCH   8  14
HETATM   14  O1  UNK     1      12.324   6.537  10.258  1.00  0.00    -0.345 OA
BRANCH  14  15
HETATM   15  C8  UNK     1      12.436   5.478   9.311  1.00  0.00     0.214 C 
BRANCH  15  16
HETATM   16  C11 UNK     1      11.464   5.769   8.211  1.00  0.00    -0.034 A 
HETATM   17  C14 UNK     1      10.099   5.806   8.484  1.00  0.00     0.009 A 
HETATM   18  C16 UNK     1       9.193   6.076   7.459  1.00  0.00     0.001 A 
HETATM   19  C17 UNK     1       9.656   6.309   6.163  1.00  0.00     0.000 A 
HETATM   20  C15 UNK     1      11.023   6.271   5.893  1.00  0.00     0.001 A 
HETATM   21  C13 UNK     1      11.929   6.000   6.919  1.00  0.00     0.009 A 
ENDBRANCH  15  16
ENDBRANCH  14  15
ENDBRANCH   8  14
TORSDOF 3
ENDMDL
MODEL 8
REMARK VINA RESULT:      -7.8     14.775     19.636
REMARK  3 active torsions:
REMARK  status: ('A' for Active; 'I' for Inactive)
REMARK    1  A    between atoms: C5_9  and  O1_2 
REMARK    2  A    between atoms: C8_12  and  O1_2 
REMARK    3  A    between atoms: C11_15  and  C8_12 
ROOT
HETATM    1 Cl1  UNK     1      19.366  -0.723  13.977  1.00  0.00    -0.081 Cl
HETATM    2  O2  UNK     1      18.301  -5.621  13.199  1.00  0.00    -0.275 OA
HETATM    3  O3  UNK     1      17.871  -7.822  12.748  1.00  0.00    -0.260 OA
HETATM    4  C1  UNK     1      17.576  -4.676  15.331  1.00  0.00     0.007 A 
HETATM    5  C2  UNK     1      18.200  -4.535  14.090  1.00  0.00     0.092 A 
HETATM    6  C3  UNK     1      17.023  -5.987  15.697  1.00  0.00    -0.043 A 
HETATM    7  C4  UNK     1      17.518  -3.548  16.161  1.00  0.00     0.053 A 
HETATM    8  C5  UNK     1      18.067  -2.328  15.748  1.00  0.00     0.091 A 
HETATM    9  C6  UNK     1      18.752  -3.325  13.666  1.00  0.00     0.065 A 
HETATM   10  C7  UNK     1      18.682  -2.217  14.503  1.00  0.00     0.070 A 
HETATM   11  C9  UNK     1      17.134  -7.003  14.828  1.00  0.00     0.090 A 
HETATM   12  C10 UNK     1      16.346  -6.171  17.023  1.00  0.00     0.049 C 
HETATM   13  C12 UNK     1      17.789  -6.870  13.516  1.00  0.00     0.288 A 
ENDROOT
BRANCH   8  14
HETATM   14  O1  UNK     1      17.985  -1.258  16.591  1.00  0.00    -0.345 OA
BRANCH  14  15
HETATM   15  C8  UNK     1      19.036  -1.103  17.542  1.00  0.00     0.214 C 
BRANCH  15  16
HETATM   16  C11 UNK     1      19.052   0.339  17.947  1.00  0.00    -0.034 A 
HETATM   17  C14 UNK     1      19.098   1.332  16.973  1.00  0.00     0.009 A 
HETATM   18  C16 UNK     1      19.113   2.674  17.350  1.00  0.00     0.001 A 
HETATM   19  C17 UNK     1      19.083   3.018  18.702  1.00  0.00     0.000 A 
HETATM   20  C15 UNK     1      19.037   2.021  19.675  1.00  0.00     0.001 A 
HETATM   21  C13 UNK     1      19.021   0.678  19.297  1.00  0.00     0.009 A 
ENDBRANCH  15  16
ENDBRANCH  14  15
ENDBRANCH   8  14
TORSDOF 3
ENDMDL
MODEL 9
REMARK VINA RESULT:      -7.8      7.686     10.717
REMARK  3 active torsions:
REMARK  status: ('A' for Active; 'I' for Inactive)
REMARK    1  A    between atoms: C5_9  and  O1_2 
REMARK    2  A    between atoms: C8_12  and  O1_2 
REMARK    3  A    between atoms: C11_15  and  C8_12 
ROOT
HETATM    1 Cl1  UNK     1      17.956  -1.065  38.013  1.00  0.00    -0.081 Cl
HETATM    2  O2  UNK     1      18.564   0.030  33.097  1.00  0.00    -0.275 OA
HETATM    3  O3  UNK     1      18.770   0.612  30.895  1.00  0.00    -0.260 OA
HETATM    4  C1  UNK     1      19.755  -1.933  33.931  1.00  0.00     0.007 A 
HETATM    5  C2  UNK     1      18.903  -0.848  34.146  1.00  0.00     0.092 A 
HETATM    6  C3  UNK     1      20.297  -2.146  32.582  1.00  0.00    -0.043 A 
HETATM    7  C4  UNK     1      20.045  -2.758  35.026  1.00  0.00     0.053 A 
HETATM    8  C5  UNK     1      19.493  -2.496  36.285  1.00  0.00     0.091 A 
HETATM    9  C6  UNK     1      18.346  -0.574  35.396  1.00  0.00     0.065 A 
HETATM   10  C7  UNK     1      18.645  -1.406  36.470  1.00  0.00     0.070 A 
HETATM   11  C9  UNK     1      19.957  -1.294  31.604  1.00  0.00     0.090 A 
HETATM   12  C10 UNK     1      21.215  -3.304  32.318  1.00  0.00     0.049 C 
HETATM   13  C12 UNK     1      19.060  -0.145  31.815  1.00  0.00     0.288 A 
ENDROOT
BRANCH   8  14
HETATM   14  O1  UNK     1      19.805  -3.329  37.320  1.00  0.00    -0.345 OA
BRANCH  14  15
HETATM   15  C8  UNK     1      20.781  -4.335  37.067  1.00  0.00     0.214 C 
BRANCH  15  16
HETATM   16  C11 UNK     1      20.210  -5.632  37.549  1.00  0.00    -0.034 A 
HETATM   17  C14 UNK     1      19.274  -6.309  36.771  1.00  0.00     0.009 A 
HETATM   18  C16 UNK     1      18.741  -7.516  37.220  1.00  0.00     0.001 A 
HETATM   19  C17 UNK     1      19.146  -8.043  38.448  1.00  0.00     0.000 A 
HETATM   20  C15 UNK     1      20.082  -7.363  39.224  1.00  0.00     0.001 A 
HETATM   21  C13 UNK     1      20.616  -6.155  38.774  1.00  0.00     0.009 A 
ENDBRANCH  15  16
ENDBRANCH  14  15
ENDBRANCH   8  14
TORSDOF 3
ENDMDL
MODEL 10
REMARK VINA RESULT:      -7.8     22.627     23.841
REMARK  3 active torsions:
REMARK  status: ('A' for Active; 'I' for Inactive)
REMARK    1  A    between atoms: C5_9  and  O1_2 
REMARK    2  A    between atoms: C8_12  and  O1_2 
REMARK    3  A    between atoms: C11_15  and  C8_12 
ROOT
HETATM    1 Cl1  UNK     1      15.597   4.047   9.949  1.00  0.00    -0.081 Cl
HETATM    2  O2  UNK     1      17.627   8.696   9.901  1.00  0.00    -0.275 OA
HETATM    3  O3  UNK     1      18.644  10.744   9.883  1.00  0.00    -0.260 OA
HETATM    4  C1  UNK     1      15.189   8.572   9.819  1.00  0.00     0.007 A 
HETATM    5  C2  UNK     1      16.435   7.945   9.879  1.00  0.00     0.092 A 
HETATM    6  C3  UNK     1      15.140  10.040   9.778  1.00  0.00    -0.043 A 
HETATM    7  C4  UNK     1      14.050   7.755   9.798  1.00  0.00     0.053 A 
HETATM    8  C5  UNK     1      14.170   6.361   9.839  1.00  0.00     0.091 A 
HETATM    9  C6  UNK     1      16.569   6.556   9.919  1.00  0.00     0.065 A 
HETATM   10  C7  UNK     1      15.428   5.763   9.900  1.00  0.00     0.070 A 
HETATM   11  C9  UNK     1      16.291  10.728   9.800  1.00  0.00     0.090 A 
HETATM   12  C10 UNK     1      13.816  10.744   9.714  1.00  0.00     0.049 C 
HETATM   13  C12 UNK     1      17.612  10.082   9.864  1.00  0.00     0.288 A 
ENDROOT
BRANCH   8  14
HETATM   14  O1  UNK     1      13.033   5.607   9.817  1.00  0.00    -0.345 OA
BRANCH  14  15
HETATM   15  C8  UNK     1      12.779   4.855   8.634  1.00  0.00     0.214 C 
BRANCH  15  16
HETATM   16  C11 UNK     1      11.568   5.451   7.986  1.00  0.00    -0.034 A 
HETATM   17  C14 UNK     1      11.616   5.836   6.649  1.00  0.00     0.009 A 
HETATM   18  C16 UNK     1      10.489   6.391   6.045  1.00  0.00     0.001 A 
HETATM   19  C17 UNK     1       9.316   6.561   6.782  1.00  0.00     0.000 A 
HETATM   20  C15 UNK     1       9.271   6.174   8.121  1.00  0.00     0.001 A 
HETATM   21  C13 UNK     1      10.400   5.618   8.724  1.00  0.00     0.009 A 
ENDBRANCH  15  16
ENDBRANCH  14  15
ENDBRANCH   8  14
TORSDOF 3
ENDMDL
