MODEL 1
REMARK VINA RESULT:      -9.2      0.000      0.000
REMARK  6 active torsions:
REMARK  status: ('A' for Active; 'I' for Inactive)
REMARK    1  A    between atoms: C6_13  and  O1_2 
REMARK    2  A    between atoms: C9_16  and  O1_2 
REMARK       I    between atoms: C10_17  and  N1_7 
REMARK    3  A    between atoms: C5_12  and  N1_7 
REMARK    4  A    between atoms: C1_8  and  C3_10 
REMARK    5  A    between atoms: C2_9  and  C6_13 
REMARK    6  A    between atoms: C10_17  and  C11_18 
ROOT
HETATM    1  O4  UNK     1      21.266  -3.843  37.238  1.00  0.00    -0.267 OA
HETATM    2  N1  UNK     1      19.026  -3.763  36.498  1.00  0.00    -0.316 N 
HETATM    3  C10 UNK     1      20.212  -4.371  36.886  1.00  0.00     0.262 C 
HETATM    4  H9  UNK     1      18.243  -4.352  36.228  1.00  0.00     0.169 HD
ENDROOT
BRANCH   2   5
HETATM    5  C5  UNK     1      18.790  -2.387  36.429  1.00  0.00     0.094 A 
HETATM    6  C2  UNK     1      19.145  -1.479  35.484  1.00  0.00     0.080 A 
HETATM    7  C1  UNK     1      18.689  -0.174  35.829  1.00  0.00    -0.027 A 
HETATM    8  C4  UNK     1      18.006  -0.163  37.025  1.00  0.00    -0.012 A 
HETATM    9  S1  UNK     1      17.919  -1.723  37.728  1.00  0.00    -0.076 SA
HETATM   10  C8  UNK     1      17.377   0.978  37.728  1.00  0.00     0.057 C 
BRANCH   6  11
HETATM   11  C6  UNK     1      19.887  -1.818  34.296  1.00  0.00     0.297 C 
HETATM   12  O3  UNK     1      21.048  -2.255  34.306  1.00  0.00    -0.259 OA
BRANCH  11  13
HETATM   13  O1  UNK     1      19.190  -1.616  33.125  1.00  0.00    -0.313 OA
BRANCH  13  14
HETATM   14  C9  UNK     1      19.950  -1.207  31.982  1.00  0.00     0.124 C 
HETATM   15  C14 UNK     1      20.010  -2.353  30.984  1.00  0.00     0.040 C 
HETATM   16  C15 UNK     1      19.316   0.038  31.378  1.00  0.00     0.040 C 
ENDBRANCH  13  14
ENDBRANCH  11  13
ENDBRANCH   6  11
BRANCH   7  17
HETATM   17  C3  UNK     1      18.918   1.035  34.997  1.00  0.00     0.036 C 
HETATM   18  C7  UNK     1      17.684   1.433  34.186  1.00  0.00     0.010 C 
ENDBRANCH   7  17
ENDBRANCH   2   5
BRANCH   3  19
HETATM   19  C11 UNK     1      20.116  -5.835  36.843  1.00  0.00     0.108 A 
HETATM   20  C13 UNK     1      19.978  -6.454  38.021  1.00  0.00     0.037 A 
HETATM   21  C12 UNK     1      19.876  -7.904  38.081  1.00  0.00    -0.001 A 
HETATM   22  C16 UNK     1      19.924  -8.631  36.896  1.00  0.00     0.089 A 
HETATM   23  C18 UNK     1      19.732  -8.591  39.289  1.00  0.00     0.014 A 
HETATM   24  O2  UNK     1      20.068  -7.974  35.659  1.00  0.00    -0.274 OA
HETATM   25  C19 UNK     1      19.831 -10.021  36.884  1.00  0.00     0.038 A 
HETATM   26  C17 UNK     1      20.169  -6.589  35.570  1.00  0.00     0.304 A 
HETATM   27  O5  UNK     1      20.295  -6.025  34.488  1.00  0.00    -0.259 OA
HETATM   28  C21 UNK     1      19.688 -10.699  38.092  1.00  0.00     0.003 A 
HETATM   29  C20 UNK     1      19.638  -9.986  39.293  1.00  0.00     0.001 A 
ENDBRANCH   3  19
TORSDOF 6
ENDMDL
MODEL 2
REMARK VINA RESULT:      -8.7     17.268     21.320
REMARK  6 active torsions:
REMARK  status: ('A' for Active; 'I' for Inactive)
REMARK    1  A    between atoms: C6_13  and  O1_2 
REMARK    2  A    between atoms: C9_16  and  O1_2 
REMARK       I    between atoms: C10_17  and  N1_7 
REMARK    3  A    between atoms: C5_12  and  N1_7 
REMARK    4  A    between atoms: C1_8  and  C3_10 
REMARK    5  A    between atoms: C2_9  and  C6_13 
REMARK    6  A    between atoms: C10_17  and  C11_18 
ROOT
HETATM    1  O4  UNK     1      17.666  -2.047  15.892  1.00  0.00    -0.267 OA
HETATM    2  N1  UNK     1      19.728  -1.518  14.873  1.00  0.00    -0.316 N 
HETATM    3  C10 UNK     1      18.707  -1.397  15.805  1.00  0.00     0.262 C 
HETATM    4  H9  UNK     1      20.524  -0.890  14.940  1.00  0.00     0.169 HD
ENDROOT
BRANCH   2   5
HETATM    5  C5  UNK     1      19.776  -2.433  13.817  1.00  0.00     0.094 A 
HETATM    6  C2  UNK     1      20.243  -3.707  13.776  1.00  0.00     0.080 A 
HETATM    7  C1  UNK     1      20.090  -4.269  12.476  1.00  0.00    -0.027 A 
HETATM    8  C4  UNK     1      19.510  -3.383  11.594  1.00  0.00    -0.012 A 
HETATM    9  S1  UNK     1      19.153  -1.881  12.335  1.00  0.00    -0.076 SA
HETATM   10  C8  UNK     1      19.180  -3.576  10.164  1.00  0.00     0.057 C 
BRANCH   6  11
HETATM   11  C6  UNK     1      20.815  -4.379  14.916  1.00  0.00     0.297 C 
HETATM   12  O3  UNK     1      20.254  -5.300  15.529  1.00  0.00    -0.259 OA
BRANCH  11  13
HETATM   13  O1  UNK     1      22.059  -3.910  15.276  1.00  0.00    -0.313 OA
BRANCH  13  14
HETATM   14  C9  UNK     1      22.495  -4.191  16.611  1.00  0.00     0.124 C 
HETATM   15  C14 UNK     1      24.015  -4.238  16.642  1.00  0.00     0.040 C 
HETATM   16  C15 UNK     1      21.941  -3.133  17.553  1.00  0.00     0.040 C 
ENDBRANCH  13  14
ENDBRANCH  11  13
ENDBRANCH   6  11
BRANCH   7  17
HETATM   17  C3  UNK     1      20.505  -5.647  12.111  1.00  0.00     0.036 C 
HETATM   18  C7  UNK     1      19.377  -6.665  12.284  1.00  0.00     0.010 C 
ENDBRANCH   7  17
ENDBRANCH   2   5
BRANCH   3  19
HETATM   19  C11 UNK     1      18.978  -0.332  16.778  1.00  0.00     0.108 A 
HETATM   20  C13 UNK     1      18.966  -0.692  18.067  1.00  0.00     0.037 A 
HETATM   21  C12 UNK     1      19.222   0.294  19.106  1.00  0.00    -0.001 A 
HETATM   22  C16 UNK     1      19.478   1.611  18.736  1.00  0.00     0.089 A 
HETATM   23  C18 UNK     1      19.219  -0.036  20.463  1.00  0.00     0.014 A 
HETATM   24  O2  UNK     1      19.489   1.983  17.377  1.00  0.00    -0.274 OA
HETATM   25  C19 UNK     1      19.731   2.603  19.681  1.00  0.00     0.038 A 
HETATM   26  C17 UNK     1      19.248   1.062  16.362  1.00  0.00     0.304 A 
HETATM   27  O5  UNK     1      19.260   1.396  15.181  1.00  0.00    -0.259 OA
HETATM   28  C21 UNK     1      19.725   2.265  21.032  1.00  0.00     0.003 A 
HETATM   29  C20 UNK     1      19.471   0.948  21.423  1.00  0.00     0.001 A 
ENDBRANCH   3  19
TORSDOF 6
ENDMDL
MODEL 3
REMARK VINA RESULT:      -8.5      7.953     10.606
REMARK  6 active torsions:
REMARK  status: ('A' for Active; 'I' for Inactive)
REMARK    1  A    between atoms: C6_13  and  O1_2 
REMARK    2  A    between atoms: C9_16  and  O1_2 
REMARK       I    between atoms: C10_17  and  N1_7 
REMARK    3  A    between atoms: C5_12  and  N1_7 
REMARK    4  A    between atoms: C1_8  and  C3_10 
REMARK    5  A    between atoms: C2_9  and  C6_13 
REMARK    6  A    between atoms: C10_17  and  C11_18 
ROOT
HETATM    1  O4  UNK     1      17.544   3.909  32.822  1.00  0.00    -0.267 OA
HETATM    2  N1  UNK     1      19.098   5.232  31.637  1.00  0.00    -0.316 N 
HETATM    3  C10 UNK     1      18.369   4.088  31.927  1.00  0.00     0.262 C 
HETATM    4  H9  UNK     1      19.750   5.209  30.858  1.00  0.00     0.169 HD
ENDROOT
BRANCH   2   5
HETATM    5  C5  UNK     1      19.033   6.447  32.326  1.00  0.00     0.094 A 
HETATM    6  C2  UNK     1      18.079   7.412  32.321  1.00  0.00     0.080 A 
HETATM    7  C1  UNK     1      18.433   8.490  33.184  1.00  0.00    -0.027 A 
HETATM    8  C4  UNK     1      19.647   8.281  33.801  1.00  0.00    -0.012 A 
HETATM    9  S1  UNK     1      20.354   6.790  33.338  1.00  0.00    -0.076 SA
HETATM   10  C8  UNK     1      20.364   9.149  34.762  1.00  0.00     0.057 C 
BRANCH   6  11
HETATM   11  C6  UNK     1      16.872   7.332  31.537  1.00  0.00     0.297 C 
HETATM   12  O3  UNK     1      16.759   7.792  30.391  1.00  0.00    -0.259 OA
BRANCH  11  13
HETATM   13  O1  UNK     1      15.833   6.689  32.175  1.00  0.00    -0.313 OA
BRANCH  13  14
HETATM   14  C9  UNK     1      14.755   7.508  32.643  1.00  0.00     0.124 C 
HETATM   15  C14 UNK     1      13.523   7.251  31.790  1.00  0.00     0.040 C 
HETATM   16  C15 UNK     1      14.501   7.208  34.113  1.00  0.00     0.040 C 
ENDBRANCH  13  14
ENDBRANCH  11  13
ENDBRANCH   6  11
BRANCH   7  17
HETATM   17  C3  UNK     1      17.594   9.696  33.396  1.00  0.00     0.036 C 
HETATM   18  C7  UNK     1      16.782   9.627  34.690  1.00  0.00     0.010 C 
ENDBRANCH   7  17
ENDBRANCH   2   5
BRANCH   3  19
HETATM   19  C11 UNK     1      18.681   2.991  31.003  1.00  0.00     0.108 A 
HETATM   20  C13 UNK     1      19.054   1.834  31.562  1.00  0.00     0.037 A 
HETATM   21  C12 UNK     1      19.385   0.689  30.727  1.00  0.00    -0.001 A 
HETATM   22  C16 UNK     1      19.306   0.819  29.344  1.00  0.00     0.089 A 
HETATM   23  C18 UNK     1      19.779  -0.537  31.267  1.00  0.00     0.014 A 
HETATM   24  O2  UNK     1      18.913   2.040  28.762  1.00  0.00    -0.274 OA
HETATM   25  C19 UNK     1      19.609  -0.238  28.489  1.00  0.00     0.038 A 
HETATM   26  C17 UNK     1      18.591   3.152  29.534  1.00  0.00     0.304 A 
HETATM   27  O5  UNK     1      18.249   4.212  29.017  1.00  0.00    -0.259 OA
HETATM   28  C21 UNK     1      20.002  -1.457  29.036  1.00  0.00     0.003 A 
HETATM   29  C20 UNK     1      20.086  -1.608  30.422  1.00  0.00     0.001 A 
ENDBRANCH   3  19
TORSDOF 6
ENDMDL
MODEL 4
REMARK VINA RESULT:      -8.4      6.400     11.940
REMARK  6 active torsions:
REMARK  status: ('A' for Active; 'I' for Inactive)
REMARK    1  A    between atoms: C6_13  and  O1_2 
REMARK    2  A    between atoms: C9_16  and  O1_2 
REMARK       I    between atoms: C10_17  and  N1_7 
REMARK    3  A    between atoms: C5_12  and  N1_7 
REMARK    4  A    between atoms: C1_8  and  C3_10 
REMARK    5  A    between atoms: C2_9  and  C6_13 
REMARK    6  A    between atoms: C10_17  and  C11_18 
ROOT
HETATM    1  O4  UNK     1      19.689   5.403  31.785  1.00  0.00    -0.267 OA
HETATM    2  N1  UNK     1      17.910   3.978  32.397  1.00  0.00    -0.316 N 
HETATM    3  C10 UNK     1      18.604   5.177  32.319  1.00  0.00     0.262 C 
HETATM    4  H9  UNK     1      17.019   3.963  32.887  1.00  0.00     0.169 HD
ENDROOT
BRANCH   2   5
HETATM    5  C5  UNK     1      18.321   2.752  31.865  1.00  0.00     0.094 A 
HETATM    6  C2  UNK     1      18.477   1.542  32.461  1.00  0.00     0.080 A 
HETATM    7  C1  UNK     1      18.919   0.562  31.526  1.00  0.00    -0.027 A 
HETATM    8  C4  UNK     1      19.075   1.086  30.262  1.00  0.00    -0.012 A 
HETATM    9  S1  UNK     1      18.690   2.755  30.207  1.00  0.00    -0.076 SA
HETATM   10  C8  UNK     1      19.512   0.408  29.021  1.00  0.00     0.057 C 
BRANCH   6  11
HETATM   11  C6  UNK     1      18.220   1.307  33.860  1.00  0.00     0.297 C 
HETATM   12  O3  UNK     1      19.079   1.409  34.748  1.00  0.00    -0.259 OA
BRANCH  11  13
HETATM   13  O1  UNK     1      16.917   0.954  34.138  1.00  0.00    -0.313 OA
BRANCH  13  14
HETATM   14  C9  UNK     1      16.713   0.019  35.204  1.00  0.00     0.124 C 
HETATM   15  C14 UNK     1      15.881   0.677  36.294  1.00  0.00     0.040 C 
HETATM   16  C15 UNK     1      16.041  -1.230  34.653  1.00  0.00     0.040 C 
ENDBRANCH  13  14
ENDBRANCH  11  13
ENDBRANCH   6  11
BRANCH   7  17
HETATM   17  C3  UNK     1      19.180  -0.859  31.870  1.00  0.00     0.036 C 
HETATM   18  C7  UNK     1      20.626  -1.274  31.593  1.00  0.00     0.010 C 
ENDBRANCH   7  17
ENDBRANCH   2   5
BRANCH   3  19
HETATM   19  C11 UNK     1      17.885   6.270  32.986  1.00  0.00     0.108 A 
HETATM   20  C13 UNK     1      16.663   6.546  32.519  1.00  0.00     0.037 A 
HETATM   21  C12 UNK     1      15.874   7.613  33.115  1.00  0.00    -0.001 A 
HETATM   22  C16 UNK     1      16.411   8.337  34.174  1.00  0.00     0.089 A 
HETATM   23  C18 UNK     1      14.593   7.936  32.660  1.00  0.00     0.014 A 
HETATM   24  O2  UNK     1      17.699   8.041  34.662  1.00  0.00    -0.274 OA
HETATM   25  C19 UNK     1      15.709   9.370  34.790  1.00  0.00     0.038 A 
HETATM   26  C17 UNK     1      18.478   7.026  34.112  1.00  0.00     0.304 A 
HETATM   27  O5  UNK     1      19.599   6.776  34.544  1.00  0.00    -0.259 OA
HETATM   28  C21 UNK     1      14.433   9.686  34.329  1.00  0.00     0.003 A 
HETATM   29  C20 UNK     1      13.875   8.971  33.267  1.00  0.00     0.001 A 
ENDBRANCH   3  19
TORSDOF 6
ENDMDL
MODEL 5
REMARK VINA RESULT:      -8.4      1.780      2.287
REMARK  6 active torsions:
REMARK  status: ('A' for Active; 'I' for Inactive)
REMARK    1  A    between atoms: C6_13  and  O1_2 
REMARK    2  A    between atoms: C9_16  and  O1_2 
REMARK       I    between atoms: C10_17  and  N1_7 
REMARK    3  A    between atoms: C5_12  and  N1_7 
REMARK    4  A    between atoms: C1_8  and  C3_10 
REMARK    5  A    between atoms: C2_9  and  C6_13 
REMARK    6  A    between atoms: C10_17  and  C11_18 
ROOT
HETATM    1  O4  UNK     1      18.275  -5.360  36.483  1.00  0.00    -0.267 OA
HETATM    2  N1  UNK     1      20.057  -3.817  36.377  1.00  0.00    -0.316 N 
HETATM    3  C10 UNK     1      19.471  -5.069  36.493  1.00  0.00     0.262 C 
HETATM    4  H9  UNK     1      21.071  -3.749  36.412  1.00  0.00     0.169 HD
ENDROOT
BRANCH   2   5
HETATM    5  C5  UNK     1      19.383  -2.602  36.218  1.00  0.00     0.094 A 
HETATM    6  C2  UNK     1      19.356  -1.741  35.169  1.00  0.00     0.080 A 
HETATM    7  C1  UNK     1      18.527  -0.616  35.449  1.00  0.00    -0.027 A 
HETATM    8  C4  UNK     1      17.966  -0.686  36.705  1.00  0.00    -0.012 A 
HETATM    9  S1  UNK     1      18.440  -2.104  37.541  1.00  0.00    -0.076 SA
HETATM   10  C8  UNK     1      17.053   0.269  37.372  1.00  0.00     0.057 C 
BRANCH   6  11
HETATM   11  C6  UNK     1      20.080  -1.961  33.942  1.00  0.00     0.297 C 
HETATM   12  O3  UNK     1      21.257  -2.349  33.893  1.00  0.00    -0.259 OA
BRANCH  11  13
HETATM   13  O1  UNK     1      19.345  -1.701  32.805  1.00  0.00    -0.313 OA
BRANCH  13  14
HETATM   14  C9  UNK     1      20.062  -1.194  31.673  1.00  0.00     0.124 C 
HETATM   15  C14 UNK     1      20.135  -2.272  30.603  1.00  0.00     0.040 C 
HETATM   16  C15 UNK     1      19.374   0.064  31.166  1.00  0.00     0.040 C 
ENDBRANCH  13  14
ENDBRANCH  11  13
ENDBRANCH   6  11
BRANCH   7  17
HETATM   17  C3  UNK     1      18.292   0.501  34.500  1.00  0.00     0.036 C 
HETATM   18  C7  UNK     1      18.720   1.855  35.068  1.00  0.00     0.010 C 
ENDBRANCH   7  17
ENDBRANCH   2   5
BRANCH   3  19
HETATM   19  C11 UNK     1      20.472  -6.130  36.647  1.00  0.00     0.108 A 
HETATM   20  C13 UNK     1      20.349  -7.183  35.831  1.00  0.00     0.037 A 
HETATM   21  C12 UNK     1      21.294  -8.286  35.909  1.00  0.00    -0.001 A 
HETATM   22  C16 UNK     1      22.322  -8.227  36.844  1.00  0.00     0.089 A 
HETATM   23  C18 UNK     1      21.203  -9.405  35.077  1.00  0.00     0.014 A 
HETATM   24  O2  UNK     1      22.447  -7.116  37.701  1.00  0.00    -0.274 OA
HETATM   25  C19 UNK     1      23.260  -9.250  36.971  1.00  0.00     0.038 A 
HETATM   26  C17 UNK     1      21.558  -6.046  37.649  1.00  0.00     0.304 A 
HETATM   27  O5  UNK     1      21.675  -5.082  38.400  1.00  0.00    -0.259 OA
HETATM   28  C21 UNK     1      23.162 -10.362  36.137  1.00  0.00     0.003 A 
HETATM   29  C20 UNK     1      22.137 -10.440  35.192  1.00  0.00     0.001 A 
ENDBRANCH   3  19
TORSDOF 6
ENDMDL
MODEL 6
REMARK VINA RESULT:      -8.3      2.267      8.296
REMARK  6 active torsions:
REMARK  status: ('A' for Active; 'I' for Inactive)
REMARK    1  A    between atoms: C6_13  and  O1_2 
REMARK    2  A    between atoms: C9_16  and  O1_2 
REMARK       I    between atoms: C10_17  and  N1_7 
REMARK    3  A    between atoms: C5_12  and  N1_7 
REMARK    4  A    between atoms: C1_8  and  C3_10 
REMARK    5  A    between atoms: C2_9  and  C6_13 
REMARK    6  A    between atoms: C10_17  and  C11_18 
ROOT
HETATM    1  O4  UNK     1      21.633  -4.449  37.154  1.00  0.00    -0.267 OA
HETATM    2  N1  UNK     1      19.984  -5.550  35.873  1.00  0.00    -0.316 N 
HETATM    3  C10 UNK     1      20.631  -4.461  36.439  1.00  0.00     0.262 C 
HETATM    4  H9  UNK     1      19.156  -5.384  35.307  1.00  0.00     0.169 HD
ENDROOT
BRANCH   2   5
HETATM    5  C5  UNK     1      20.357  -6.891  36.007  1.00  0.00     0.094 A 
HETATM    6  C2  UNK     1      20.371  -7.696  37.100  1.00  0.00     0.080 A 
HETATM    7  C1  UNK     1      20.830  -9.003  36.770  1.00  0.00    -0.027 A 
HETATM    8  C4  UNK     1      21.142  -9.120  35.433  1.00  0.00    -0.012 A 
HETATM    9  S1  UNK     1      20.881  -7.656  34.583  1.00  0.00    -0.076 SA
HETATM   10  C8  UNK     1      21.645 -10.300  34.694  1.00  0.00     0.057 C 
BRANCH   6  11
HETATM   11  C6  UNK     1      19.968  -7.258  38.413  1.00  0.00     0.297 C 
HETATM   12  O3  UNK     1      18.823  -7.402  38.869  1.00  0.00    -0.259 OA
BRANCH  11  13
HETATM   13  O1  UNK     1      20.975  -6.657  39.136  1.00  0.00    -0.313 OA
BRANCH  13  14
HETATM   14  C9  UNK     1      22.252  -7.305  39.130  1.00  0.00     0.124 C 
HETATM   15  C14 UNK     1      23.346  -6.258  39.270  1.00  0.00     0.040 C 
HETATM   16  C15 UNK     1      22.299  -8.329  40.254  1.00  0.00     0.040 C 
ENDBRANCH  13  14
ENDBRANCH  11  13
ENDBRANCH   6  11
BRANCH   7  17
HETATM   17  C3  UNK     1      20.958 -10.113  37.748  1.00  0.00     0.036 C 
HETATM   18  C7  UNK     1      19.679 -10.943  37.865  1.00  0.00     0.010 C 
ENDBRANCH   7  17
ENDBRANCH   2   5
BRANCH   3  19
HETATM   19  C11 UNK     1      19.974  -3.194  36.096  1.00  0.00     0.108 A 
HETATM   20  C13 UNK     1      19.259  -2.617  37.068  1.00  0.00     0.037 A 
HETATM   21  C12 UNK     1      18.569  -1.359  36.823  1.00  0.00    -0.001 A 
HETATM   22  C16 UNK     1      18.667  -0.772  35.565  1.00  0.00     0.089 A 
HETATM   23  C18 UNK     1      17.811  -0.721  37.807  1.00  0.00     0.014 A 
HETATM   24  O2  UNK     1      19.422  -1.385  34.546  1.00  0.00    -0.274 OA
HETATM   25  C19 UNK     1      18.031   0.431  35.265  1.00  0.00     0.038 A 
HETATM   26  C17 UNK     1      20.092  -2.588  34.751  1.00  0.00     0.304 A 
HETATM   27  O5  UNK     1      20.746  -3.114  33.857  1.00  0.00    -0.259 OA
HETATM   28  C21 UNK     1      17.277   1.061  36.253  1.00  0.00     0.003 A 
HETATM   29  C20 UNK     1      17.167   0.487  37.522  1.00  0.00     0.001 A 
ENDBRANCH   3  19
TORSDOF 6
ENDMDL
MODEL 7
REMARK VINA RESULT:      -8.2      2.344      4.490
REMARK  6 active torsions:
REMARK  status: ('A' for Active; 'I' for Inactive)
REMARK    1  A    between atoms: C6_13  and  O1_2 
REMARK    2  A    between atoms: C9_16  and  O1_2 
REMARK       I    between atoms: C10_17  and  N1_7 
REMARK    3  A    between atoms: C5_12  and  N1_7 
REMARK    4  A    between atoms: C1_8  and  C3_10 
REMARK    5  A    between atoms: C2_9  and  C6_13 
REMARK    6  A    between atoms: C10_17  and  C11_18 
ROOT
HETATM    1  O4  UNK     1      21.601  -1.947  34.843  1.00  0.00    -0.267 OA
HETATM    2  N1  UNK     1      19.681  -2.568  33.620  1.00  0.00    -0.316 N 
HETATM    3  C10 UNK     1      20.603  -2.642  34.653  1.00  0.00     0.262 C 
HETATM    4  H9  UNK     1      18.909  -3.229  33.609  1.00  0.00     0.169 HD
ENDROOT
BRANCH   2   5
HETATM    5  C5  UNK     1      19.705  -1.660  32.557  1.00  0.00     0.094 A 
HETATM    6  C2  UNK     1      19.183  -0.411  32.454  1.00  0.00     0.080 A 
HETATM    7  C1  UNK     1      19.450   0.154  31.173  1.00  0.00    -0.027 A 
HETATM    8  C4  UNK     1      20.166  -0.705  30.368  1.00  0.00    -0.012 A 
HETATM    9  S1  UNK     1      20.512  -2.186  31.157  1.00  0.00    -0.076 SA
HETATM   10  C8  UNK     1      20.641  -0.501  28.981  1.00  0.00     0.057 C 
BRANCH   6  11
HETATM   11  C6  UNK     1      18.459   0.237  33.519  1.00  0.00     0.297 C 
HETATM   12  O3  UNK     1      18.726   1.369  33.949  1.00  0.00    -0.259 OA
BRANCH  11  13
HETATM   13  O1  UNK     1      17.424  -0.517  34.030  1.00  0.00    -0.313 OA
BRANCH  13  14
HETATM   14  C9  UNK     1      17.061  -0.276  35.394  1.00  0.00     0.124 C 
HETATM   15  C14 UNK     1      15.609   0.173  35.454  1.00  0.00     0.040 C 
HETATM   16  C15 UNK     1      17.297  -1.541  36.206  1.00  0.00     0.040 C 
ENDBRANCH  13  14
ENDBRANCH  11  13
ENDBRANCH   6  11
BRANCH   7  17
HETATM   17  C3  UNK     1      19.012   1.509  30.754  1.00  0.00     0.036 C 
HETATM   18  C7  UNK     1      18.143   1.482  29.495  1.00  0.00     0.010 C 
ENDBRANCH   7  17
ENDBRANCH   2   5
BRANCH   3  19
HETATM   19  C11 UNK     1      20.278  -3.713  35.602  1.00  0.00     0.108 A 
HETATM   20  C13 UNK     1      20.062  -4.924  35.076  1.00  0.00     0.037 A 
HETATM   21  C12 UNK     1      19.732  -6.049  35.937  1.00  0.00    -0.001 A 
HETATM   22  C16 UNK     1      19.646  -5.844  37.310  1.00  0.00     0.089 A 
HETATM   23  C18 UNK     1      19.498  -7.331  35.432  1.00  0.00     0.014 A 
HETATM   24  O2  UNK     1      19.875  -4.567  37.858  1.00  0.00    -0.274 OA
HETATM   25  C19 UNK     1      19.334  -6.879  38.190  1.00  0.00     0.038 A 
HETATM   26  C17 UNK     1      20.192  -3.471  37.060  1.00  0.00     0.304 A 
HETATM   27  O5  UNK     1      20.389  -2.362  37.547  1.00  0.00    -0.259 OA
HETATM   28  C21 UNK     1      19.102  -8.153  37.677  1.00  0.00     0.003 A 
HETATM   29  C20 UNK     1      19.184  -8.379  36.301  1.00  0.00     0.001 A 
ENDBRANCH   3  19
TORSDOF 6
ENDMDL
MODEL 8
REMARK VINA RESULT:      -8.1      2.255      7.941
REMARK  6 active torsions:
REMARK  status: ('A' for Active; 'I' for Inactive)
REMARK    1  A    between atoms: C6_13  and  O1_2 
REMARK    2  A    between atoms: C9_16  and  O1_2 
REMARK       I    between atoms: C10_17  and  N1_7 
REMARK    3  A    between atoms: C5_12  and  N1_7 
REMARK    4  A    between atoms: C1_8  and  C3_10 
REMARK    5  A    between atoms: C2_9  and  C6_13 
REMARK    6  A    between atoms: C10_17  and  C11_18 
ROOT
HETATM    1  O4  UNK     1      18.390  -4.903  36.899  1.00  0.00    -0.267 OA
HETATM    2  N1  UNK     1      20.722  -4.542  36.953  1.00  0.00    -0.316 N 
HETATM    3  C10 UNK     1      19.390  -4.196  36.778  1.00  0.00     0.262 C 
HETATM    4  H9  UNK     1      21.433  -3.830  36.805  1.00  0.00     0.169 HD
ENDROOT
BRANCH   2   5
HETATM    5  C5  UNK     1      21.205  -5.803  37.314  1.00  0.00     0.094 A 
HETATM    6  C2  UNK     1      21.151  -6.989  36.655  1.00  0.00     0.080 A 
HETATM    7  C1  UNK     1      21.779  -8.024  37.406  1.00  0.00    -0.027 A 
HETATM    8  C4  UNK     1      22.280  -7.563  38.603  1.00  0.00    -0.012 A 
HETATM    9  S1  UNK     1      21.991  -5.888  38.818  1.00  0.00    -0.076 SA
HETATM   10  C8  UNK     1      22.998  -8.310  39.660  1.00  0.00     0.057 C 
BRANCH   6  11
HETATM   11  C6  UNK     1      20.532  -7.151  35.363  1.00  0.00     0.297 C 
HETATM   12  O3  UNK     1      20.807  -6.457  34.372  1.00  0.00    -0.259 OA
BRANCH  11  13
HETATM   13  O1  UNK     1      19.593  -8.158  35.315  1.00  0.00    -0.313 OA
BRANCH  13  14
HETATM   14  C9  UNK     1      18.453  -8.021  36.170  1.00  0.00     0.124 C 
HETATM   15  C14 UNK     1      17.215  -7.783  35.319  1.00  0.00     0.040 C 
HETATM   16  C15 UNK     1      18.318  -9.269  37.030  1.00  0.00     0.040 C 
ENDBRANCH  13  14
ENDBRANCH  11  13
ENDBRANCH   6  11
BRANCH   7  17
HETATM   17  C3  UNK     1      21.884  -9.434  36.953  1.00  0.00     0.036 C 
HETATM   18  C7  UNK     1      23.214  -9.730  36.257  1.00  0.00     0.010 C 
ENDBRANCH   7  17
ENDBRANCH   2   5
BRANCH   3  19
HETATM   19  C11 UNK     1      19.235  -2.786  36.399  1.00  0.00     0.108 A 
HETATM   20  C13 UNK     1      18.433  -2.049  37.174  1.00  0.00     0.037 A 
HETATM   21  C12 UNK     1      18.216  -0.641  36.877  1.00  0.00    -0.001 A 
HETATM   22  C16 UNK     1      18.856  -0.079  35.777  1.00  0.00     0.089 A 
HETATM   23  C18 UNK     1      17.387   0.166  37.659  1.00  0.00     0.014 A 
HETATM   24  O2  UNK     1      19.701  -0.861  34.964  1.00  0.00    -0.274 OA
HETATM   25  C19 UNK     1      18.692   1.262  35.437  1.00  0.00     0.038 A 
HETATM   26  C17 UNK     1      19.927  -2.210  35.223  1.00  0.00     0.304 A 
HETATM   27  O5  UNK     1      20.663  -2.883  34.509  1.00  0.00    -0.259 OA
HETATM   28  C21 UNK     1      17.863   2.060  36.222  1.00  0.00     0.003 A 
HETATM   29  C20 UNK     1      17.212   1.514  37.332  1.00  0.00     0.001 A 
ENDBRANCH   3  19
TORSDOF 6
ENDMDL
MODEL 9
REMARK VINA RESULT:      -7.9     28.876     31.498
REMARK  6 active torsions:
REMARK  status: ('A' for Active; 'I' for Inactive)
REMARK    1  A    between atoms: C6_13  and  O1_2 
REMARK    2  A    between atoms: C9_16  and  O1_2 
REMARK       I    between atoms: C10_17  and  N1_7 
REMARK    3  A    between atoms: C5_12  and  N1_7 
REMARK    4  A    between atoms: C1_8  and  C3_10 
REMARK    5  A    between atoms: C2_9  and  C6_13 
REMARK    6  A    between atoms: C10_17  and  C11_18 
ROOT
HETATM    1  O4  UNK     1      14.294   8.400  10.646  1.00  0.00    -0.267 OA
HETATM    2  N1  UNK     1      13.404   9.097   8.574  1.00  0.00    -0.316 N 
HETATM    3  C10 UNK     1      14.368   8.986   9.566  1.00  0.00     0.262 C 
HETATM    4  H9  UNK     1      13.628   9.628   7.737  1.00  0.00     0.169 HD
ENDROOT
BRANCH   2   5
HETATM    5  C5  UNK     1      12.119   8.547   8.607  1.00  0.00     0.094 A 
HETATM    6  C2  UNK     1      11.605   7.471   7.958  1.00  0.00     0.080 A 
HETATM    7  C1  UNK     1      10.235   7.274   8.295  1.00  0.00    -0.027 A 
HETATM    8  C4  UNK     1       9.781   8.218   9.189  1.00  0.00    -0.012 A 
HETATM    9  S1  UNK     1      11.005   9.337   9.618  1.00  0.00    -0.076 SA
HETATM   10  C8  UNK     1       8.434   8.363   9.786  1.00  0.00     0.057 C 
BRANCH   6  11
HETATM   11  C6  UNK     1      12.369   6.652   7.051  1.00  0.00     0.297 C 
HETATM   12  O3  UNK     1      12.065   6.466   5.863  1.00  0.00    -0.259 OA
BRANCH  11  13
HETATM   13  O1  UNK     1      13.488   6.082   7.619  1.00  0.00    -0.313 OA
BRANCH  13  14
HETATM   14  C9  UNK     1      13.289   5.326   8.820  1.00  0.00     0.124 C 
HETATM   15  C14 UNK     1      12.470   4.085   8.500  1.00  0.00     0.040 C 
HETATM   16  C15 UNK     1      14.642   4.974   9.420  1.00  0.00     0.040 C 
ENDBRANCH  13  14
ENDBRANCH  11  13
ENDBRANCH   6  11
BRANCH   7  17
HETATM   17  C3  UNK     1       9.393   6.180   7.749  1.00  0.00     0.036 C 
HETATM   18  C7  UNK     1       8.667   6.582   6.464  1.00  0.00     0.010 C 
ENDBRANCH   7  17
ENDBRANCH   2   5
BRANCH   3  19
HETATM   19  C11 UNK     1      15.607   9.685   9.207  1.00  0.00     0.108 A 
HETATM   20  C13 UNK     1      15.470  10.784   8.457  1.00  0.00     0.037 A 
HETATM   21  C12 UNK     1      16.641  11.545   8.049  1.00  0.00    -0.001 A 
HETATM   22  C16 UNK     1      17.900  11.111   8.453  1.00  0.00     0.089 A 
HETATM   23  C18 UNK     1      16.545  12.698   7.266  1.00  0.00     0.014 A 
HETATM   24  O2  UNK     1      18.037   9.953   9.243  1.00  0.00    -0.274 OA
HETATM   25  C19 UNK     1      19.061  11.793   8.097  1.00  0.00     0.038 A 
HETATM   26  C17 UNK     1      16.936   9.205   9.648  1.00  0.00     0.304 A 
HETATM   27  O5  UNK     1      17.066   8.197  10.336  1.00  0.00    -0.259 OA
HETATM   28  C21 UNK     1      18.956  12.941   7.315  1.00  0.00     0.003 A 
HETATM   29  C20 UNK     1      17.701  13.394   6.901  1.00  0.00     0.001 A 
ENDBRANCH   3  19
TORSDOF 6
ENDMDL
MODEL 10
REMARK VINA RESULT:      -7.9      6.318     12.446
REMARK  6 active torsions:
REMARK  status: ('A' for Active; 'I' for Inactive)
REMARK    1  A    between atoms: C6_13  and  O1_2 
REMARK    2  A    between atoms: C9_16  and  O1_2 
REMARK       I    between atoms: C10_17  and  N1_7 
REMARK    3  A    between atoms: C5_12  and  N1_7 
REMARK    4  A    between atoms: C1_8  and  C3_10 
REMARK    5  A    between atoms: C2_9  and  C6_13 
REMARK    6  A    between atoms: C10_17  and  C11_18 
ROOT
HETATM    1  O4  UNK     1      19.910   5.553  32.343  1.00  0.00    -0.267 OA
HETATM    2  N1  UNK     1      17.840   4.491  31.942  1.00  0.00    -0.316 N 
HETATM    3  C10 UNK     1      18.680   5.536  32.302  1.00  0.00     0.262 C 
HETATM    4  H9  UNK     1      16.836   4.644  31.969  1.00  0.00     0.169 HD
ENDROOT
BRANCH   2   5
HETATM    5  C5  UNK     1      18.240   3.213  31.542  1.00  0.00     0.094 A 
HETATM    6  C2  UNK     1      18.356   2.063  32.255  1.00  0.00     0.080 A 
HETATM    7  C1  UNK     1      18.803   0.990  31.431  1.00  0.00    -0.027 A 
HETATM    8  C4  UNK     1      19.002   1.387  30.127  1.00  0.00    -0.012 A 
HETATM    9  S1  UNK     1      18.651   3.049  29.901  1.00  0.00    -0.076 SA
HETATM   10  C8  UNK     1      19.456   0.585  28.969  1.00  0.00     0.057 C 
BRANCH   6  11
HETATM   11  C6  UNK     1      18.059   1.969  33.662  1.00  0.00     0.297 C 
HETATM   12  O3  UNK     1      18.656   2.611  34.540  1.00  0.00    -0.259 OA
BRANCH  11  13
HETATM   13  O1  UNK     1      17.039   1.092  33.961  1.00  0.00    -0.313 OA
BRANCH  13  14
HETATM   14  C9  UNK     1      17.018   0.551  35.287  1.00  0.00     0.124 C 
HETATM   15  C14 UNK     1      15.578   0.282  35.695  1.00  0.00     0.040 C 
HETATM   16  C15 UNK     1      17.864  -0.713  35.326  1.00  0.00     0.040 C 
ENDBRANCH  13  14
ENDBRANCH  11  13
ENDBRANCH   6  11
BRANCH   7  17
HETATM   17  C3  UNK     1      19.027  -0.395  31.917  1.00  0.00     0.036 C 
HETATM   18  C7  UNK     1      20.429  -0.912  31.592  1.00  0.00     0.010 C 
ENDBRANCH   7  17
ENDBRANCH   2   5
BRANCH   3  19
HETATM   19  C11 UNK     1      17.928   6.741  32.669  1.00  0.00     0.108 A 
HETATM   20  C13 UNK     1      18.649   7.776  33.113  1.00  0.00     0.037 A 
HETATM   21  C12 UNK     1      17.993   9.015  33.503  1.00  0.00    -0.001 A 
HETATM   22  C16 UNK     1      16.608   9.102  33.405  1.00  0.00     0.089 A 
HETATM   23  C18 UNK     1      18.706  10.121  33.972  1.00  0.00     0.014 A 
HETATM   24  O2  UNK     1      15.854   8.009  32.937  1.00  0.00    -0.274 OA
HETATM   25  C19 UNK     1      15.918  10.259  33.762  1.00  0.00     0.038 A 
HETATM   26  C17 UNK     1      16.454   6.811  32.557  1.00  0.00     0.304 A 
HETATM   27  O5  UNK     1      15.788   5.864  32.150  1.00  0.00    -0.259 OA
HETATM   28  C21 UNK     1      16.637  11.356  34.230  1.00  0.00     0.003 A 
HETATM   29  C20 UNK     1      18.028  11.288  34.334  1.00  0.00     0.001 A 
ENDBRANCH   3  19
TORSDOF 6
ENDMDL
