MODEL 1
REMARK VINA RESULT:      -8.2      0.000      0.000
REMARK  6 active torsions:
REMARK  status: ('A' for Active; 'I' for Inactive)
REMARK    1  A    between atoms: C1_5  and  O1_1 
REMARK    2  A    between atoms: C9_13  and  O1_1 
REMARK    3  A    between atoms: C3_7  and  C5_9 
REMARK    4  A    between atoms: C3_7  and  C7_11 
REMARK    5  A    between atoms: C14_18  and  C7_11 
REMARK    6  A    between atoms: C11_15  and  C9_13 
ROOT
HETATM    1  O2  UNK     1      18.055  -0.212  37.392  1.00  0.00    -0.322 OA
HETATM    2  O3  UNK     1      19.935  -1.987  33.303  1.00  0.00    -0.275 OA
HETATM    3  O4  UNK     1      20.790  -2.740  31.317  1.00  0.00    -0.260 OA
HETATM    4  C1  UNK     1      18.022   1.106  34.072  1.00  0.00     0.095 A 
HETATM    5  C2  UNK     1      17.826   0.927  35.455  1.00  0.00     0.034 A 
HETATM    6  C4  UNK     1      18.728   0.129  33.354  1.00  0.00     0.033 A 
HETATM    7  C6  UNK     1      18.342  -0.215  36.060  1.00  0.00     0.090 A 
HETATM    8  C8  UNK     1      19.221  -0.994  34.017  1.00  0.00     0.095 A 
HETATM    9  C10 UNK     1      19.049  -1.209  35.387  1.00  0.00     0.076 A 
HETATM   10  C12 UNK     1      17.189   1.659  36.491  1.00  0.00     0.041 A 
HETATM   11  C13 UNK     1      18.962   0.257  31.924  1.00  0.00     0.023 A 
HETATM   12  C16 UNK     1      17.357   0.926  37.644  1.00  0.00     0.143 A 
HETATM   13  C18 UNK     1      19.637  -0.685  31.262  1.00  0.00     0.083 A 
HETATM   14  C19 UNK     1      20.170  -1.882  31.936  1.00  0.00     0.288 A 
ENDROOT
BRANCH   4  15
HETATM   15  O1  UNK     1      17.525   2.220  33.449  1.00  0.00    -0.346 OA
BRANCH  15  16
HETATM   16  C9  UNK     1      18.263   3.425  33.605  1.00  0.00     0.203 C 
BRANCH  16  17
HETATM   17  C11 UNK     1      18.364   4.099  32.273  1.00  0.00     0.002 C 
HETATM   18  C5  UNK     1      18.901   5.302  31.991  1.00  0.00    -0.085 C 
HETATM   19  C15 UNK     1      18.894   5.818  30.575  1.00  0.00     0.043 C 
BRANCH  18  20
HETATM   20  C3  UNK     1      19.568   6.211  33.003  1.00  0.00     0.037 C 
BRANCH  20  21
HETATM   21  C7  UNK     1      18.860   7.559  33.184  1.00  0.00     0.031 C 
BRANCH  21  22
HETATM   22  C14 UNK     1      17.485   7.416  33.775  1.00  0.00    -0.024 C 
HETATM   23  C17 UNK     1      16.297   7.617  33.175  1.00  0.00    -0.091 C 
HETATM   24  C20 UNK     1      15.016   7.427  33.943  1.00  0.00     0.042 C 
HETATM   25  C21 UNK     1      16.104   8.016  31.739  1.00  0.00     0.042 C 
ENDBRANCH  21  22
ENDBRANCH  20  21
ENDBRANCH  18  20
ENDBRANCH  16  17
ENDBRANCH  15  16
ENDBRANCH   4  15
TORSDOF 6
ENDMDL
MODEL 2
REMARK VINA RESULT:      -8.1      2.590      7.812
REMARK  6 active torsions:
REMARK  status: ('A' for Active; 'I' for Inactive)
REMARK    1  A    between atoms: C1_5  and  O1_1 
REMARK    2  A    between atoms: C9_13  and  O1_1 
REMARK    3  A    between atoms: C3_7  and  C5_9 
REMARK    4  A    between atoms: C3_7  and  C7_11 
REMARK    5  A    between atoms: C14_18  and  C7_11 
REMARK    6  A    between atoms: C11_15  and  C9_13 
ROOT
HETATM    1  O2  UNK     1      18.722   3.134  28.595  1.00  0.00    -0.322 OA
HETATM    2  O3  UNK     1      19.322   6.661  31.851  1.00  0.00    -0.275 OA
HETATM    3  O4  UNK     1      19.569   8.264  33.468  1.00  0.00    -0.260 OA
HETATM    4  C1  UNK     1      18.035   3.183  32.100  1.00  0.00     0.095 A 
HETATM    5  C2  UNK     1      18.163   2.785  30.756  1.00  0.00     0.034 A 
HETATM    6  C4  UNK     1      18.422   4.482  32.464  1.00  0.00     0.033 A 
HETATM    7  C6  UNK     1      18.672   3.696  29.835  1.00  0.00     0.090 A 
HETATM    8  C8  UNK     1      18.926   5.349  31.496  1.00  0.00     0.095 A 
HETATM    9  C10 UNK     1      19.070   4.993  30.152  1.00  0.00     0.076 A 
HETATM   10  C12 UNK     1      17.890   1.603  30.018  1.00  0.00     0.041 A 
HETATM   11  C13 UNK     1      18.314   4.951  33.837  1.00  0.00     0.023 A 
HETATM   12  C16 UNK     1      18.246   1.867  28.716  1.00  0.00     0.143 A 
HETATM   13  C18 UNK     1      18.690   6.190  34.159  1.00  0.00     0.083 A 
HETATM   14  C19 UNK     1      19.226   7.129  33.158  1.00  0.00     0.288 A 
ENDROOT
BRANCH   4  15
HETATM   15  O1  UNK     1      17.536   2.308  33.029  1.00  0.00    -0.346 OA
BRANCH  15  16
HETATM   16  C9  UNK     1      18.462   1.410  33.625  1.00  0.00     0.203 C 
BRANCH  16  17
HETATM   17  C11 UNK     1      18.480   1.653  35.101  1.00  0.00     0.002 C 
HETATM   18  C5  UNK     1      17.598   1.219  36.023  1.00  0.00    -0.085 C 
HETATM   19  C15 UNK     1      17.783   1.586  37.473  1.00  0.00     0.043 C 
BRANCH  18  20
HETATM   20  C3  UNK     1      16.404   0.334  35.731  1.00  0.00     0.037 C 
BRANCH  20  21
HETATM   21  C7  UNK     1      16.778  -1.111  35.377  1.00  0.00     0.031 C 
BRANCH  21  22
HETATM   22  C14 UNK     1      17.670  -1.746  36.407  1.00  0.00    -0.024 C 
HETATM   23  C17 UNK     1      18.946  -2.150  36.267  1.00  0.00    -0.091 C 
HETATM   24  C20 UNK     1      19.677  -2.777  37.425  1.00  0.00     0.042 C 
HETATM   25  C21 UNK     1      19.767  -2.021  35.015  1.00  0.00     0.042 C 
ENDBRANCH  21  22
ENDBRANCH  20  21
ENDBRANCH  18  20
ENDBRANCH  16  17
ENDBRANCH  15  16
ENDBRANCH   4  15
TORSDOF 6
ENDMDL
MODEL 3
REMARK VINA RESULT:      -8.1      1.413      2.001
REMARK  6 active torsions:
REMARK  status: ('A' for Active; 'I' for Inactive)
REMARK    1  A    between atoms: C1_5  and  O1_1 
REMARK    2  A    between atoms: C9_13  and  O1_1 
REMARK    3  A    between atoms: C3_7  and  C5_9 
REMARK    4  A    between atoms: C3_7  and  C7_11 
REMARK    5  A    between atoms: C14_18  and  C7_11 
REMARK    6  A    between atoms: C11_15  and  C9_13 
ROOT
HETATM    1  O2  UNK     1      18.415  -1.299  35.581  1.00  0.00    -0.322 OA
HETATM    2  O3  UNK     1      20.172  -1.283  31.073  1.00  0.00    -0.275 OA
HETATM    3  O4  UNK     1      20.961  -1.178  28.926  1.00  0.00    -0.260 OA
HETATM    4  C1  UNK     1      18.151   1.165  33.007  1.00  0.00     0.095 A 
HETATM    5  C2  UNK     1      18.034   0.467  34.225  1.00  0.00     0.034 A 
HETATM    6  C4  UNK     1      18.867   0.576  31.954  1.00  0.00     0.033 A 
HETATM    7  C6  UNK     1      18.635  -0.783  34.339  1.00  0.00     0.090 A 
HETATM    8  C8  UNK     1      19.447  -0.679  32.129  1.00  0.00     0.095 A 
HETATM    9  C10 UNK     1      19.354  -1.404  33.320  1.00  0.00     0.076 A 
HETATM   10  C12 UNK     1      17.415   0.713  35.479  1.00  0.00     0.041 A 
HETATM   11  C13 UNK     1      19.023   1.248  30.673  1.00  0.00     0.023 A 
HETATM   12  C16 UNK     1      17.676  -0.386  36.263  1.00  0.00     0.143 A 
HETATM   13  C18 UNK     1      19.708   0.668  29.685  1.00  0.00     0.083 A 
HETATM   14  C19 UNK     1      20.332  -0.658  29.841  1.00  0.00     0.288 A 
ENDROOT
BRANCH   4  15
HETATM   15  O1  UNK     1      17.570   2.397  32.866  1.00  0.00    -0.346 OA
BRANCH  15  16
HETATM   16  C9  UNK     1      18.352   3.522  33.244  1.00  0.00     0.203 C 
BRANCH  16  17
HETATM   17  C11 UNK     1      18.270   4.547  32.157  1.00  0.00     0.002 C 
HETATM   18  C5  UNK     1      18.977   5.688  32.038  1.00  0.00    -0.085 C 
HETATM   19  C15 UNK     1      18.737   6.604  30.866  1.00  0.00     0.043 C 
BRANCH  18  20
HETATM   20  C3  UNK     1      20.059   6.140  32.998  1.00  0.00     0.037 C 
BRANCH  20  21
HETATM   21  C7  UNK     1      19.517   6.759  34.292  1.00  0.00     0.031 C 
BRANCH  21  22
HETATM   22  C14 UNK     1      19.556   8.262  34.274  1.00  0.00    -0.024 C 
HETATM   23  C17 UNK     1      18.571   9.115  33.937  1.00  0.00    -0.091 C 
HETATM   24  C20 UNK     1      18.807  10.602  33.976  1.00  0.00     0.042 C 
HETATM   25  C21 UNK     1      17.183   8.720  33.520  1.00  0.00     0.042 C 
ENDBRANCH  21  22
ENDBRANCH  20  21
ENDBRANCH  18  20
ENDBRANCH  16  17
ENDBRANCH  15  16
ENDBRANCH   4  15
TORSDOF 6
ENDMDL
MODEL 4
REMARK VINA RESULT:      -7.9      1.041      3.638
REMARK  6 active torsions:
REMARK  status: ('A' for Active; 'I' for Inactive)
REMARK    1  A    between atoms: C1_5  and  O1_1 
REMARK    2  A    between atoms: C9_13  and  O1_1 
REMARK    3  A    between atoms: C3_7  and  C5_9 
REMARK    4  A    between atoms: C3_7  and  C7_11 
REMARK    5  A    between atoms: C14_18  and  C7_11 
REMARK    6  A    between atoms: C11_15  and  C9_13 
ROOT
HETATM    1  O2  UNK     1      20.310  -1.146  30.817  1.00  0.00    -0.322 OA
HETATM    2  O3  UNK     1      18.576  -1.609  35.310  1.00  0.00    -0.275 OA
HETATM    3  O4  UNK     1      17.705  -1.735  37.424  1.00  0.00    -0.260 OA
HETATM    4  C1  UNK     1      18.222   1.037  32.725  1.00  0.00     0.095 A 
HETATM    5  C2  UNK     1      19.001   0.472  31.697  1.00  0.00     0.034 A 
HETATM    6  C4  UNK     1      18.082   0.339  33.933  1.00  0.00     0.033 A 
HETATM    7  C6  UNK     1      19.603  -0.763  31.918  1.00  0.00     0.090 A 
HETATM    8  C8  UNK     1      18.710  -0.895  34.095  1.00  0.00     0.095 A 
HETATM    9  C10 UNK     1      19.491  -1.491  33.100  1.00  0.00     0.076 A 
HETATM   10  C12 UNK     1      19.372   0.851  30.380  1.00  0.00     0.041 A 
HETATM   11  C13 UNK     1      17.291   0.872  35.031  1.00  0.00     0.023 A 
HETATM   12  C16 UNK     1      20.164  -0.162  29.892  1.00  0.00     0.143 A 
HETATM   13  C18 UNK     1      17.172   0.189  36.172  1.00  0.00     0.083 A 
HETATM   14  C19 UNK     1      17.824  -1.117  36.372  1.00  0.00     0.288 A 
ENDROOT
BRANCH   4  15
HETATM   15  O1  UNK     1      17.617   2.252  32.535  1.00  0.00    -0.346 OA
BRANCH  15  16
HETATM   16  C9  UNK     1      18.369   3.405  32.889  1.00  0.00     0.203 C 
BRANCH  16  17
HETATM   17  C11 UNK     1      18.578   4.234  31.661  1.00  0.00     0.002 C 
HETATM   18  C5  UNK     1      19.183   5.434  31.565  1.00  0.00    -0.085 C 
HETATM   19  C15 UNK     1      19.283   6.122  30.228  1.00  0.00     0.043 C 
BRANCH  18  20
HETATM   20  C3  UNK     1      19.827   6.175  32.719  1.00  0.00     0.037 C 
BRANCH  20  21
HETATM   21  C7  UNK     1      19.147   7.507  33.055  1.00  0.00     0.031 C 
BRANCH  21  22
HETATM   22  C14 UNK     1      17.779   7.324  33.650  1.00  0.00    -0.024 C 
HETATM   23  C17 UNK     1      16.583   7.535  33.068  1.00  0.00    -0.091 C 
HETATM   24  C20 UNK     1      15.311   7.300  33.838  1.00  0.00     0.042 C 
HETATM   25  C21 UNK     1      16.374   7.990  31.651  1.00  0.00     0.042 C 
ENDBRANCH  21  22
ENDBRANCH  20  21
ENDBRANCH  18  20
ENDBRANCH  16  17
ENDBRANCH  15  16
ENDBRANCH   4  15
TORSDOF 6
ENDMDL
MODEL 5
REMARK VINA RESULT:      -7.9      2.410      7.987
REMARK  6 active torsions:
REMARK  status: ('A' for Active; 'I' for Inactive)
REMARK    1  A    between atoms: C1_5  and  O1_1 
REMARK    2  A    between atoms: C9_13  and  O1_1 
REMARK    3  A    between atoms: C3_7  and  C5_9 
REMARK    4  A    between atoms: C3_7  and  C7_11 
REMARK    5  A    between atoms: C14_18  and  C7_11 
REMARK    6  A    between atoms: C11_15  and  C9_13 
ROOT
HETATM    1  O2  UNK     1      18.971   3.692  29.369  1.00  0.00    -0.322 OA
HETATM    2  O3  UNK     1      18.393   7.674  32.056  1.00  0.00    -0.275 OA
HETATM    3  O4  UNK     1      18.096   9.497  33.410  1.00  0.00    -0.260 OA
HETATM    4  C1  UNK     1      18.026   4.051  32.796  1.00  0.00     0.095 A 
HETATM    5  C2  UNK     1      18.355   3.516  31.536  1.00  0.00     0.034 A 
HETATM    6  C4  UNK     1      18.039   5.443  32.967  1.00  0.00     0.033 A 
HETATM    7  C6  UNK     1      18.683   4.390  30.504  1.00  0.00     0.090 A 
HETATM    8  C8  UNK     1      18.376   6.268  31.895  1.00  0.00     0.095 A 
HETATM    9  C10 UNK     1      18.709   5.777  30.629  1.00  0.00     0.076 A 
HETATM   10  C12 UNK     1      18.453   2.212  30.982  1.00  0.00     0.041 A 
HETATM   11  C13 UNK     1      17.709   6.055  34.245  1.00  0.00     0.023 A 
HETATM   12  C16 UNK     1      18.828   2.375  29.669  1.00  0.00     0.143 A 
HETATM   13  C18 UNK     1      17.728   7.383  34.384  1.00  0.00     0.083 A 
HETATM   14  C19 UNK     1      18.080   8.279  33.269  1.00  0.00     0.288 A 
ENDROOT
BRANCH   4  15
HETATM   15  O1  UNK     1      17.699   3.214  33.831  1.00  0.00    -0.346 OA
BRANCH  15  16
HETATM   16  C9  UNK     1      18.773   2.726  34.625  1.00  0.00     0.203 C 
BRANCH  16  17
HETATM   17  C11 UNK     1      18.204   1.957  35.775  1.00  0.00     0.002 C 
HETATM   18  C5  UNK     1      17.599   0.754  35.749  1.00  0.00    -0.085 C 
HETATM   19  C15 UNK     1      17.076   0.146  37.025  1.00  0.00     0.043 C 
BRANCH  18  20
HETATM   20  C3  UNK     1      17.414  -0.096  34.508  1.00  0.00     0.037 C 
BRANCH  20  21
HETATM   21  C7  UNK     1      18.629  -0.968  34.170  1.00  0.00     0.031 C 
BRANCH  21  22
HETATM   22  C14 UNK     1      18.893  -1.044  32.692  1.00  0.00    -0.024 C 
HETATM   23  C17 UNK     1      19.878  -1.705  32.056  1.00  0.00    -0.091 C 
HETATM   24  C20 UNK     1      19.981  -1.654  30.554  1.00  0.00     0.042 C 
HETATM   25  C21 UNK     1      20.933  -2.544  32.720  1.00  0.00     0.042 C 
ENDBRANCH  21  22
ENDBRANCH  20  21
ENDBRANCH  18  20
ENDBRANCH  16  17
ENDBRANCH  15  16
ENDBRANCH   4  15
TORSDOF 6
ENDMDL
MODEL 6
REMARK VINA RESULT:      -7.9      1.596      4.331
REMARK  6 active torsions:
REMARK  status: ('A' for Active; 'I' for Inactive)
REMARK    1  A    between atoms: C1_5  and  O1_1 
REMARK    2  A    between atoms: C9_13  and  O1_1 
REMARK    3  A    between atoms: C3_7  and  C5_9 
REMARK    4  A    between atoms: C3_7  and  C7_11 
REMARK    5  A    between atoms: C14_18  and  C7_11 
REMARK    6  A    between atoms: C11_15  and  C9_13 
ROOT
HETATM    1  O2  UNK     1      20.421  -1.524  29.527  1.00  0.00    -0.322 OA
HETATM    2  O3  UNK     1      19.419  -1.605  34.259  1.00  0.00    -0.275 OA
HETATM    3  O4  UNK     1      18.894  -1.549  36.487  1.00  0.00    -0.260 OA
HETATM    4  C1  UNK     1      18.703   0.855  31.566  1.00  0.00     0.095 A 
HETATM    5  C2  UNK     1      19.298   0.192  30.475  1.00  0.00     0.034 A 
HETATM    6  C4  UNK     1      18.746   0.251  32.832  1.00  0.00     0.033 A 
HETATM    7  C6  UNK     1      19.906  -1.040  30.692  1.00  0.00     0.090 A 
HETATM    8  C8  UNK     1      19.370  -0.986  32.987  1.00  0.00     0.095 A 
HETATM    9  C10 UNK     1      19.971  -1.676  31.930  1.00  0.00     0.076 A 
HETATM   10  C12 UNK     1      19.460   0.463  29.090  1.00  0.00     0.041 A 
HETATM   11  C13 UNK     1      18.150   0.886  33.997  1.00  0.00     0.023 A 
HETATM   12  C16 UNK     1      20.146  -0.606  28.563  1.00  0.00     0.143 A 
HETATM   13  C18 UNK     1      18.202   0.293  35.191  1.00  0.00     0.083 A 
HETATM   14  C19 UNK     1      18.855  -1.014  35.385  1.00  0.00     0.288 A 
ENDROOT
BRANCH   4  15
HETATM   15  O1  UNK     1      18.097   2.070  31.381  1.00  0.00    -0.346 OA
BRANCH  15  16
HETATM   16  C9  UNK     1      18.934   3.218  31.433  1.00  0.00     0.203 C 
BRANCH  16  17
HETATM   17  C11 UNK     1      18.068   4.438  31.454  1.00  0.00     0.002 C 
HETATM   18  C5  UNK     1      18.455   5.728  31.504  1.00  0.00    -0.085 C 
HETATM   19  C15 UNK     1      17.422   6.824  31.532  1.00  0.00     0.043 C 
BRANCH  18  20
HETATM   20  C3  UNK     1      19.895   6.201  31.503  1.00  0.00     0.037 C 
BRANCH  20  21
HETATM   21  C7  UNK     1      20.517   6.289  32.901  1.00  0.00     0.031 C 
BRANCH  21  22
HETATM   22  C14 UNK     1      20.624   7.703  33.399  1.00  0.00    -0.024 C 
HETATM   23  C17 UNK     1      19.797   8.354  34.238  1.00  0.00    -0.091 C 
HETATM   24  C20 UNK     1      20.070   9.786  34.617  1.00  0.00     0.042 C 
HETATM   25  C21 UNK     1      18.574   7.767  34.884  1.00  0.00     0.042 C 
ENDBRANCH  21  22
ENDBRANCH  20  21
ENDBRANCH  18  20
ENDBRANCH  16  17
ENDBRANCH  15  16
ENDBRANCH   4  15
TORSDOF 6
ENDMDL
MODEL 7
REMARK VINA RESULT:      -7.8      4.749     10.705
REMARK  6 active torsions:
REMARK  status: ('A' for Active; 'I' for Inactive)
REMARK    1  A    between atoms: C1_5  and  O1_1 
REMARK    2  A    between atoms: C9_13  and  O1_1 
REMARK    3  A    between atoms: C3_7  and  C5_9 
REMARK    4  A    between atoms: C3_7  and  C7_11 
REMARK    5  A    between atoms: C14_18  and  C7_11 
REMARK    6  A    between atoms: C11_15  and  C9_13 
ROOT
HETATM    1  O2  UNK     1      19.689  -1.364  31.619  1.00  0.00    -0.322 OA
HETATM    2  O3  UNK     1      17.219   0.250  35.453  1.00  0.00    -0.275 OA
HETATM    3  O4  UNK     1      16.104   0.945  37.329  1.00  0.00    -0.260 OA
HETATM    4  C1  UNK     1      19.843  -2.351  35.049  1.00  0.00     0.095 A 
HETATM    5  C2  UNK     1      20.068  -2.248  33.663  1.00  0.00     0.034 A 
HETATM    6  C4  UNK     1      18.888  -1.514  35.646  1.00  0.00     0.033 A 
HETATM    7  C6  UNK     1      19.334  -1.318  32.934  1.00  0.00     0.090 A 
HETATM    8  C8  UNK     1      18.184  -0.600  34.862  1.00  0.00     0.095 A 
HETATM    9  C10 UNK     1      18.378  -0.467  33.485  1.00  0.00     0.076 A 
HETATM   10  C12 UNK     1      20.915  -2.893  32.723  1.00  0.00     0.041 A 
HETATM   11  C13 UNK     1      18.611  -1.573  37.073  1.00  0.00     0.023 A 
HETATM   12  C16 UNK     1      20.646  -2.321  31.501  1.00  0.00     0.143 A 
HETATM   13  C18 UNK     1      17.698  -0.766  37.618  1.00  0.00     0.083 A 
HETATM   14  C19 UNK     1      16.939   0.209  36.815  1.00  0.00     0.288 A 
ENDROOT
BRANCH   4  15
HETATM   15  O1  UNK     1      20.551  -3.258  35.792  1.00  0.00    -0.346 OA
BRANCH  15  16
HETATM   16  C9  UNK     1      19.951  -4.532  35.991  1.00  0.00     0.203 C 
BRANCH  16  17
HETATM   17  C11 UNK     1      20.583  -5.176  37.184  1.00  0.00     0.002 C 
HETATM   18  C5  UNK     1      20.135  -6.233  37.889  1.00  0.00    -0.085 C 
HETATM   19  C15 UNK     1      20.914  -6.729  39.080  1.00  0.00     0.043 C 
BRANCH  18  20
HETATM   20  C3  UNK     1      18.884  -7.023  37.564  1.00  0.00     0.037 C 
BRANCH  20  21
HETATM   21  C7  UNK     1      18.983  -7.832  36.265  1.00  0.00     0.031 C 
BRANCH  21  22
HETATM   22  C14 UNK     1      20.220  -8.686  36.208  1.00  0.00    -0.024 C 
HETATM   23  C17 UNK     1      20.432  -9.881  36.789  1.00  0.00    -0.091 C 
HETATM   24  C20 UNK     1      21.753 -10.585  36.621  1.00  0.00     0.042 C 
HETATM   25  C21 UNK     1      19.431 -10.635  37.619  1.00  0.00     0.042 C 
ENDBRANCH  21  22
ENDBRANCH  20  21
ENDBRANCH  18  20
ENDBRANCH  16  17
ENDBRANCH  15  16
ENDBRANCH   4  15
TORSDOF 6
ENDMDL
MODEL 8
REMARK VINA RESULT:      -7.8     10.827     13.732
REMARK  6 active torsions:
REMARK  status: ('A' for Active; 'I' for Inactive)
REMARK    1  A    between atoms: C1_5  and  O1_1 
REMARK    2  A    between atoms: C9_13  and  O1_1 
REMARK    3  A    between atoms: C3_7  and  C5_9 
REMARK    4  A    between atoms: C3_7  and  C7_11 
REMARK    5  A    between atoms: C14_18  and  C7_11 
REMARK    6  A    between atoms: C11_15  and  C9_13 
ROOT
HETATM    1  O2  UNK     1      28.559  -8.337  38.144  1.00  0.00    -0.322 OA
HETATM    2  O3  UNK     1      25.734 -11.611  35.975  1.00  0.00    -0.275 OA
HETATM    3  O4  UNK     1      24.312 -13.100  34.973  1.00  0.00    -0.260 OA
HETATM    4  C1  UNK     1      25.011  -8.416  37.731  1.00  0.00     0.095 A 
HETATM    5  C2  UNK     1      26.320  -8.037  38.085  1.00  0.00     0.034 A 
HETATM    6  C4  UNK     1      24.817  -9.613  37.026  1.00  0.00     0.033 A 
HETATM    7  C6  UNK     1      27.377  -8.866  37.719  1.00  0.00     0.090 A 
HETATM    8  C8  UNK     1      25.916 -10.402  36.687  1.00  0.00     0.095 A 
HETATM    9  C10 UNK     1      27.231 -10.061  37.019  1.00  0.00     0.076 A 
HETATM   10  C12 UNK     1      26.908  -6.944  38.773  1.00  0.00     0.041 A 
HETATM   11  C13 UNK     1      23.489 -10.058  36.633  1.00  0.00     0.023 A 
HETATM   12  C16 UNK     1      28.264  -7.173  38.781  1.00  0.00     0.143 A 
HETATM   13  C18 UNK     1      23.329 -11.201  35.962  1.00  0.00     0.083 A 
HETATM   14  C19 UNK     1      24.472 -12.054  35.591  1.00  0.00     0.288 A 
ENDROOT
BRANCH   4  15
HETATM   15  O1  UNK     1      23.951  -7.620  38.078  1.00  0.00    -0.346 OA
BRANCH  15  16
HETATM   16  C9  UNK     1      23.466  -7.743  39.409  1.00  0.00     0.203 C 
BRANCH  16  17
HETATM   17  C11 UNK     1      22.133  -7.069  39.494  1.00  0.00     0.002 C 
HETATM   18  C5  UNK     1      20.920  -7.594  39.228  1.00  0.00    -0.085 C 
HETATM   19  C15 UNK     1      19.685  -6.742  39.361  1.00  0.00     0.043 C 
BRANCH  18  20
HETATM   20  C3  UNK     1      20.670  -9.031  38.819  1.00  0.00     0.037 C 
BRANCH  20  21
HETATM   21  C7  UNK     1      19.723  -9.177  37.621  1.00  0.00     0.031 C 
BRANCH  21  22
HETATM   22  C14 UNK     1      20.278  -8.558  36.368  1.00  0.00    -0.024 C 
HETATM   23  C17 UNK     1      19.680  -7.683  35.538  1.00  0.00    -0.091 C 
HETATM   24  C20 UNK     1      20.402  -7.178  34.317  1.00  0.00     0.042 C 
HETATM   25  C21 UNK     1      18.300  -7.116  35.719  1.00  0.00     0.042 C 
ENDBRANCH  21  22
ENDBRANCH  20  21
ENDBRANCH  18  20
ENDBRANCH  16  17
ENDBRANCH  15  16
ENDBRANCH   4  15
TORSDOF 6
ENDMDL
MODEL 9
REMARK VINA RESULT:      -7.7     13.470     16.494
REMARK  6 active torsions:
REMARK  status: ('A' for Active; 'I' for Inactive)
REMARK    1  A    between atoms: C1_5  and  O1_1 
REMARK    2  A    between atoms: C9_13  and  O1_1 
REMARK    3  A    between atoms: C3_7  and  C5_9 
REMARK    4  A    between atoms: C3_7  and  C7_11 
REMARK    5  A    between atoms: C14_18  and  C7_11 
REMARK    6  A    between atoms: C11_15  and  C9_13 
ROOT
HETATM    1  O2  UNK     1      33.809  -3.979  35.722  1.00  0.00    -0.322 OA
HETATM    2  O3  UNK     1      29.508  -3.991  37.938  1.00  0.00    -0.275 OA
HETATM    3  O4  UNK     1      27.490  -4.098  39.014  1.00  0.00    -0.260 OA
HETATM    4  C1  UNK     1      32.116  -6.597  37.467  1.00  0.00     0.095 A 
HETATM    5  C2  UNK     1      33.062  -5.857  36.733  1.00  0.00     0.034 A 
HETATM    6  C4  UNK     1      30.927  -5.970  37.869  1.00  0.00     0.033 A 
HETATM    7  C6  UNK     1      32.783  -4.527  36.432  1.00  0.00     0.090 A 
HETATM    8  C8  UNK     1      30.703  -4.634  37.538  1.00  0.00     0.095 A 
HETATM    9  C10 UNK     1      31.617  -3.865  36.811  1.00  0.00     0.076 A 
HETATM   10  C12 UNK     1      34.336  -6.121  36.165  1.00  0.00     0.041 A 
HETATM   11  C13 UNK     1      29.911  -6.682  38.629  1.00  0.00     0.023 A 
HETATM   12  C16 UNK     1      34.744  -4.952  35.565  1.00  0.00     0.143 A 
HETATM   13  C18 UNK     1      28.788  -6.065  39.001  1.00  0.00     0.083 A 
HETATM   14  C19 UNK     1      28.525  -4.654  38.665  1.00  0.00     0.288 A 
ENDROOT
BRANCH   4  15
HETATM   15  O1  UNK     1      32.364  -7.908  37.777  1.00  0.00    -0.346 OA
BRANCH  15  16
HETATM   16  C9  UNK     1      32.384  -8.830  36.695  1.00  0.00     0.203 C 
BRANCH  16  17
HETATM   17  C11 UNK     1      30.983  -9.275  36.421  1.00  0.00     0.002 C 
HETATM   18  C5  UNK     1      30.189  -8.924  35.390  1.00  0.00    -0.085 C 
HETATM   19  C15 UNK     1      28.789  -9.473  35.296  1.00  0.00     0.043 C 
BRANCH  18  20
HETATM   20  C3  UNK     1      30.600  -8.013  34.251  1.00  0.00     0.037 C 
BRANCH  20  21
HETATM   21  C7  UNK     1      30.140  -6.560  34.424  1.00  0.00     0.031 C 
BRANCH  21  22
HETATM   22  C14 UNK     1      30.249  -5.764  33.154  1.00  0.00    -0.024 C 
HETATM   23  C17 UNK     1      29.326  -5.612  32.186  1.00  0.00    -0.091 C 
HETATM   24  C20 UNK     1      29.627  -4.771  30.973  1.00  0.00     0.042 C 
HETATM   25  C21 UNK     1      27.948  -6.210  32.197  1.00  0.00     0.042 C 
ENDBRANCH  21  22
ENDBRANCH  20  21
ENDBRANCH  18  20
ENDBRANCH  16  17
ENDBRANCH  15  16
ENDBRANCH   4  15
TORSDOF 6
ENDMDL
MODEL 10
REMARK VINA RESULT:      -7.6      9.728     14.289
REMARK  6 active torsions:
REMARK  status: ('A' for Active; 'I' for Inactive)
REMARK    1  A    between atoms: C1_5  and  O1_1 
REMARK    2  A    between atoms: C9_13  and  O1_1 
REMARK    3  A    between atoms: C3_7  and  C5_9 
REMARK    4  A    between atoms: C3_7  and  C7_11 
REMARK    5  A    between atoms: C14_18  and  C7_11 
REMARK    6  A    between atoms: C11_15  and  C9_13 
ROOT
HETATM    1  O2  UNK     1      21.656 -10.321  34.715  1.00  0.00    -0.322 OA
HETATM    2  O3  UNK     1      20.025  -5.942  35.969  1.00  0.00    -0.275 OA
HETATM    3  O4  UNK     1      19.320  -3.872  36.647  1.00  0.00    -0.260 OA
HETATM    4  C1  UNK     1      22.515  -8.244  37.492  1.00  0.00     0.095 A 
HETATM    5  C2  UNK     1      22.450  -9.307  36.571  1.00  0.00     0.034 A 
HETATM    6  C4  UNK     1      21.702  -7.119  37.288  1.00  0.00     0.033 A 
HETATM    7  C6  UNK     1      21.580  -9.203  35.490  1.00  0.00     0.090 A 
HETATM    8  C8  UNK     1      20.850  -7.072  36.185  1.00  0.00     0.095 A 
HETATM    9  C10 UNK     1      20.756  -8.106  35.249  1.00  0.00     0.076 A 
HETATM   10  C12 UNK     1      23.086 -10.569  36.433  1.00  0.00     0.041 A 
HETATM   11  C13 UNK     1      21.725  -5.989  38.204  1.00  0.00     0.023 A 
HETATM   12  C16 UNK     1      22.571 -11.142  35.294  1.00  0.00     0.143 A 
HETATM   13  C18 UNK     1      20.942  -4.929  37.990  1.00  0.00     0.083 A 
HETATM   14  C19 UNK     1      20.032  -4.852  36.833  1.00  0.00     0.288 A 
ENDROOT
BRANCH   4  15
HETATM   15  O1  UNK     1      23.363  -8.319  38.566  1.00  0.00    -0.346 OA
BRANCH  15  16
HETATM   16  C9  UNK     1      24.716  -7.946  38.342  1.00  0.00     0.203 C 
BRANCH  16  17
HETATM   17  C11 UNK     1      25.602  -8.919  39.053  1.00  0.00     0.002 C 
HETATM   18  C5  UNK     1      26.898  -8.766  39.392  1.00  0.00    -0.085 C 
HETATM   19  C15 UNK     1      27.628  -9.878  40.099  1.00  0.00     0.043 C 
BRANCH  18  20
HETATM   20  C3  UNK     1      27.715  -7.514  39.144  1.00  0.00     0.037 C 
BRANCH  20  21
HETATM   21  C7  UNK     1      28.993  -7.762  38.332  1.00  0.00     0.031 C 
BRANCH  21  22
HETATM   22  C14 UNK     1      29.936  -6.591  38.368  1.00  0.00    -0.024 C 
HETATM   23  C17 UNK     1      31.282  -6.608  38.392  1.00  0.00    -0.091 C 
HETATM   24  C20 UNK     1      32.057  -5.317  38.434  1.00  0.00     0.042 C 
HETATM   25  C21 UNK     1      32.137  -7.843  38.365  1.00  0.00     0.042 C 
ENDBRANCH  21  22
ENDBRANCH  20  21
ENDBRANCH  18  20
ENDBRANCH  16  17
ENDBRANCH  15  16
ENDBRANCH   4  15
TORSDOF 6
ENDMDL
