MODEL 1
REMARK VINA RESULT:      -8.6      0.000      0.000
REMARK  5 active torsions:
REMARK  status: ('A' for Active; 'I' for Inactive)
REMARK    1  A    between atoms: C14_21  and  O2_2 
REMARK    2  A    between atoms: C15_22  and  O2_2 
REMARK    3  A    between atoms: C1_8  and  C10_17 
REMARK    4  A    between atoms: C15_22  and  C5_12 
REMARK    5  A    between atoms: C11_18  and  C14_21 
ROOT
HETATM    1  O3  UNK     1      32.059  -6.265  33.806  1.00  0.00    -0.293 OA
HETATM    2  N1  UNK     1      29.502  -5.112  37.627  1.00  0.00    -0.362 N 
HETATM    3  C1  UNK     1      29.882  -7.006  35.547  1.00  0.00     0.104 C 
HETATM    4  C2  UNK     1      30.706  -5.729  35.682  1.00  0.00     0.024 C 
HETATM    5  C3  UNK     1      30.474  -4.851  36.682  1.00  0.00     0.020 C 
HETATM    6  C4  UNK     1      31.262  -3.580  36.866  1.00  0.00     0.058 C 
HETATM    7  C5  UNK     1      28.951  -7.237  36.739  1.00  0.00     0.052 C 
HETATM    8  C6  UNK     1      32.625  -3.638  36.187  1.00  0.00     0.014 C 
HETATM    9  C7  UNK     1      32.497  -4.115  34.752  1.00  0.00     0.084 C 
HETATM   10  C8  UNK     1      31.787  -5.450  34.688  1.00  0.00     0.158 C 
HETATM   11  C9  UNK     1      28.780  -6.293  37.694  1.00  0.00     0.018 C 
HETATM   12  C18 UNK     1      27.851  -6.405  38.874  1.00  0.00     0.069 C 
HETATM   13  H8  UNK     1      29.358  -4.429  38.362  1.00  0.00     0.165 HD
ENDROOT
BRANCH   3  14
HETATM   14  C10 UNK     1      29.088  -6.990  34.270  1.00  0.00     0.029 A 
HETATM   15  C17 UNK     1      29.343  -8.051  33.262  1.00  0.00     0.194 A 
HETATM   16  O6  UNK     1      30.174  -8.930  33.440  1.00  0.00    -0.287 OA
HETATM   17  C20 UNK     1      28.539  -7.986  32.028  1.00  0.00     0.049 A 
HETATM   18  C21 UNK     1      27.606  -6.959  31.878  1.00  0.00     0.089 A 
HETATM   19  C22 UNK     1      28.704  -8.938  31.019  1.00  0.00     0.025 A 
HETATM   20  O4  UNK     1      27.402  -5.999  32.836  1.00  0.00    -0.321 OA
HETATM   21  C23 UNK     1      26.834  -6.879  30.719  1.00  0.00     0.039 A 
HETATM   22  C19 UNK     1      28.158  -6.071  33.980  1.00  0.00     0.154 A 
HETATM   23  C25 UNK     1      26.997  -7.829  29.710  1.00  0.00     0.009 A 
HETATM   24  C24 UNK     1      27.930  -8.856  29.860  1.00  0.00    -0.061 A 
HETATM   25  C26 UNK     1      28.101  -9.869  28.778  1.00  0.00     0.048 C 
ENDBRANCH   3  14
BRANCH   7  26
HETATM   26  C15 UNK     1      28.298  -8.554  36.822  1.00  0.00     0.292 C 
HETATM   27  O5  UNK     1      27.090  -8.702  36.805  1.00  0.00    -0.259 OA
BRANCH  26  28
HETATM   28  O2  UNK     1      29.260  -9.503  36.911  1.00  0.00    -0.315 OA
BRANCH  28  29
HETATM   29  C14 UNK     1      29.882  -9.616  38.195  1.00  0.00     0.211 C 
BRANCH  29  30
HETATM   30  C11 UNK     1      31.378  -9.418  38.039  1.00  0.00     0.145 C 
HETATM   31  O1  UNK     1      31.779  -8.199  38.688  1.00  0.00    -0.384 OA
HETATM   32  C16 UNK     1      32.734  -7.532  37.848  1.00  0.00     0.168 C 
HETATM   33  C13 UNK     1      33.096  -8.496  36.738  1.00  0.00     0.029 C 
HETATM   34  C12 UNK     1      31.825  -9.295  36.593  1.00  0.00     0.036 C 
ENDBRANCH  29  30
ENDBRANCH  28  29
ENDBRANCH  26  28
ENDBRANCH   7  26
TORSDOF 5
ENDMDL
MODEL 2
REMARK VINA RESULT:      -8.5      2.990      7.168
REMARK  5 active torsions:
REMARK  status: ('A' for Active; 'I' for Inactive)
REMARK    1  A    between atoms: C14_21  and  O2_2 
REMARK    2  A    between atoms: C15_22  and  O2_2 
REMARK    3  A    between atoms: C1_8  and  C10_17 
REMARK    4  A    between atoms: C15_22  and  C5_12 
REMARK    5  A    between atoms: C11_18  and  C14_21 
ROOT
HETATM    1  O3  UNK     1      32.072  -9.728  35.123  1.00  0.00    -0.293 OA
HETATM    2  N1  UNK     1      29.204 -10.318  31.395  1.00  0.00    -0.362 N 
HETATM    3  C1  UNK     1      30.288  -8.458  33.246  1.00  0.00     0.104 C 
HETATM    4  C2  UNK     1      30.584  -9.954  33.286  1.00  0.00     0.024 C 
HETATM    5  C3  UNK     1      30.030 -10.801  32.392  1.00  0.00     0.020 C 
HETATM    6  C4  UNK     1      30.295 -12.284  32.381  1.00  0.00     0.058 C 
HETATM    7  C5  UNK     1      29.485  -8.048  32.009  1.00  0.00     0.052 C 
HETATM    8  C6  UNK     1      31.596 -12.646  33.087  1.00  0.00     0.014 C 
HETATM    9  C7  UNK     1      31.676 -11.986  34.451  1.00  0.00     0.084 C 
HETATM   10  C8  UNK     1      31.506 -10.486  34.337  1.00  0.00     0.158 C 
HETATM   11  C9  UNK     1      28.963  -8.972  31.169  1.00  0.00     0.018 C 
HETATM   12  C18 UNK     1      28.119  -8.672  29.959  1.00  0.00     0.069 C 
HETATM   13  H8  UNK     1      28.807 -10.985  30.743  1.00  0.00     0.165 HD
ENDROOT
BRANCH   3  14
HETATM   14  C10 UNK     1      29.565  -8.029  34.494  1.00  0.00     0.029 A 
HETATM   15  C17 UNK     1      30.124  -6.904  35.286  1.00  0.00     0.194 A 
HETATM   16  O6  UNK     1      31.146  -6.321  34.955  1.00  0.00    -0.287 OA
HETATM   17  C20 UNK     1      29.376  -6.526  36.500  1.00  0.00     0.049 A 
HETATM   18  C21 UNK     1      28.216  -7.228  36.830  1.00  0.00     0.089 A 
HETATM   19  C22 UNK     1      29.821  -5.480  37.313  1.00  0.00     0.025 A 
HETATM   20  O4  UNK     1      27.735  -8.262  36.068  1.00  0.00    -0.321 OA
HETATM   21  C23 UNK     1      27.494  -6.887  37.973  1.00  0.00     0.039 A 
HETATM   22  C19 UNK     1      28.440  -8.603  34.941  1.00  0.00     0.154 A 
HETATM   23  C25 UNK     1      27.935  -5.843  38.787  1.00  0.00     0.009 A 
HETATM   24  C24 UNK     1      29.096  -5.141  38.457  1.00  0.00    -0.061 A 
HETATM   25  C26 UNK     1      29.563  -4.025  39.330  1.00  0.00     0.048 C 
ENDBRANCH   3  14
BRANCH   7  26
HETATM   26  C15 UNK     1      29.357  -6.605  31.753  1.00  0.00     0.292 C 
HETATM   27  O5  UNK     1      28.323  -5.985  31.924  1.00  0.00    -0.259 OA
BRANCH  26  28
HETATM   28  O2  UNK     1      30.553  -6.140  31.319  1.00  0.00    -0.315 OA
BRANCH  28  29
HETATM   29  C14 UNK     1      30.586  -5.745  29.944  1.00  0.00     0.211 C 
BRANCH  29  30
HETATM   30  C11 UNK     1      31.651  -6.550  29.224  1.00  0.00     0.145 C 
HETATM   31  O1  UNK     1      31.031  -7.504  28.345  1.00  0.00    -0.384 OA
HETATM   32  C16 UNK     1      31.749  -8.743  28.442  1.00  0.00     0.168 C 
HETATM   33  C13 UNK     1      32.997  -8.469  29.255  1.00  0.00     0.029 C 
HETATM   34  C12 UNK     1      32.541  -7.351  30.158  1.00  0.00     0.036 C 
ENDBRANCH  29  30
ENDBRANCH  28  29
ENDBRANCH  26  28
ENDBRANCH   7  26
TORSDOF 5
ENDMDL
MODEL 3
REMARK VINA RESULT:      -8.5      2.166      3.699
REMARK  5 active torsions:
REMARK  status: ('A' for Active; 'I' for Inactive)
REMARK    1  A    between atoms: C14_21  and  O2_2 
REMARK    2  A    between atoms: C15_22  and  O2_2 
REMARK    3  A    between atoms: C1_8  and  C10_17 
REMARK    4  A    between atoms: C15_22  and  C5_12 
REMARK    5  A    between atoms: C11_18  and  C14_21 
ROOT
HETATM    1  O3  UNK     1      32.373  -8.892  34.908  1.00  0.00    -0.293 OA
HETATM    2  N1  UNK     1      30.521  -6.322  38.434  1.00  0.00    -0.362 N 
HETATM    3  C1  UNK     1      29.965  -8.075  36.271  1.00  0.00     0.104 C 
HETATM    4  C2  UNK     1      31.370  -7.592  36.623  1.00  0.00     0.024 C 
HETATM    5  C3  UNK     1      31.579  -6.745  37.653  1.00  0.00     0.020 C 
HETATM    6  C4  UNK     1      32.944  -6.245  38.050  1.00  0.00     0.058 C 
HETATM    7  C5  UNK     1      28.919  -7.650  37.303  1.00  0.00     0.052 C 
HETATM    8  C6  UNK     1      34.062  -7.156  37.558  1.00  0.00     0.014 C 
HETATM    9  C7  UNK     1      33.894  -7.474  36.083  1.00  0.00     0.084 C 
HETATM   10  C8  UNK     1      32.530  -8.071  35.810  1.00  0.00     0.158 C 
HETATM   11  C9  UNK     1      29.222  -6.789  38.303  1.00  0.00     0.018 C 
HETATM   12  C18 UNK     1      28.254  -6.273  39.332  1.00  0.00     0.069 C 
HETATM   13  H8  UNK     1      30.718  -5.686  39.198  1.00  0.00     0.165 HD
ENDROOT
BRANCH   3  14
HETATM   14  C10 UNK     1      29.568  -7.588  34.904  1.00  0.00     0.029 A 
HETATM   15  C17 UNK     1      29.207  -8.592  33.870  1.00  0.00     0.194 A 
HETATM   16  O6  UNK     1      29.224  -9.794  34.098  1.00  0.00    -0.287 OA
HETATM   17  C20 UNK     1      28.827  -8.060  32.549  1.00  0.00     0.049 A 
HETATM   18  C21 UNK     1      28.827  -6.680  32.346  1.00  0.00     0.089 A 
HETATM   19  C22 UNK     1      28.471  -8.924  31.509  1.00  0.00     0.025 A 
HETATM   20  O4  UNK     1      29.167  -5.787  33.330  1.00  0.00    -0.321 OA
HETATM   21  C23 UNK     1      28.470  -6.155  31.104  1.00  0.00     0.039 A 
HETATM   22  C19 UNK     1      29.519  -6.295  34.556  1.00  0.00     0.154 A 
HETATM   23  C25 UNK     1      28.114  -7.015  30.064  1.00  0.00     0.009 A 
HETATM   24  C24 UNK     1      28.114  -8.396  30.267  1.00  0.00    -0.061 A 
HETATM   25  C26 UNK     1      27.732  -9.311  29.153  1.00  0.00     0.048 C 
ENDBRANCH   3  14
BRANCH   7  26
HETATM   26  C15 UNK     1      27.587  -8.265  37.185  1.00  0.00     0.292 C 
HETATM   27  O5  UNK     1      26.574  -7.627  36.965  1.00  0.00    -0.259 OA
BRANCH  26  28
HETATM   28  O2  UNK     1      27.717  -9.602  37.357  1.00  0.00    -0.315 OA
BRANCH  28  29
HETATM   29  C14 UNK     1      26.525 -10.278  37.769  1.00  0.00     0.211 C 
BRANCH  29  30
HETATM   30  C11 UNK     1      25.805 -10.803  36.541  1.00  0.00     0.145 C 
HETATM   31  O1  UNK     1      24.580 -10.074  36.345  1.00  0.00    -0.384 OA
HETATM   32  C16 UNK     1      23.555 -11.005  35.966  1.00  0.00     0.168 C 
HETATM   33  C13 UNK     1      24.237 -12.332  35.706  1.00  0.00     0.029 C 
HETATM   34  C12 UNK     1      25.414 -12.266  36.646  1.00  0.00     0.036 C 
ENDBRANCH  29  30
ENDBRANCH  28  29
ENDBRANCH  26  28
ENDBRANCH   7  26
TORSDOF 5
ENDMDL
MODEL 4
REMARK VINA RESULT:      -8.4      1.629      4.592
REMARK  5 active torsions:
REMARK  status: ('A' for Active; 'I' for Inactive)
REMARK    1  A    between atoms: C14_21  and  O2_2 
REMARK    2  A    between atoms: C15_22  and  O2_2 
REMARK    3  A    between atoms: C1_8  and  C10_17 
REMARK    4  A    between atoms: C15_22  and  C5_12 
REMARK    5  A    between atoms: C11_18  and  C14_21 
ROOT
HETATM    1  O3  UNK     1      27.867  -7.886  36.546  1.00  0.00    -0.293 OA
HETATM    2  N1  UNK     1      32.496  -8.876  36.800  1.00  0.00    -0.362 N 
HETATM    3  C1  UNK     1      30.492  -7.375  35.463  1.00  0.00     0.104 C 
HETATM    4  C2  UNK     1      30.193  -8.367  36.583  1.00  0.00     0.024 C 
HETATM    5  C3  UNK     1      31.181  -9.070  37.177  1.00  0.00     0.020 C 
HETATM    6  C4  UNK     1      30.943 -10.054  38.292  1.00  0.00     0.058 C 
HETATM    7  C5  UNK     1      31.991  -7.155  35.255  1.00  0.00     0.052 C 
HETATM    8  C6  UNK     1      29.629  -9.799  39.022  1.00  0.00     0.014 C 
HETATM    9  C7  UNK     1      28.483  -9.647  38.038  1.00  0.00     0.084 C 
HETATM   10  C8  UNK     1      28.777  -8.560  37.028  1.00  0.00     0.158 C 
HETATM   11  C9  UNK     1      32.912  -7.914  35.894  1.00  0.00     0.018 C 
HETATM   12  C18 UNK     1      34.403  -7.808  35.718  1.00  0.00     0.069 C 
HETATM   13  H8  UNK     1      33.210  -9.422  37.269  1.00  0.00     0.165 HD
ENDROOT
BRANCH   3  14
HETATM   14  C10 UNK     1      29.854  -7.824  34.176  1.00  0.00     0.029 A 
HETATM   15  C17 UNK     1      28.866  -6.928  33.523  1.00  0.00     0.194 A 
HETATM   16  O6  UNK     1      28.559  -5.843  33.998  1.00  0.00    -0.287 OA
HETATM   17  C20 UNK     1      28.272  -7.418  32.266  1.00  0.00     0.049 A 
HETATM   18  C21 UNK     1      28.659  -8.664  31.771  1.00  0.00     0.089 A 
HETATM   19  C22 UNK     1      27.332  -6.648  31.575  1.00  0.00     0.025 A 
HETATM   20  O4  UNK     1      29.577  -9.460  32.408  1.00  0.00    -0.321 OA
HETATM   21  C23 UNK     1      28.109  -9.147  30.584  1.00  0.00     0.039 A 
HETATM   22  C19 UNK     1      30.123  -8.992  33.577  1.00  0.00     0.154 A 
HETATM   23  C25 UNK     1      27.171  -8.380  29.892  1.00  0.00     0.009 A 
HETATM   24  C24 UNK     1      26.784  -7.134  30.387  1.00  0.00    -0.061 A 
HETATM   25  C26 UNK     1      25.780  -6.317  29.643  1.00  0.00     0.048 C 
ENDBRANCH   3  14
BRANCH   7  26
HETATM   26  C15 UNK     1      32.379  -6.044  34.371  1.00  0.00     0.292 C 
HETATM   27  O5  UNK     1      33.097  -6.184  33.398  1.00  0.00    -0.259 OA
BRANCH  26  28
HETATM   28  O2  UNK     1      31.804  -4.908  34.834  1.00  0.00    -0.315 OA
BRANCH  28  29
HETATM   29  C14 UNK     1      32.670  -4.057  35.593  1.00  0.00     0.211 C 
BRANCH  29  30
HETATM   30  C11 UNK     1      32.174  -3.996  37.024  1.00  0.00     0.145 C 
HETATM   31  O1  UNK     1      32.776  -5.050  37.796  1.00  0.00    -0.384 OA
HETATM   32  C16 UNK     1      31.773  -5.615  38.653  1.00  0.00     0.168 C 
HETATM   33  C13 UNK     1      30.556  -4.720  38.558  1.00  0.00     0.029 C 
HETATM   34  C12 UNK     1      30.672  -4.183  37.154  1.00  0.00     0.036 C 
ENDBRANCH  29  30
ENDBRANCH  28  29
ENDBRANCH  26  28
ENDBRANCH   7  26
TORSDOF 5
ENDMDL
MODEL 5
REMARK VINA RESULT:      -8.3      2.354      6.295
REMARK  5 active torsions:
REMARK  status: ('A' for Active; 'I' for Inactive)
REMARK    1  A    between atoms: C14_21  and  O2_2 
REMARK    2  A    between atoms: C15_22  and  O2_2 
REMARK    3  A    between atoms: C1_8  and  C10_17 
REMARK    4  A    between atoms: C15_22  and  C5_12 
REMARK    5  A    between atoms: C11_18  and  C14_21 
ROOT
HETATM    1  O3  UNK     1      31.303  -5.405  36.337  1.00  0.00    -0.293 OA
HETATM    2  N1  UNK     1      34.113  -8.814  34.617  1.00  0.00    -0.362 N 
HETATM    3  C1  UNK     1      31.433  -7.952  34.988  1.00  0.00     0.104 C 
HETATM    4  C2  UNK     1      32.645  -7.174  35.494  1.00  0.00     0.024 C 
HETATM    5  C3  UNK     1      33.900  -7.635  35.306  1.00  0.00     0.020 C 
HETATM    6  C4  UNK     1      35.130  -6.904  35.776  1.00  0.00     0.058 C 
HETATM    7  C5  UNK     1      31.822  -9.150  34.120  1.00  0.00     0.052 C 
HETATM    8  C6  UNK     1      34.876  -5.416  35.988  1.00  0.00     0.014 C 
HETATM    9  C7  UNK     1      33.631  -5.192  36.827  1.00  0.00     0.084 C 
HETATM   10  C8  UNK     1      32.432  -5.877  36.209  1.00  0.00     0.158 C 
HETATM   11  C9  UNK     1      33.112  -9.542  33.995  1.00  0.00     0.018 C 
HETATM   12  C18 UNK     1      33.588 -10.734  33.208  1.00  0.00     0.069 C 
HETATM   13  H8  UNK     1      35.069  -9.127  34.497  1.00  0.00     0.165 HD
ENDROOT
BRANCH   3  14
HETATM   14  C10 UNK     1      30.579  -8.406  36.140  1.00  0.00     0.029 A 
HETATM   15  C17 UNK     1      29.172  -7.936  36.209  1.00  0.00     0.194 A 
HETATM   16  O6  UNK     1      28.691  -7.197  35.362  1.00  0.00    -0.287 OA
HETATM   17  C20 UNK     1      28.381  -8.411  37.359  1.00  0.00     0.049 A 
HETATM   18  C21 UNK     1      28.982  -9.252  38.297  1.00  0.00     0.089 A 
HETATM   19  C22 UNK     1      27.047  -8.025  37.514  1.00  0.00     0.025 A 
HETATM   20  O4  UNK     1      30.286  -9.663  38.194  1.00  0.00    -0.321 OA
HETATM   21  C23 UNK     1      28.252  -9.713  39.392  1.00  0.00     0.039 A 
HETATM   22  C19 UNK     1      31.012  -9.214  37.118  1.00  0.00     0.154 A 
HETATM   23  C25 UNK     1      26.919  -9.329  39.549  1.00  0.00     0.009 A 
HETATM   24  C24 UNK     1      26.318  -8.487  38.611  1.00  0.00    -0.061 A 
HETATM   25  C26 UNK     1      24.893  -8.080  38.783  1.00  0.00     0.048 C 
ENDBRANCH   3  14
BRANCH   7  26
HETATM   26  C15 UNK     1      30.732  -9.817  33.390  1.00  0.00     0.292 C 
HETATM   27  O5  UNK     1      30.110 -10.763  33.836  1.00  0.00    -0.259 OA
BRANCH  26  28
HETATM   28  O2  UNK     1      30.576  -9.197  32.195  1.00  0.00    -0.315 OA
BRANCH  28  29
HETATM   29  C14 UNK     1      29.370  -9.524  31.497  1.00  0.00     0.211 C 
BRANCH  29  30
HETATM   30  C11 UNK     1      28.778  -8.256  30.913  1.00  0.00     0.145 C 
HETATM   31  O1  UNK     1      28.700  -7.241  31.929  1.00  0.00    -0.384 OA
HETATM   32  C16 UNK     1      27.446  -6.557  31.792  1.00  0.00     0.168 C 
HETATM   33  C13 UNK     1      26.823  -7.031  30.496  1.00  0.00     0.029 C 
HETATM   34  C12 UNK     1      27.365  -8.434  30.385  1.00  0.00     0.036 C 
ENDBRANCH  29  30
ENDBRANCH  28  29
ENDBRANCH  26  28
ENDBRANCH   7  26
TORSDOF 5
ENDMDL
MODEL 6
REMARK VINA RESULT:      -8.2      2.516      3.785
REMARK  5 active torsions:
REMARK  status: ('A' for Active; 'I' for Inactive)
REMARK    1  A    between atoms: C14_21  and  O2_2 
REMARK    2  A    between atoms: C15_22  and  O2_2 
REMARK    3  A    between atoms: C1_8  and  C10_17 
REMARK    4  A    between atoms: C15_22  and  C5_12 
REMARK    5  A    between atoms: C11_18  and  C14_21 
ROOT
HETATM    1  O3  UNK     1      34.477  -8.926  32.186  1.00  0.00    -0.293 OA
HETATM    2  N1  UNK     1      34.244  -7.072  36.542  1.00  0.00    -0.362 N 
HETATM    3  C1  UNK     1      32.884  -8.593  34.568  1.00  0.00     0.104 C 
HETATM    4  C2  UNK     1      34.270  -7.988  34.358  1.00  0.00     0.024 C 
HETATM    5  C3  UNK     1      34.867  -7.258  35.323  1.00  0.00     0.020 C 
HETATM    6  C4  UNK     1      36.236  -6.646  35.172  1.00  0.00     0.058 C 
HETATM    7  C5  UNK     1      32.384  -8.435  36.005  1.00  0.00     0.052 C 
HETATM    8  C6  UNK     1      37.068  -7.342  34.101  1.00  0.00     0.014 C 
HETATM    9  C7  UNK     1      36.279  -7.489  32.812  1.00  0.00     0.084 C 
HETATM   10  C8  UNK     1      34.973  -8.212  33.057  1.00  0.00     0.158 C 
HETATM   11  C9  UNK     1      33.051  -7.676  36.906  1.00  0.00     0.018 C 
HETATM   12  C18 UNK     1      32.614  -7.419  38.323  1.00  0.00     0.069 C 
HETATM   13  H8  UNK     1      34.725  -6.518  37.242  1.00  0.00     0.165 HD
ENDROOT
BRANCH   3  14
HETATM   14  C10 UNK     1      31.894  -7.991  33.609  1.00  0.00     0.029 A 
HETATM   15  C17 UNK     1      31.118  -8.899  32.727  1.00  0.00     0.194 A 
HETATM   16  O6  UNK     1      31.259 -10.114  32.758  1.00  0.00    -0.287 OA
HETATM   17  C20 UNK     1      30.163  -8.256  31.806  1.00  0.00     0.049 A 
HETATM   18  C21 UNK     1      30.044  -6.865  31.812  1.00  0.00     0.089 A 
HETATM   19  C22 UNK     1      29.385  -9.024  30.935  1.00  0.00     0.025 A 
HETATM   20  O4  UNK     1      30.782  -6.063  32.644  1.00  0.00    -0.321 OA
HETATM   21  C23 UNK     1      29.147  -6.236  30.949  1.00  0.00     0.039 A 
HETATM   22  C19 UNK     1      31.667  -6.675  33.497  1.00  0.00     0.154 A 
HETATM   23  C25 UNK     1      28.369  -7.001  30.079  1.00  0.00     0.009 A 
HETATM   24  C24 UNK     1      28.488  -8.392  30.073  1.00  0.00    -0.061 A 
HETATM   25  C26 UNK     1      27.654  -9.205  29.141  1.00  0.00     0.048 C 
ENDBRANCH   3  14
BRANCH   7  26
HETATM   26  C15 UNK     1      31.175  -9.191  36.370  1.00  0.00     0.292 C 
HETATM   27  O5  UNK     1      31.203 -10.331  36.795  1.00  0.00    -0.259 OA
BRANCH  26  28
HETATM   28  O2  UNK     1      30.095  -8.402  36.149  1.00  0.00    -0.315 OA
BRANCH  28  29
HETATM   29  C14 UNK     1      29.250  -8.201  37.287  1.00  0.00     0.211 C 
BRANCH  29  30
HETATM   30  C11 UNK     1      28.949  -6.721  37.424  1.00  0.00     0.145 C 
HETATM   31  O1  UNK     1      29.838  -5.963  36.584  1.00  0.00    -0.384 OA
HETATM   32  C16 UNK     1      30.266  -4.801  37.310  1.00  0.00     0.168 C 
HETATM   33  C13 UNK     1      29.428  -4.733  38.570  1.00  0.00     0.029 C 
HETATM   34  C12 UNK     1      29.144  -6.190  38.833  1.00  0.00     0.036 C 
ENDBRANCH  29  30
ENDBRANCH  28  29
ENDBRANCH  26  28
ENDBRANCH   7  26
TORSDOF 5
ENDMDL
MODEL 7
REMARK VINA RESULT:      -8.2      2.259      5.694
REMARK  5 active torsions:
REMARK  status: ('A' for Active; 'I' for Inactive)
REMARK    1  A    between atoms: C14_21  and  O2_2 
REMARK    2  A    between atoms: C15_22  and  O2_2 
REMARK    3  A    between atoms: C1_8  and  C10_17 
REMARK    4  A    between atoms: C15_22  and  C5_12 
REMARK    5  A    between atoms: C11_18  and  C14_21 
ROOT
HETATM    1  O3  UNK     1      27.449  -8.627  36.091  1.00  0.00    -0.293 OA
HETATM    2  N1  UNK     1      30.879  -5.577  37.273  1.00  0.00    -0.362 N 
HETATM    3  C1  UNK     1      29.859  -7.285  35.249  1.00  0.00     0.104 C 
HETATM    4  C2  UNK     1      29.225  -7.145  36.630  1.00  0.00     0.024 C 
HETATM    5  C3  UNK     1      29.758  -6.330  37.564  1.00  0.00     0.020 C 
HETATM    6  C4  UNK     1      29.169  -6.148  38.938  1.00  0.00     0.058 C 
HETATM    7  C5  UNK     1      30.997  -6.288  35.018  1.00  0.00     0.052 C 
HETATM    8  C6  UNK     1      27.692  -6.524  38.991  1.00  0.00     0.014 C 
HETATM    9  C7  UNK     1      27.456  -7.885  38.362  1.00  0.00     0.084 C 
HETATM   10  C8  UNK     1      27.989  -7.926  36.946  1.00  0.00     0.158 C 
HETATM   11  C9  UNK     1      31.470  -5.512  36.021  1.00  0.00     0.018 C 
HETATM   12  C18 UNK     1      32.614  -4.541  35.907  1.00  0.00     0.069 C 
HETATM   13  H8  UNK     1      31.250  -4.977  38.001  1.00  0.00     0.165 HD
ENDROOT
BRANCH   3  14
HETATM   14  C10 UNK     1      30.356  -8.690  35.036  1.00  0.00     0.029 A 
HETATM   15  C17 UNK     1      30.002  -9.383  33.771  1.00  0.00     0.194 A 
HETATM   16  O6  UNK     1      29.325  -8.849  32.904  1.00  0.00    -0.287 OA
HETATM   17  C20 UNK     1      30.513 -10.758  33.616  1.00  0.00     0.049 A 
HETATM   18  C21 UNK     1      31.280 -11.317  34.638  1.00  0.00     0.089 A 
HETATM   19  C22 UNK     1      30.235 -11.495  32.461  1.00  0.00     0.025 A 
HETATM   20  O4  UNK     1      31.584 -10.640  35.792  1.00  0.00    -0.321 OA
HETATM   21  C23 UNK     1      31.774 -12.616  34.512  1.00  0.00     0.039 A 
HETATM   22  C19 UNK     1      31.102  -9.361  35.924  1.00  0.00     0.154 A 
HETATM   23  C25 UNK     1      31.498 -13.354  33.360  1.00  0.00     0.009 A 
HETATM   24  C24 UNK     1      30.731 -12.794  32.338  1.00  0.00    -0.061 A 
HETATM   25  C26 UNK     1      30.439 -13.587  31.108  1.00  0.00     0.048 C 
ENDBRANCH   3  14
BRANCH   7  26
HETATM   26  C15 UNK     1      31.509  -6.178  33.643  1.00  0.00     0.292 C 
HETATM   27  O5  UNK     1      32.551  -6.688  33.276  1.00  0.00    -0.259 OA
BRANCH  26  28
HETATM   28  O2  UNK     1      30.634  -5.440  32.918  1.00  0.00    -0.315 OA
BRANCH  28  29
HETATM   29  C14 UNK     1      30.545  -5.792  31.534  1.00  0.00     0.211 C 
BRANCH  29  30
HETATM   30  C11 UNK     1      29.113  -5.615  31.069  1.00  0.00     0.145 C 
HETATM   31  O1  UNK     1      28.220  -5.708  32.193  1.00  0.00    -0.384 OA
HETATM   32  C16 UNK     1      27.073  -6.475  31.798  1.00  0.00     0.168 C 
HETATM   33  C13 UNK     1      27.168  -6.674  30.300  1.00  0.00     0.029 C 
HETATM   34  C12 UNK     1      28.660  -6.675  30.080  1.00  0.00     0.036 C 
ENDBRANCH  29  30
ENDBRANCH  28  29
ENDBRANCH  26  28
ENDBRANCH   7  26
TORSDOF 5
ENDMDL
MODEL 8
REMARK VINA RESULT:      -8.2      2.109      3.258
REMARK  5 active torsions:
REMARK  status: ('A' for Active; 'I' for Inactive)
REMARK    1  A    between atoms: C14_21  and  O2_2 
REMARK    2  A    between atoms: C15_22  and  O2_2 
REMARK    3  A    between atoms: C1_8  and  C10_17 
REMARK    4  A    between atoms: C15_22  and  C5_12 
REMARK    5  A    between atoms: C11_18  and  C14_21 
ROOT
HETATM    1  O3  UNK     1      33.598  -8.272  33.742  1.00  0.00    -0.293 OA
HETATM    2  N1  UNK     1      32.875  -5.073  37.165  1.00  0.00    -0.362 N 
HETATM    3  C1  UNK     1      31.681  -7.057  35.522  1.00  0.00     0.104 C 
HETATM    4  C2  UNK     1      33.150  -6.658  35.425  1.00  0.00     0.024 C 
HETATM    5  C3  UNK     1      33.667  -5.696  36.219  1.00  0.00     0.020 C 
HETATM    6  C4  UNK     1      35.111  -5.269  36.172  1.00  0.00     0.058 C 
HETATM    7  C5  UNK     1      30.967  -6.398  36.704  1.00  0.00     0.052 C 
HETATM    8  C6  UNK     1      36.012  -6.338  35.564  1.00  0.00     0.014 C 
HETATM    9  C7  UNK     1      35.444  -6.844  34.251  1.00  0.00     0.084 C 
HETATM   10  C8  UNK     1      34.030  -7.349  34.432  1.00  0.00     0.158 C 
HETATM   11  C9  UNK     1      31.566  -5.435  37.443  1.00  0.00     0.018 C 
HETATM   12  C18 UNK     1      30.931  -4.694  38.589  1.00  0.00     0.069 C 
HETATM   13  H8  UNK     1      33.299  -4.356  37.742  1.00  0.00     0.165 HD
ENDROOT
BRANCH   3  14
HETATM   14  C10 UNK     1      30.961  -6.735  34.241  1.00  0.00     0.029 A 
HETATM   15  C17 UNK     1      30.257  -7.830  33.527  1.00  0.00     0.194 A 
HETATM   16  O6  UNK     1      30.246  -8.979  33.948  1.00  0.00    -0.287 OA
HETATM   17  C20 UNK     1      29.570  -7.459  32.276  1.00  0.00     0.049 A 
HETATM   18  C21 UNK     1      29.617  -6.133  31.843  1.00  0.00     0.089 A 
HETATM   19  C22 UNK     1      28.879  -8.418  31.531  1.00  0.00     0.025 A 
HETATM   20  O4  UNK     1      30.279  -5.151  32.535  1.00  0.00    -0.321 OA
HETATM   21  C23 UNK     1      28.973  -5.760  30.663  1.00  0.00     0.039 A 
HETATM   22  C19 UNK     1      30.915  -5.511  33.697  1.00  0.00     0.154 A 
HETATM   23  C25 UNK     1      28.283  -6.716  29.917  1.00  0.00     0.009 A 
HETATM   24  C24 UNK     1      28.236  -8.042  30.351  1.00  0.00    -0.061 A 
HETATM   25  C26 UNK     1      27.496  -9.060  29.550  1.00  0.00     0.048 C 
ENDBRANCH   3  14
BRANCH   7  26
HETATM   26  C15 UNK     1      29.622  -6.901  37.027  1.00  0.00     0.292 C 
HETATM   27  O5  UNK     1      28.614  -6.527  36.456  1.00  0.00    -0.259 OA
BRANCH  26  28
HETATM   28  O2  UNK     1      29.734  -7.811  38.025  1.00  0.00    -0.315 OA
BRANCH  28  29
HETATM   29  C14 UNK     1      29.423  -9.158  37.655  1.00  0.00     0.211 C 
BRANCH  29  30
HETATM   30  C11 UNK     1      28.059  -9.520  38.210  1.00  0.00     0.145 C 
HETATM   31  O1  UNK     1      27.060  -9.371  37.186  1.00  0.00    -0.384 OA
HETATM   32  C16 UNK     1      25.897  -8.766  37.771  1.00  0.00     0.168 C 
HETATM   33  C13 UNK     1      26.117  -8.745  39.269  1.00  0.00     0.029 C 
HETATM   34  C12 UNK     1      27.618  -8.635  39.362  1.00  0.00     0.036 C 
ENDBRANCH  29  30
ENDBRANCH  28  29
ENDBRANCH  26  28
ENDBRANCH   7  26
TORSDOF 5
ENDMDL
MODEL 9
REMARK VINA RESULT:      -8.2      2.383      4.058
REMARK  5 active torsions:
REMARK  status: ('A' for Active; 'I' for Inactive)
REMARK    1  A    between atoms: C14_21  and  O2_2 
REMARK    2  A    between atoms: C15_22  and  O2_2 
REMARK    3  A    between atoms: C1_8  and  C10_17 
REMARK    4  A    between atoms: C15_22  and  C5_12 
REMARK    5  A    between atoms: C11_18  and  C14_21 
ROOT
HETATM    1  O3  UNK     1      32.098  -4.740  36.349  1.00  0.00    -0.293 OA
HETATM    2  N1  UNK     1      28.405  -7.275  37.900  1.00  0.00    -0.362 N 
HETATM    3  C1  UNK     1      30.694  -7.257  36.221  1.00  0.00     0.104 C 
HETATM    4  C2  UNK     1      30.246  -6.053  37.045  1.00  0.00     0.024 C 
HETATM    5  C3  UNK     1      29.140  -6.107  37.817  1.00  0.00     0.020 C 
HETATM    6  C4  UNK     1      28.658  -4.953  38.656  1.00  0.00     0.058 C 
HETATM    7  C5  UNK     1      29.880  -8.516  36.525  1.00  0.00     0.052 C 
HETATM    8  C6  UNK     1      29.768  -3.956  38.965  1.00  0.00     0.014 C 
HETATM    9  C7  UNK     1      30.517  -3.569  37.703  1.00  0.00     0.084 C 
HETATM   10  C8  UNK     1      31.052  -4.794  36.994  1.00  0.00     0.158 C 
HETATM   11  C9  UNK     1      28.778  -8.472  37.310  1.00  0.00     0.018 C 
HETATM   12  C18 UNK     1      27.885  -9.642  37.625  1.00  0.00     0.069 C 
HETATM   13  H8  UNK     1      27.581  -7.276  38.490  1.00  0.00     0.165 HD
ENDROOT
BRANCH   3  14
HETATM   14  C10 UNK     1      30.629  -6.944  34.751  1.00  0.00     0.029 A 
HETATM   15  C17 UNK     1      31.755  -7.373  33.883  1.00  0.00     0.194 A 
HETATM   16  O6  UNK     1      32.727  -7.970  34.327  1.00  0.00    -0.287 OA
HETATM   17  C20 UNK     1      31.640  -7.040  32.452  1.00  0.00     0.049 A 
HETATM   18  C21 UNK     1      30.510  -6.356  32.002  1.00  0.00     0.089 A 
HETATM   19  C22 UNK     1      32.648  -7.400  31.553  1.00  0.00     0.025 A 
HETATM   20  O4  UNK     1      29.491  -5.978  32.839  1.00  0.00    -0.321 OA
HETATM   21  C23 UNK     1      30.380  -6.031  30.652  1.00  0.00     0.039 A 
HETATM   22  C19 UNK     1      29.611  -6.295  34.170  1.00  0.00     0.154 A 
HETATM   23  C25 UNK     1      31.385  -6.390  29.752  1.00  0.00     0.009 A 
HETATM   24  C24 UNK     1      32.515  -7.073  30.202  1.00  0.00    -0.061 A 
HETATM   25  C26 UNK     1      33.586  -7.456  29.237  1.00  0.00     0.048 C 
ENDBRANCH   3  14
BRANCH   7  26
HETATM   26  C15 UNK     1      30.387  -9.780  35.967  1.00  0.00     0.292 C 
HETATM   27  O5  UNK     1      31.285 -10.423  36.477  1.00  0.00    -0.259 OA
BRANCH  26  28
HETATM   28  O2  UNK     1      29.687 -10.061  34.841  1.00  0.00    -0.315 OA
BRANCH  28  29
HETATM   29  C14 UNK     1      30.410 -10.794  33.846  1.00  0.00     0.211 C 
BRANCH  29  30
HETATM   30  C11 UNK     1      29.640 -10.747  32.541  1.00  0.00     0.145 C 
HETATM   31  O1  UNK     1      30.553 -10.823  31.432  1.00  0.00    -0.384 OA
HETATM   32  C16 UNK     1      30.123  -9.896  30.425  1.00  0.00     0.168 C 
HETATM   33  C13 UNK     1      28.759  -9.388  30.846  1.00  0.00     0.029 C 
HETATM   34  C12 UNK     1      28.849  -9.465  32.349  1.00  0.00     0.036 C 
ENDBRANCH  29  30
ENDBRANCH  28  29
ENDBRANCH  26  28
ENDBRANCH   7  26
TORSDOF 5
ENDMDL
MODEL 10
REMARK VINA RESULT:      -8.1      2.601      5.900
REMARK  5 active torsions:
REMARK  status: ('A' for Active; 'I' for Inactive)
REMARK    1  A    between atoms: C14_21  and  O2_2 
REMARK    2  A    between atoms: C15_22  and  O2_2 
REMARK    3  A    between atoms: C1_8  and  C10_17 
REMARK    4  A    between atoms: C15_22  and  C5_12 
REMARK    5  A    between atoms: C11_18  and  C14_21 
ROOT
HETATM    1  O3  UNK     1      31.336  -9.415  34.076  1.00  0.00    -0.293 OA
HETATM    2  N1  UNK     1      31.306  -4.700  34.558  1.00  0.00    -0.362 N 
HETATM    3  C1  UNK     1      31.891  -7.179  35.811  1.00  0.00     0.104 C 
HETATM    4  C2  UNK     1      31.305  -7.064  34.407  1.00  0.00     0.024 C 
HETATM    5  C3  UNK     1      31.029  -5.860  33.861  1.00  0.00     0.020 C 
HETATM    6  C4  UNK     1      30.459  -5.689  32.477  1.00  0.00     0.058 C 
HETATM    7  C5  UNK     1      32.282  -5.822  36.400  1.00  0.00     0.052 C 
HETATM    8  C6  UNK     1      30.717  -6.901  31.589  1.00  0.00     0.014 C 
HETATM    9  C7  UNK     1      30.324  -8.186  32.296  1.00  0.00     0.084 C 
HETATM   10  C8  UNK     1      31.035  -8.311  33.626  1.00  0.00     0.158 C 
HETATM   11  C9  UNK     1      31.957  -4.663  35.780  1.00  0.00     0.018 C 
HETATM   12  C18 UNK     1      32.252  -3.282  36.303  1.00  0.00     0.069 C 
HETATM   13  H8  UNK     1      31.084  -3.815  34.114  1.00  0.00     0.165 HD
ENDROOT
BRANCH   3  14
HETATM   14  C10 UNK     1      30.927  -7.879  36.729  1.00  0.00     0.029 A 
HETATM   15  C17 UNK     1      29.531  -7.379  36.808  1.00  0.00     0.194 A 
HETATM   16  O6  UNK     1      29.145  -6.421  36.152  1.00  0.00    -0.287 OA
HETATM   17  C20 UNK     1      28.629  -8.102  37.724  1.00  0.00     0.049 A 
HETATM   18  C21 UNK     1      29.123  -9.187  38.449  1.00  0.00     0.089 A 
HETATM   19  C22 UNK     1      27.296  -7.708  37.869  1.00  0.00     0.025 A 
HETATM   20  O4  UNK     1      30.422  -9.617  38.345  1.00  0.00    -0.321 OA
HETATM   21  C23 UNK     1      28.288  -9.885  39.321  1.00  0.00     0.039 A 
HETATM   22  C19 UNK     1      31.251  -8.935  37.488  1.00  0.00     0.154 A 
HETATM   23  C25 UNK     1      26.956  -9.494  39.467  1.00  0.00     0.009 A 
HETATM   24  C24 UNK     1      26.462  -8.409  38.742  1.00  0.00    -0.061 A 
HETATM   25  C26 UNK     1      25.037  -7.995  38.902  1.00  0.00     0.048 C 
ENDBRANCH   3  14
BRANCH   7  26
HETATM   26  C15 UNK     1      33.073  -5.844  37.641  1.00  0.00     0.292 C 
HETATM   27  O5  UNK     1      32.703  -5.327  38.678  1.00  0.00    -0.259 OA
BRANCH  26  28
HETATM   28  O2  UNK     1      34.224  -6.518  37.402  1.00  0.00    -0.315 OA
BRANCH  28  29
HETATM   29  C14 UNK     1      35.138  -5.861  36.517  1.00  0.00     0.211 C 
BRANCH  29  30
HETATM   30  C11 UNK     1      35.313  -6.708  35.271  1.00  0.00     0.145 C 
HETATM   31  O1  UNK     1      36.647  -7.246  35.230  1.00  0.00    -0.384 OA
HETATM   32  C16 UNK     1      37.130  -7.158  33.882  1.00  0.00     0.168 C 
HETATM   33  C13 UNK     1      35.956  -6.748  33.017  1.00  0.00     0.029 C 
HETATM   34  C12 UNK     1      35.132  -5.930  33.979  1.00  0.00     0.036 C 
ENDBRANCH  29  30
ENDBRANCH  28  29
ENDBRANCH  26  28
ENDBRANCH   7  26
TORSDOF 5
ENDMDL
