MODEL 1
REMARK VINA RESULT:      -7.6      0.000      0.000
REMARK  3 active torsions:
REMARK  status: ('A' for Active; 'I' for Inactive)
REMARK    1  A    between atoms: C11_17  and  O4_4 
REMARK    2  A    between atoms: C15_21  and  O4_4 
REMARK       I    between atoms: C5_11  and  N1_6 
REMARK    3  A    between atoms: C5_11  and  C6_12 
ROOT
HETATM    1  O2  UNK     1      11.285   7.416   9.678  1.00  0.00    -0.271 OA
HETATM    2  O5  UNK     1      12.805   8.074  11.253  1.00  0.00    -0.259 OA
HETATM    3  C6  UNK     1      13.662   7.525   9.113  1.00  0.00     0.108 A 
HETATM    4  C7  UNK     1      12.048   6.829   7.446  1.00  0.00     0.002 A 
HETATM    5  C8  UNK     1      13.411   7.116   7.864  1.00  0.00     0.037 A 
HETATM    6  C9  UNK     1      11.015   6.986   8.366  1.00  0.00     0.123 A 
HETATM    7  C10 UNK     1      12.579   7.699  10.108  1.00  0.00     0.304 A 
HETATM    8  C11 UNK     1       9.687   6.728   8.029  1.00  0.00     0.103 A 
HETATM    9  C12 UNK     1      11.739   6.400   6.153  1.00  0.00     0.014 A 
HETATM   10  C13 UNK     1       9.389   6.301   6.736  1.00  0.00     0.040 A 
HETATM   11  C14 UNK     1      10.413   6.137   5.801  1.00  0.00     0.004 A 
ENDROOT
BRANCH   3  12
HETATM   12  C5  UNK     1      15.077   7.791   9.441  1.00  0.00     0.260 C 
HETATM   13  O3  UNK     1      15.787   6.823   9.719  1.00  0.00    -0.267 OA
HETATM   14  N1  UNK     1      15.515   9.110   9.418  1.00  0.00    -0.344 N 
HETATM   15  C1  UNK     1      16.911   9.409   9.741  1.00  0.00     0.152 C 
HETATM   16  C2  UNK     1      14.688  10.311   9.233  1.00  0.00     0.152 C 
HETATM   17  C3  UNK     1      17.489  10.386   8.727  1.00  0.00     0.187 C 
HETATM   18  O1  UNK     1      16.681  11.565   8.658  1.00  0.00    -0.388 OA
HETATM   19  C4  UNK     1      15.351  11.253   8.237  1.00  0.00     0.187 C 
ENDBRANCH   3  12
BRANCH   8  20
HETATM   20  O4  UNK     1       8.688   6.886   8.937  1.00  0.00    -0.349 OA
BRANCH  20  21
HETATM   21  C15 UNK     1       7.820   5.773   9.150  1.00  0.00     0.171 C 
HETATM   22  C16 UNK     1       8.512   4.775  10.054  1.00  0.00     0.034 C 
ENDBRANCH  20  21
ENDBRANCH   8  20
TORSDOF 3
ENDMDL
MODEL 2
REMARK VINA RESULT:      -7.3     28.616     30.384
REMARK  3 active torsions:
REMARK  status: ('A' for Active; 'I' for Inactive)
REMARK    1  A    between atoms: C11_17  and  O4_4 
REMARK    2  A    between atoms: C15_21  and  O4_4 
REMARK       I    between atoms: C5_11  and  N1_6 
REMARK    3  A    between atoms: C5_11  and  C6_12 
ROOT
HETATM    1  O2  UNK     1      19.336  -1.494  34.573  1.00  0.00    -0.271 OA
HETATM    2  O5  UNK     1      20.747  -3.230  34.104  1.00  0.00    -0.259 OA
HETATM    3  C6  UNK     1      19.950  -3.079  36.330  1.00  0.00     0.108 A 
HETATM    4  C7  UNK     1      18.454  -1.239  36.824  1.00  0.00     0.002 A 
HETATM    5  C8  UNK     1      19.197  -2.425  37.222  1.00  0.00     0.037 A 
HETATM    6  C9  UNK     1      18.542  -0.800  35.505  1.00  0.00     0.123 A 
HETATM    7  C10 UNK     1      20.059  -2.632  34.923  1.00  0.00     0.304 A 
HETATM    8  C11 UNK     1      17.856   0.328  35.060  1.00  0.00     0.103 A 
HETATM    9  C12 UNK     1      17.656  -0.524  37.720  1.00  0.00     0.014 A 
HETATM   10  C13 UNK     1      17.061   1.034  35.961  1.00  0.00     0.040 A 
HETATM   11  C14 UNK     1      16.962   0.610  37.288  1.00  0.00     0.004 A 
ENDROOT
BRANCH   3  12
HETATM   12  C5  UNK     1      20.665  -4.270  36.831  1.00  0.00     0.260 C 
HETATM   13  O3  UNK     1      21.791  -4.101  37.302  1.00  0.00    -0.267 OA
HETATM   14  N1  UNK     1      20.027  -5.502  36.736  1.00  0.00    -0.344 N 
HETATM   15  C1  UNK     1      20.709  -6.704  37.220  1.00  0.00     0.152 C 
HETATM   16  C2  UNK     1      18.752  -5.785  36.061  1.00  0.00     0.152 C 
HETATM   17  C3  UNK     1      19.759  -7.547  38.059  1.00  0.00     0.187 C 
HETATM   18  O1  UNK     1      18.578  -7.854  37.312  1.00  0.00    -0.388 OA
HETATM   19  C4  UNK     1      17.876  -6.663  36.946  1.00  0.00     0.187 C 
ENDBRANCH   3  12
BRANCH   8  20
HETATM   20  O4  UNK     1      17.950   0.744  33.770  1.00  0.00    -0.349 OA
BRANCH  20  21
HETATM   21  C15 UNK     1      18.121   2.144  33.549  1.00  0.00     0.171 C 
HETATM   22  C16 UNK     1      18.313   2.389  32.068  1.00  0.00     0.034 C 
ENDBRANCH  20  21
ENDBRANCH   8  20
TORSDOF 3
ENDMDL
MODEL 3
REMARK VINA RESULT:      -7.3     23.017     24.637
REMARK  3 active torsions:
REMARK  status: ('A' for Active; 'I' for Inactive)
REMARK    1  A    between atoms: C11_17  and  O4_4 
REMARK    2  A    between atoms: C15_21  and  O4_4 
REMARK       I    between atoms: C5_11  and  N1_6 
REMARK    3  A    between atoms: C5_11  and  C6_12 
ROOT
HETATM    1  O2  UNK     1      18.719   0.568  32.148  1.00  0.00    -0.271 OA
HETATM    2  O5  UNK     1      17.723   2.610  32.393  1.00  0.00    -0.259 OA
HETATM    3  C6  UNK     1      18.823   2.203  30.334  1.00  0.00     0.108 A 
HETATM    4  C7  UNK     1      19.877   0.037  30.078  1.00  0.00     0.002 A 
HETATM    5  C8  UNK     1      19.529   1.358  29.575  1.00  0.00     0.037 A 
HETATM    6  C9  UNK     1      19.463  -0.327  31.356  1.00  0.00     0.123 A 
HETATM    7  C10 UNK     1      18.372   1.838  31.696  1.00  0.00     0.304 A 
HETATM    8  C11 UNK     1      19.762  -1.576  31.895  1.00  0.00     0.103 A 
HETATM    9  C12 UNK     1      20.613  -0.878  29.321  1.00  0.00     0.014 A 
HETATM   10  C13 UNK     1      20.497  -2.483  31.133  1.00  0.00     0.040 A 
HETATM   11  C14 UNK     1      20.921  -2.134  29.849  1.00  0.00     0.004 A 
ENDROOT
BRANCH   3  12
HETATM   12  C5  UNK     1      18.521   3.519  29.736  1.00  0.00     0.260 C 
HETATM   13  O3  UNK     1      17.917   3.529  28.661  1.00  0.00    -0.267 OA
HETATM   14  N1  UNK     1      18.938   4.657  30.417  1.00  0.00    -0.344 N 
HETATM   15  C1  UNK     1      18.657   5.977  29.849  1.00  0.00     0.152 C 
HETATM   16  C2  UNK     1      19.779   4.705  31.621  1.00  0.00     0.152 C 
HETATM   17  C3  UNK     1      18.115   6.908  30.924  1.00  0.00     0.187 C 
HETATM   18  O1  UNK     1      19.021   6.971  32.030  1.00  0.00    -0.388 OA
HETATM   19  C4  UNK     1      19.192   5.684  32.629  1.00  0.00     0.187 C 
ENDBRANCH   3  12
BRANCH   8  20
HETATM   20  O4  UNK     1      19.351  -1.920  33.145  1.00  0.00    -0.349 OA
BRANCH  20  21
HETATM   21  C15 UNK     1      20.320  -2.514  34.008  1.00  0.00     0.171 C 
HETATM   22  C16 UNK     1      20.032  -2.095  35.434  1.00  0.00     0.034 C 
ENDBRANCH  20  21
ENDBRANCH   8  20
TORSDOF 3
ENDMDL
MODEL 4
REMARK VINA RESULT:      -7.3     23.159     24.793
REMARK  3 active torsions:
REMARK  status: ('A' for Active; 'I' for Inactive)
REMARK    1  A    between atoms: C11_17  and  O4_4 
REMARK    2  A    between atoms: C15_21  and  O4_4 
REMARK       I    between atoms: C5_11  and  N1_6 
REMARK    3  A    between atoms: C5_11  and  C6_12 
ROOT
HETATM    1  O2  UNK     1      18.704   2.175  32.839  1.00  0.00    -0.271 OA
HETATM    2  O5  UNK     1      18.132   3.775  34.367  1.00  0.00    -0.259 OA
HETATM    3  C6  UNK     1      17.853   4.338  32.083  1.00  0.00     0.108 A 
HETATM    4  C7  UNK     1      18.459   2.639  30.466  1.00  0.00     0.002 A 
HETATM    5  C8  UNK     1      17.960   3.964  30.802  1.00  0.00     0.037 A 
HETATM    6  C9  UNK     1      18.820   1.774  31.495  1.00  0.00     0.123 A 
HETATM    7  C10 UNK     1      18.231   3.435  33.193  1.00  0.00     0.304 A 
HETATM    8  C11 UNK     1      19.303   0.493  31.240  1.00  0.00     0.103 A 
HETATM    9  C12 UNK     1      18.588   2.206  29.144  1.00  0.00     0.014 A 
HETATM   10  C13 UNK     1      19.429   0.068  29.918  1.00  0.00     0.040 A 
HETATM   11  C14 UNK     1      19.072   0.923  28.873  1.00  0.00     0.004 A 
ENDROOT
BRANCH   3  12
HETATM   12  C5  UNK     1      17.337   5.701  32.322  1.00  0.00     0.260 C 
HETATM   13  O3  UNK     1      16.117   5.866  32.263  1.00  0.00    -0.267 OA
HETATM   14  N1  UNK     1      18.257   6.709  32.593  1.00  0.00    -0.344 N 
HETATM   15  C1  UNK     1      17.779   8.072  32.831  1.00  0.00     0.152 C 
HETATM   16  C2  UNK     1      19.721   6.603  32.537  1.00  0.00     0.152 C 
HETATM   17  C3  UNK     1      18.471   8.667  34.049  1.00  0.00     0.187 C 
HETATM   18  O1  UNK     1      19.892   8.606  33.892  1.00  0.00    -0.388 OA
HETATM   19  C4  UNK     1      20.339   7.254  33.768  1.00  0.00     0.187 C 
ENDBRANCH   3  12
BRANCH   8  20
HETATM   20  O4  UNK     1      19.652  -0.343  32.254  1.00  0.00    -0.349 OA
BRANCH  20  21
HETATM   21  C15 UNK     1      19.583  -1.745  31.995  1.00  0.00     0.171 C 
HETATM   22  C16 UNK     1      20.886  -2.388  32.419  1.00  0.00     0.034 C 
ENDBRANCH  20  21
ENDBRANCH   8  20
TORSDOF 3
ENDMDL
MODEL 5
REMARK VINA RESULT:      -7.3     25.199     26.912
REMARK  3 active torsions:
REMARK  status: ('A' for Active; 'I' for Inactive)
REMARK    1  A    between atoms: C11_17  and  O4_4 
REMARK    2  A    between atoms: C15_21  and  O4_4 
REMARK       I    between atoms: C5_11  and  N1_6 
REMARK    3  A    between atoms: C5_11  and  C6_12 
ROOT
HETATM    1  O2  UNK     1      18.669   1.194  31.936  1.00  0.00    -0.271 OA
HETATM    2  O5  UNK     1      17.616   1.794  33.874  1.00  0.00    -0.259 OA
HETATM    3  C6  UNK     1      18.319  -0.462  33.701  1.00  0.00     0.108 A 
HETATM    4  C7  UNK     1      19.436  -1.095  31.646  1.00  0.00     0.002 A 
HETATM    5  C8  UNK     1      18.917  -1.409  32.969  1.00  0.00     0.037 A 
HETATM    6  C9  UNK     1      19.299   0.202  31.161  1.00  0.00     0.123 A 
HETATM    7  C10 UNK     1      18.162   0.924  33.205  1.00  0.00     0.304 A 
HETATM    8  C11 UNK     1      19.774   0.568  29.903  1.00  0.00     0.103 A 
HETATM    9  C12 UNK     1      20.067  -2.051  30.847  1.00  0.00     0.014 A 
HETATM   10  C13 UNK     1      20.403  -0.392  29.112  1.00  0.00     0.040 A 
HETATM   11  C14 UNK     1      20.548  -1.699  29.584  1.00  0.00     0.004 A 
ENDROOT
BRANCH   3  12
HETATM   12  C5  UNK     1      17.826  -0.879  35.029  1.00  0.00     0.260 C 
HETATM   13  O3  UNK     1      16.612  -0.811  35.232  1.00  0.00    -0.267 OA
HETATM   14  N1  UNK     1      18.758  -1.317  35.963  1.00  0.00    -0.344 N 
HETATM   15  C1  UNK     1      18.303  -1.735  37.290  1.00  0.00     0.152 C 
HETATM   16  C2  UNK     1      20.221  -1.287  35.829  1.00  0.00     0.152 C 
HETATM   17  C3  UNK     1      18.970  -3.044  37.688  1.00  0.00     0.187 C 
HETATM   18  O1  UNK     1      20.393  -2.919  37.614  1.00  0.00    -0.388 OA
HETATM   19  C4  UNK     1      20.814  -2.615  36.281  1.00  0.00     0.187 C 
ENDBRANCH   3  12
BRANCH   8  20
HETATM   20  O4  UNK     1      19.634   1.839  29.440  1.00  0.00    -0.349 OA
BRANCH  20  21
HETATM   21  C15 UNK     1      18.305   2.307  29.216  1.00  0.00     0.171 C 
HETATM   22  C16 UNK     1      17.639   1.422  28.184  1.00  0.00     0.034 C 
ENDBRANCH  20  21
ENDBRANCH   8  20
TORSDOF 3
ENDMDL
MODEL 6
REMARK VINA RESULT:      -7.2     25.943     27.566
REMARK  3 active torsions:
REMARK  status: ('A' for Active; 'I' for Inactive)
REMARK    1  A    between atoms: C11_17  and  O4_4 
REMARK    2  A    between atoms: C15_21  and  O4_4 
REMARK       I    between atoms: C5_11  and  N1_6 
REMARK    3  A    between atoms: C5_11  and  C6_12 
ROOT
HETATM    1  O2  UNK     1      20.479  -2.567  34.575  1.00  0.00    -0.271 OA
HETATM    2  O5  UNK     1      21.604  -2.998  32.634  1.00  0.00    -0.259 OA
HETATM    3  C6  UNK     1      19.684  -1.621  32.466  1.00  0.00     0.108 A 
HETATM    4  C7  UNK     1      18.494  -1.165  34.527  1.00  0.00     0.002 A 
HETATM    5  C8  UNK     1      18.663  -1.019  33.089  1.00  0.00     0.037 A 
HETATM    6  C9  UNK     1      19.408  -1.937  35.237  1.00  0.00     0.123 A 
HETATM    7  C10 UNK     1      20.668  -2.447  33.201  1.00  0.00     0.304 A 
HETATM    8  C11 UNK     1      19.303  -2.116  36.615  1.00  0.00     0.103 A 
HETATM    9  C12 UNK     1      17.445  -0.556  35.218  1.00  0.00     0.014 A 
HETATM   10  C13 UNK     1      18.253  -1.504  37.297  1.00  0.00     0.040 A 
HETATM   11  C14 UNK     1      17.326  -0.726  36.600  1.00  0.00     0.004 A 
ENDROOT
BRANCH   3  12
HETATM   12  C5  UNK     1      19.769  -1.413  31.007  1.00  0.00     0.260 C 
HETATM   13  O3  UNK     1      19.939  -2.409  30.300  1.00  0.00    -0.267 OA
HETATM   14  N1  UNK     1      19.658  -0.114  30.524  1.00  0.00    -0.344 N 
HETATM   15  C1  UNK     1      19.742   0.127  29.083  1.00  0.00     0.152 C 
HETATM   16  C2  UNK     1      19.597   1.119  31.321  1.00  0.00     0.152 C 
HETATM   17  C3  UNK     1      18.635   1.073  28.641  1.00  0.00     0.187 C 
HETATM   18  O1  UNK     1      18.685   2.285  29.401  1.00  0.00    -0.388 OA
HETATM   19  C4  UNK     1      18.493   2.027  30.794  1.00  0.00     0.187 C 
ENDBRANCH   3  12
BRANCH   8  20
HETATM   20  O4  UNK     1      20.203  -2.872  37.297  1.00  0.00    -0.349 OA
BRANCH  20  21
HETATM   21  C15 UNK     1      20.010  -4.286  37.281  1.00  0.00     0.171 C 
HETATM   22  C16 UNK     1      21.277  -4.962  37.759  1.00  0.00     0.034 C 
ENDBRANCH  20  21
ENDBRANCH   8  20
TORSDOF 3
ENDMDL
MODEL 7
REMARK VINA RESULT:      -7.2     31.198     32.762
REMARK  3 active torsions:
REMARK  status: ('A' for Active; 'I' for Inactive)
REMARK    1  A    between atoms: C11_17  and  O4_4 
REMARK    2  A    between atoms: C15_21  and  O4_4 
REMARK       I    between atoms: C5_11  and  N1_6 
REMARK    3  A    between atoms: C5_11  and  C6_12 
ROOT
HETATM    1  O2  UNK     1      19.182  -6.791  37.722  1.00  0.00    -0.271 OA
HETATM    2  O5  UNK     1      17.892  -5.562  36.291  1.00  0.00    -0.259 OA
HETATM    3  C6  UNK     1      20.089  -4.769  36.690  1.00  0.00     0.108 A 
HETATM    4  C7  UNK     1      21.454  -6.076  38.207  1.00  0.00     0.002 A 
HETATM    5  C8  UNK     1      21.258  -4.939  37.319  1.00  0.00     0.037 A 
HETATM    6  C9  UNK     1      20.408  -6.977  38.387  1.00  0.00     0.123 A 
HETATM    7  C10 UNK     1      18.963  -5.714  36.867  1.00  0.00     0.304 A 
HETATM    8  C11 UNK     1      20.532  -8.085  39.222  1.00  0.00     0.103 A 
HETATM    9  C12 UNK     1      22.656  -6.293  38.884  1.00  0.00     0.014 A 
HETATM   10  C13 UNK     1      21.735  -8.295  39.894  1.00  0.00     0.040 A 
HETATM   11  C14 UNK     1      22.794  -7.400  39.725  1.00  0.00     0.004 A 
ENDROOT
BRANCH   3  12
HETATM   12  C5  UNK     1      19.988  -3.586  35.812  1.00  0.00     0.260 C 
HETATM   13  O3  UNK     1      20.405  -3.698  34.658  1.00  0.00    -0.267 OA
HETATM   14  N1  UNK     1      19.436  -2.425  36.342  1.00  0.00    -0.344 N 
HETATM   15  C1  UNK     1      19.324  -1.233  35.500  1.00  0.00     0.152 C 
HETATM   16  C2  UNK     1      19.054  -2.190  37.741  1.00  0.00     0.152 C 
HETATM   17  C3  UNK     1      17.944  -0.610  35.649  1.00  0.00     0.187 C 
HETATM   18  O1  UNK     1      17.671  -0.332  37.026  1.00  0.00    -0.388 OA
HETATM   19  C4  UNK     1      17.682  -1.531  37.805  1.00  0.00     0.187 C 
ENDBRANCH   3  12
BRANCH   8  20
HETATM   20  O4  UNK     1      19.503  -8.958  39.389  1.00  0.00    -0.349 OA
BRANCH  20  21
HETATM   21  C15 UNK     1      19.699 -10.292  38.921  1.00  0.00     0.171 C 
HETATM   22  C16 UNK     1      19.318 -10.362  37.458  1.00  0.00     0.034 C 
ENDBRANCH  20  21
ENDBRANCH   8  20
TORSDOF 3
ENDMDL
MODEL 8
REMARK VINA RESULT:      -7.2     23.073     25.161
REMARK  3 active torsions:
REMARK  status: ('A' for Active; 'I' for Inactive)
REMARK    1  A    between atoms: C11_17  and  O4_4 
REMARK    2  A    between atoms: C15_21  and  O4_4 
REMARK       I    between atoms: C5_11  and  N1_6 
REMARK    3  A    between atoms: C5_11  and  C6_12 
ROOT
HETATM    1  O2  UNK     1      16.918   7.819  32.962  1.00  0.00    -0.271 OA
HETATM    2  O5  UNK     1      15.848   5.942  32.218  1.00  0.00    -0.259 OA
HETATM    3  C6  UNK     1      18.093   5.675  32.927  1.00  0.00     0.108 A 
HETATM    4  C7  UNK     1      19.224   7.667  33.717  1.00  0.00     0.002 A 
HETATM    5  C8  UNK     1      19.201   6.243  33.420  1.00  0.00     0.037 A 
HETATM    6  C9  UNK     1      18.080   8.423  33.480  1.00  0.00     0.123 A 
HETATM    7  C10 UNK     1      16.865   6.459  32.668  1.00  0.00     0.304 A 
HETATM    8  C11 UNK     1      18.037   9.790  33.744  1.00  0.00     0.103 A 
HETATM    9  C12 UNK     1      20.357   8.302  34.231  1.00  0.00     0.014 A 
HETATM   10  C13 UNK     1      19.172  10.415  34.257  1.00  0.00     0.040 A 
HETATM   11  C14 UNK     1      20.329   9.673  34.500  1.00  0.00     0.004 A 
ENDROOT
BRANCH   3  12
HETATM   12  C5  UNK     1      18.169   4.225  32.658  1.00  0.00     0.260 C 
HETATM   13  O3  UNK     1      17.873   3.460  33.578  1.00  0.00    -0.267 OA
HETATM   14  N1  UNK     1      18.571   3.816  31.392  1.00  0.00    -0.344 N 
HETATM   15  C1  UNK     1      18.660   2.386  31.093  1.00  0.00     0.152 C 
HETATM   16  C2  UNK     1      19.068   4.672  30.306  1.00  0.00     0.152 C 
HETATM   17  C3  UNK     1      18.013   2.087  29.748  1.00  0.00     0.187 C 
HETATM   18  O1  UNK     1      18.600   2.896  28.724  1.00  0.00    -0.388 OA
HETATM   19  C4  UNK     1      18.404   4.287  28.990  1.00  0.00     0.187 C 
ENDBRANCH   3  12
BRANCH   8  20
HETATM   20  O4  UNK     1      16.912  10.517  33.509  1.00  0.00    -0.349 OA
BRANCH  20  21
HETATM   21  C15 UNK     1      16.152  10.926  34.646  1.00  0.00     0.171 C 
HETATM   22  C16 UNK     1      14.872  10.121  34.699  1.00  0.00     0.034 C 
ENDBRANCH  20  21
ENDBRANCH   8  20
TORSDOF 3
ENDMDL
MODEL 9
REMARK VINA RESULT:      -7.1     34.022     36.075
REMARK  3 active torsions:
REMARK  status: ('A' for Active; 'I' for Inactive)
REMARK    1  A    between atoms: C11_17  and  O4_4 
REMARK    2  A    between atoms: C15_21  and  O4_4 
REMARK       I    between atoms: C5_11  and  N1_6 
REMARK    3  A    between atoms: C5_11  and  C6_12 
ROOT
HETATM    1  O2  UNK     1      25.586  -5.840  38.686  1.00  0.00    -0.271 OA
HETATM    2  O5  UNK     1      23.343  -5.431  38.853  1.00  0.00    -0.259 OA
HETATM    3  C6  UNK     1      24.029  -7.691  39.047  1.00  0.00     0.108 A 
HETATM    4  C7  UNK     1      26.407  -8.121  38.871  1.00  0.00     0.002 A 
HETATM    5  C8  UNK     1      25.036  -8.572  39.054  1.00  0.00     0.037 A 
HETATM    6  C9  UNK     1      26.649  -6.762  38.691  1.00  0.00     0.123 A 
HETATM    7  C10 UNK     1      24.263  -6.241  38.858  1.00  0.00     0.304 A 
HETATM    8  C11 UNK     1      27.939  -6.265  38.511  1.00  0.00     0.103 A 
HETATM    9  C12 UNK     1      27.488  -9.005  38.869  1.00  0.00     0.014 A 
HETATM   10  C13 UNK     1      29.012  -7.154  38.512  1.00  0.00     0.040 A 
HETATM   11  C14 UNK     1      28.787  -8.521  38.690  1.00  0.00     0.004 A 
ENDROOT
BRANCH   3  12
HETATM   12  C5  UNK     1      22.675  -8.247  39.240  1.00  0.00     0.260 C 
HETATM   13  O3  UNK     1      22.232  -8.280  40.390  1.00  0.00    -0.267 OA
HETATM   14  N1  UNK     1      21.990  -8.700  38.118  1.00  0.00    -0.344 N 
HETATM   15  C1  UNK     1      20.646  -9.260  38.274  1.00  0.00     0.152 C 
HETATM   16  C2  UNK     1      22.516  -8.817  36.751  1.00  0.00     0.152 C 
HETATM   17  C3  UNK     1      19.711  -8.688  37.219  1.00  0.00     0.187 C 
HETATM   18  O1  UNK     1      20.245  -8.909  35.911  1.00  0.00    -0.388 OA
HETATM   19  C4  UNK     1      21.509  -8.259  35.754  1.00  0.00     0.187 C 
ENDBRANCH   3  12
BRANCH   8  20
HETATM   20  O4  UNK     1      28.162  -4.935  38.338  1.00  0.00    -0.349 OA
BRANCH  20  21
HETATM   21  C15 UNK     1      29.354  -4.396  38.908  1.00  0.00     0.171 C 
HETATM   22  C16 UNK     1      30.231  -3.857  37.798  1.00  0.00     0.034 C 
ENDBRANCH  20  21
ENDBRANCH   8  20
TORSDOF 3
ENDMDL
MODEL 10
REMARK VINA RESULT:      -7.1     23.436     25.217
REMARK  3 active torsions:
REMARK  status: ('A' for Active; 'I' for Inactive)
REMARK    1  A    between atoms: C11_17  and  O4_4 
REMARK    2  A    between atoms: C15_21  and  O4_4 
REMARK       I    between atoms: C5_11  and  N1_6 
REMARK    3  A    between atoms: C5_11  and  C6_12 
ROOT
HETATM    1  O2  UNK     1      18.147   4.378  31.431  1.00  0.00    -0.271 OA
HETATM    2  O5  UNK     1      17.991   6.573  30.814  1.00  0.00    -0.259 OA
HETATM    3  C6  UNK     1      18.093   6.126  33.139  1.00  0.00     0.108 A 
HETATM    4  C7  UNK     1      18.259   3.799  33.790  1.00  0.00     0.002 A 
HETATM    5  C8  UNK     1      18.181   5.215  34.114  1.00  0.00     0.037 A 
HETATM    6  C9  UNK     1      18.240   3.413  32.452  1.00  0.00     0.123 A 
HETATM    7  C10 UNK     1      18.070   5.740  31.710  1.00  0.00     0.304 A 
HETATM    8  C11 UNK     1      18.312   2.074  32.074  1.00  0.00     0.103 A 
HETATM    9  C12 UNK     1      18.352   2.813  34.774  1.00  0.00     0.014 A 
HETATM   10  C13 UNK     1      18.405   1.097  33.063  1.00  0.00     0.040 A 
HETATM   11  C14 UNK     1      18.425   1.465  34.410  1.00  0.00     0.004 A 
ENDROOT
BRANCH   3  12
HETATM   12  C5  UNK     1      18.018   7.537  33.570  1.00  0.00     0.260 C 
HETATM   13  O3  UNK     1      19.073   8.172  33.623  1.00  0.00    -0.267 OA
HETATM   14  N1  UNK     1      16.769   8.056  33.892  1.00  0.00    -0.344 N 
HETATM   15  C1  UNK     1      16.660   9.450  34.326  1.00  0.00     0.152 C 
HETATM   16  C2  UNK     1      15.504   7.314  33.984  1.00  0.00     0.152 C 
HETATM   17  C3  UNK     1      15.507  10.137  33.608  1.00  0.00     0.187 C 
HETATM   18  O1  UNK     1      14.293   9.407  33.807  1.00  0.00    -0.388 OA
HETATM   19  C4  UNK     1      14.395   8.083  33.276  1.00  0.00     0.187 C 
ENDBRANCH   3  12
BRANCH   8  20
HETATM   20  O4  UNK     1      18.293   1.711  30.764  1.00  0.00    -0.349 OA
BRANCH  20  21
HETATM   21  C15 UNK     1      19.315   0.819  30.321  1.00  0.00     0.171 C 
HETATM   22  C16 UNK     1      19.169   0.603  28.830  1.00  0.00     0.034 C 
ENDBRANCH  20  21
ENDBRANCH   8  20
TORSDOF 3
ENDMDL
