MODEL 1
REMARK VINA RESULT:      -8.1      0.000      0.000
REMARK  6 active torsions:
REMARK  status: ('A' for Active; 'I' for Inactive)
REMARK    1  A    between atoms: C11_16  and  O2_2 
REMARK    2  A    between atoms: C18_23  and  O2_2 
REMARK    3  A    between atoms: C19_24  and  O4_4 
REMARK    4  A    between atoms: C1_6  and  C4_9 
REMARK    5  A    between atoms: C4_9  and  C6_11 
REMARK    6  A    between atoms: C18_23  and  C19_24 
ROOT
HETATM    1  O1  UNK     1      18.773   0.842  32.739  1.00  0.00    -0.274 OA
HETATM    2  O3  UNK     1      17.843   2.523  33.947  1.00  0.00    -0.259 OA
HETATM    3  C1  UNK     1      18.187   2.956  31.630  1.00  0.00     0.029 A 
HETATM    4  C2  UNK     1      18.665   2.505  30.449  1.00  0.00    -0.036 A 
HETATM    5  C3  UNK     1      19.204   1.133  30.361  1.00  0.00     0.005 A 
HETATM    6  C5  UNK     1      19.242   0.349  31.511  1.00  0.00     0.092 A 
HETATM    7  C7  UNK     1      18.242   2.115  32.861  1.00  0.00     0.295 A 
HETATM    8  C8  UNK     1      18.700   3.335  29.189  1.00  0.00     0.050 C 
HETATM    9  C9  UNK     1      19.681   0.553  29.176  1.00  0.00     0.017 A 
HETATM   10  C10 UNK     1      19.736  -0.958  31.514  1.00  0.00     0.075 A 
HETATM   11  C11 UNK     1      20.209  -1.510  30.330  1.00  0.00     0.072 A 
HETATM   12  C12 UNK     1      20.179  -0.756  29.160  1.00  0.00     0.038 A 
ENDROOT
BRANCH   3  13
HETATM   13  C4  UNK     1      17.552   4.307  31.844  1.00  0.00     0.084 C 
BRANCH  13  14
HETATM   14  C6  UNK     1      18.516   5.298  32.423  1.00  0.00    -0.054 A 
HETATM   15  C13 UNK     1      18.182   5.985  33.586  1.00  0.00     0.007 A 
HETATM   16  C15 UNK     1      19.079   6.908  34.126  1.00  0.00     0.001 A 
HETATM   17  C17 UNK     1      20.303   7.139  33.499  1.00  0.00     0.000 A 
HETATM   18  C16 UNK     1      20.631   6.447  32.332  1.00  0.00     0.001 A 
HETATM   19  C14 UNK     1      19.735   5.524  31.793  1.00  0.00     0.007 A 
ENDBRANCH  13  14
ENDBRANCH   3  13
BRANCH  11  20
HETATM   20  O2  UNK     1      20.693  -2.780  30.313  1.00  0.00    -0.341 OA
BRANCH  20  21
HETATM   21  C18 UNK     1      21.123  -3.331  31.558  1.00  0.00     0.285 C 
BRANCH  21  22
HETATM   22  C19 UNK     1      21.717  -4.694  31.334  1.00  0.00     0.164 C 
HETATM   23  O5  UNK     1      21.781  -5.591  32.162  1.00  0.00    -0.648 OA
BRANCH  22  24
HETATM   24  O4  UNK     1      22.182  -4.799  30.063  1.00  0.00    -0.775 OA
HETATM   25  H16 UNK     1      21.557  -5.287  29.485  1.00  0.00     0.167 HD
ENDBRANCH  22  24
ENDBRANCH  21  22
ENDBRANCH  20  21
ENDBRANCH  11  20
TORSDOF 6
ENDMDL
MODEL 2
REMARK VINA RESULT:      -8.0     22.975     25.146
REMARK  6 active torsions:
REMARK  status: ('A' for Active; 'I' for Inactive)
REMARK    1  A    between atoms: C11_16  and  O2_2 
REMARK    2  A    between atoms: C18_23  and  O2_2 
REMARK    3  A    between atoms: C19_24  and  O4_4 
REMARK    4  A    between atoms: C1_6  and  C4_9 
REMARK    5  A    between atoms: C4_9  and  C6_11 
REMARK    6  A    between atoms: C18_23  and  C19_24 
ROOT
HETATM    1  O1  UNK     1      15.985   6.473   9.810  1.00  0.00    -0.274 OA
HETATM    2  O3  UNK     1      14.851   4.507   9.790  1.00  0.00    -0.259 OA
HETATM    3  C1  UNK     1      13.528   6.487   9.747  1.00  0.00     0.029 A 
HETATM    4  C2  UNK     1      13.504   7.837   9.775  1.00  0.00    -0.036 A 
HETATM    5  C3  UNK     1      14.777   8.585   9.786  1.00  0.00     0.005 A 
HETATM    6  C5  UNK     1      15.975   7.877   9.805  1.00  0.00     0.092 A 
HETATM    7  C7  UNK     1      14.815   5.733   9.780  1.00  0.00     0.295 A 
HETATM    8  C8  UNK     1      12.234   8.651   9.814  1.00  0.00     0.050 C 
HETATM    9  C9  UNK     1      14.864   9.987   9.768  1.00  0.00     0.017 A 
HETATM   10  C10 UNK     1      17.222   8.506   9.816  1.00  0.00     0.075 A 
HETATM   11  C11 UNK     1      17.284   9.895   9.804  1.00  0.00     0.072 A 
HETATM   12  C12 UNK     1      16.105  10.635   9.778  1.00  0.00     0.038 A 
ENDROOT
BRANCH   3  13
HETATM   13  C4  UNK     1      12.308   5.604   9.670  1.00  0.00     0.084 C 
BRANCH  13  14
HETATM   14  C6  UNK     1      11.525   5.830   8.412  1.00  0.00    -0.054 A 
HETATM   15  C13 UNK     1      10.143   5.970   8.476  1.00  0.00     0.007 A 
HETATM   16  C15 UNK     1       9.414   6.181   7.304  1.00  0.00     0.001 A 
HETATM   17  C17 UNK     1      10.072   6.249   6.077  1.00  0.00     0.000 A 
HETATM   18  C16 UNK     1      11.459   6.107   6.019  1.00  0.00     0.001 A 
HETATM   19  C14 UNK     1      12.187   5.897   7.190  1.00  0.00     0.007 A 
ENDBRANCH  13  14
ENDBRANCH   3  13
BRANCH  11  20
HETATM   20  O2  UNK     1      18.488  10.526   9.813  1.00  0.00    -0.341 OA
BRANCH  20  21
HETATM   21  C18 UNK     1      18.565  11.791   9.156  1.00  0.00     0.285 C 
BRANCH  21  22
HETATM   22  C19 UNK     1      18.975  11.596   7.723  1.00  0.00     0.164 C 
HETATM   23  O5  UNK     1      18.334  11.946   6.742  1.00  0.00    -0.648 OA
BRANCH  22  24
HETATM   24  O4  UNK     1      20.176  10.968   7.660  1.00  0.00    -0.775 OA
HETATM   25  H16 UNK     1      20.498  10.886   6.737  1.00  0.00     0.167 HD
ENDBRANCH  22  24
ENDBRANCH  21  22
ENDBRANCH  20  21
ENDBRANCH  11  20
TORSDOF 6
ENDMDL
MODEL 3
REMARK VINA RESULT:      -7.7     13.560     15.701
REMARK  6 active torsions:
REMARK  status: ('A' for Active; 'I' for Inactive)
REMARK    1  A    between atoms: C11_16  and  O2_2 
REMARK    2  A    between atoms: C18_23  and  O2_2 
REMARK    3  A    between atoms: C19_24  and  O4_4 
REMARK    4  A    between atoms: C1_6  and  C4_9 
REMARK    5  A    between atoms: C4_9  and  C6_11 
REMARK    6  A    between atoms: C18_23  and  C19_24 
ROOT
HETATM    1  O1  UNK     1      31.225  -4.452  38.312  1.00  0.00    -0.274 OA
HETATM    2  O3  UNK     1      29.568  -4.027  39.802  1.00  0.00    -0.259 OA
HETATM    3  C1  UNK     1      28.983  -5.388  37.937  1.00  0.00     0.029 A 
HETATM    4  C2  UNK     1      29.380  -5.955  36.777  1.00  0.00    -0.036 A 
HETATM    5  C3  UNK     1      30.785  -5.814  36.344  1.00  0.00     0.005 A 
HETATM    6  C5  UNK     1      31.659  -5.065  37.126  1.00  0.00     0.092 A 
HETATM    7  C7  UNK     1      29.923  -4.576  38.764  1.00  0.00     0.295 A 
HETATM    8  C8  UNK     1      28.458  -6.727  35.865  1.00  0.00     0.050 C 
HETATM    9  C9  UNK     1      31.310  -6.402  35.182  1.00  0.00     0.017 A 
HETATM   10  C10 UNK     1      33.003  -4.882  36.788  1.00  0.00     0.075 A 
HETATM   11  C11 UNK     1      33.499  -5.469  35.630  1.00  0.00     0.072 A 
HETATM   12  C12 UNK     1      32.653  -6.230  34.828  1.00  0.00     0.038 A 
ENDROOT
BRANCH   3  13
HETATM   13  C4  UNK     1      27.601  -5.507  38.527  1.00  0.00     0.084 C 
BRANCH  13  14
HETATM   14  C6  UNK     1      27.259  -6.922  38.885  1.00  0.00    -0.054 A 
HETATM   15  C13 UNK     1      26.005  -7.430  38.562  1.00  0.00     0.007 A 
HETATM   16  C15 UNK     1      25.686  -8.747  38.895  1.00  0.00     0.001 A 
HETATM   17  C17 UNK     1      26.622  -9.547  39.549  1.00  0.00     0.000 A 
HETATM   18  C16 UNK     1      27.878  -9.031  39.871  1.00  0.00     0.001 A 
HETATM   19  C14 UNK     1      28.197  -7.714  39.537  1.00  0.00     0.007 A 
ENDBRANCH  13  14
ENDBRANCH   3  13
BRANCH  11  20
HETATM   20  O2  UNK     1      34.803  -5.303  35.284  1.00  0.00    -0.341 OA
BRANCH  20  21
HETATM   21  C18 UNK     1      35.738  -6.256  35.791  1.00  0.00     0.285 C 
BRANCH  21  22
HETATM   22  C19 UNK     1      36.348  -7.026  34.652  1.00  0.00     0.164 C 
HETATM   23  O5  UNK     1      36.223  -6.766  33.465  1.00  0.00    -0.648 OA
BRANCH  22  24
HETATM   24  O4  UNK     1      37.074  -8.069  35.129  1.00  0.00    -0.775 OA
HETATM   25  H16 UNK     1      36.504  -8.744  35.557  1.00  0.00     0.167 HD
ENDBRANCH  22  24
ENDBRANCH  21  22
ENDBRANCH  20  21
ENDBRANCH  11  20
TORSDOF 6
ENDMDL
MODEL 4
REMARK VINA RESULT:      -7.6     14.544     17.318
REMARK  6 active torsions:
REMARK  status: ('A' for Active; 'I' for Inactive)
REMARK    1  A    between atoms: C11_16  and  O2_2 
REMARK    2  A    between atoms: C18_23  and  O2_2 
REMARK    3  A    between atoms: C19_24  and  O4_4 
REMARK    4  A    between atoms: C1_6  and  C4_9 
REMARK    5  A    between atoms: C4_9  and  C6_11 
REMARK    6  A    between atoms: C18_23  and  C19_24 
ROOT
HETATM    1  O1  UNK     1      32.955  -9.206  34.874  1.00  0.00    -0.274 OA
HETATM    2  O3  UNK     1      31.505  -9.816  36.510  1.00  0.00    -0.259 OA
HETATM    3  C1  UNK     1      32.957  -7.996  37.014  1.00  0.00     0.029 A 
HETATM    4  C2  UNK     1      33.974  -7.208  36.603  1.00  0.00    -0.036 A 
HETATM    5  C3  UNK     1      34.516  -7.375  35.239  1.00  0.00     0.005 A 
HETATM    6  C5  UNK     1      33.989  -8.371  34.422  1.00  0.00     0.092 A 
HETATM    7  C7  UNK     1      32.405  -9.070  36.137  1.00  0.00     0.295 A 
HETATM    8  C8  UNK     1      34.619  -6.154  37.469  1.00  0.00     0.050 C 
HETATM    9  C9  UNK     1      35.538  -6.579  34.698  1.00  0.00     0.017 A 
HETATM   10  C10 UNK     1      34.444  -8.596  33.120  1.00  0.00     0.075 A 
HETATM   11  C11 UNK     1      35.461  -7.799  32.607  1.00  0.00     0.072 A 
HETATM   12  C12 UNK     1      36.006  -6.789  33.395  1.00  0.00     0.038 A 
ENDROOT
BRANCH   3  13
HETATM   13  C4  UNK     1      32.270  -7.890  38.352  1.00  0.00     0.084 C 
BRANCH  13  14
HETATM   14  C6  UNK     1      31.155  -6.889  38.337  1.00  0.00    -0.054 A 
HETATM   15  C13 UNK     1      29.843  -7.320  38.174  1.00  0.00     0.007 A 
HETATM   16  C15 UNK     1      28.805  -6.388  38.160  1.00  0.00     0.001 A 
HETATM   17  C17 UNK     1      29.085  -5.030  38.308  1.00  0.00     0.000 A 
HETATM   18  C16 UNK     1      30.404  -4.604  38.470  1.00  0.00     0.001 A 
HETATM   19  C14 UNK     1      31.442  -5.536  38.485  1.00  0.00     0.007 A 
ENDBRANCH  13  14
ENDBRANCH   3  13
BRANCH  11  20
HETATM   20  O2  UNK     1      35.917  -8.002  31.343  1.00  0.00    -0.341 OA
BRANCH  20  21
HETATM   21  C18 UNK     1      34.939  -8.172  30.317  1.00  0.00     0.285 C 
BRANCH  21  22
HETATM   22  C19 UNK     1      35.289  -7.316  29.132  1.00  0.00     0.164 C 
HETATM   23  O5  UNK     1      35.348  -7.691  27.971  1.00  0.00    -0.648 OA
BRANCH  22  24
HETATM   24  O4  UNK     1      35.535  -6.042  29.532  1.00  0.00    -0.775 OA
HETATM   25  H16 UNK     1      35.446  -5.404  28.792  1.00  0.00     0.167 HD
ENDBRANCH  22  24
ENDBRANCH  21  22
ENDBRANCH  20  21
ENDBRANCH  11  20
TORSDOF 6
ENDMDL
MODEL 5
REMARK VINA RESULT:      -7.6      2.381      3.878
REMARK  6 active torsions:
REMARK  status: ('A' for Active; 'I' for Inactive)
REMARK    1  A    between atoms: C11_16  and  O2_2 
REMARK    2  A    between atoms: C18_23  and  O2_2 
REMARK    3  A    between atoms: C19_24  and  O4_4 
REMARK    4  A    between atoms: C1_6  and  C4_9 
REMARK    5  A    between atoms: C4_9  and  C6_11 
REMARK    6  A    between atoms: C18_23  and  C19_24 
ROOT
HETATM    1  O1  UNK     1      18.179   3.895  33.469  1.00  0.00    -0.274 OA
HETATM    2  O3  UNK     1      17.822   5.815  34.626  1.00  0.00    -0.259 OA
HETATM    3  C1  UNK     1      18.204   6.049  32.286  1.00  0.00     0.029 A 
HETATM    4  C2  UNK     1      18.492   5.438  31.116  1.00  0.00    -0.036 A 
HETATM    5  C3  UNK     1      18.601   3.967  31.074  1.00  0.00     0.005 A 
HETATM    6  C5  UNK     1      18.443   3.245  32.254  1.00  0.00     0.092 A 
HETATM    7  C7  UNK     1      18.049   5.270  33.550  1.00  0.00     0.295 A 
HETATM    8  C8  UNK     1      18.729   6.178  29.823  1.00  0.00     0.050 C 
HETATM    9  C9  UNK     1      18.850   3.232  29.904  1.00  0.00     0.017 A 
HETATM   10  C10 UNK     1      18.532   1.851  32.301  1.00  0.00     0.075 A 
HETATM   11  C11 UNK     1      18.784   1.145  31.131  1.00  0.00     0.072 A 
HETATM   12  C12 UNK     1      18.941   1.835  29.932  1.00  0.00     0.038 A 
ENDROOT
BRANCH   3  13
HETATM   13  C4  UNK     1      18.002   7.533  32.458  1.00  0.00     0.084 C 
BRANCH  13  14
HETATM   14  C6  UNK     1      16.567   7.882  32.714  1.00  0.00    -0.054 A 
HETATM   15  C13 UNK     1      15.559   7.164  32.078  1.00  0.00     0.007 A 
HETATM   16  C15 UNK     1      14.223   7.489  32.316  1.00  0.00     0.001 A 
HETATM   17  C17 UNK     1      13.903   8.529  33.188  1.00  0.00     0.000 A 
HETATM   18  C16 UNK     1      14.919   9.245  33.823  1.00  0.00     0.001 A 
HETATM   19  C14 UNK     1      16.254   8.920  33.585  1.00  0.00     0.007 A 
ENDBRANCH  13  14
ENDBRANCH   3  13
BRANCH  11  20
HETATM   20  O2  UNK     1      18.873  -0.211  31.156  1.00  0.00    -0.341 OA
BRANCH  20  21
HETATM   21  C18 UNK     1      20.183  -0.778  31.180  1.00  0.00     0.285 C 
BRANCH  21  22
HETATM   22  C19 UNK     1      20.474  -1.446  29.865  1.00  0.00     0.164 C 
HETATM   23  O5  UNK     1      20.764  -0.878  28.823  1.00  0.00    -0.648 OA
BRANCH  22  24
HETATM   24  O4  UNK     1      20.369  -2.794  29.991  1.00  0.00    -0.775 OA
HETATM   25  H16 UNK     1      19.589  -3.146  29.512  1.00  0.00     0.167 HD
ENDBRANCH  22  24
ENDBRANCH  21  22
ENDBRANCH  20  21
ENDBRANCH  11  20
TORSDOF 6
ENDMDL
MODEL 6
REMARK VINA RESULT:      -7.6      4.073      6.990
REMARK  6 active torsions:
REMARK  status: ('A' for Active; 'I' for Inactive)
REMARK    1  A    between atoms: C11_16  and  O2_2 
REMARK    2  A    between atoms: C18_23  and  O2_2 
REMARK    3  A    between atoms: C19_24  and  O4_4 
REMARK    4  A    between atoms: C1_6  and  C4_9 
REMARK    5  A    between atoms: C4_9  and  C6_11 
REMARK    6  A    between atoms: C18_23  and  C19_24 
ROOT
HETATM    1  O1  UNK     1      15.880   6.351  32.805  1.00  0.00    -0.274 OA
HETATM    2  O3  UNK     1      14.306   7.418  34.044  1.00  0.00    -0.259 OA
HETATM    3  C1  UNK     1      16.535   8.237  34.239  1.00  0.00     0.029 A 
HETATM    4  C2  UNK     1      17.830   8.098  33.884  1.00  0.00    -0.036 A 
HETATM    5  C3  UNK     1      18.207   7.057  32.906  1.00  0.00     0.005 A 
HETATM    6  C5  UNK     1      17.218   6.217  32.401  1.00  0.00     0.092 A 
HETATM    7  C7  UNK     1      15.482   7.325  33.704  1.00  0.00     0.295 A 
HETATM    8  C8  UNK     1      18.947   8.944  34.444  1.00  0.00     0.050 C 
HETATM    9  C9  UNK     1      19.514   6.860  32.435  1.00  0.00     0.017 A 
HETATM   10  C10 UNK     1      17.489   5.208  31.474  1.00  0.00     0.075 A 
HETATM   11  C11 UNK     1      18.792   5.027  31.026  1.00  0.00     0.072 A 
HETATM   12  C12 UNK     1      19.804   5.854  31.504  1.00  0.00     0.038 A 
ENDROOT
BRANCH   3  13
HETATM   13  C4  UNK     1      16.005   9.295  35.174  1.00  0.00     0.084 C 
BRANCH  13  14
HETATM   14  C6  UNK     1      15.662  10.564  34.455  1.00  0.00    -0.054 A 
HETATM   15  C13 UNK     1      16.526  11.652  34.525  1.00  0.00     0.007 A 
HETATM   16  C15 UNK     1      16.206  12.834  33.856  1.00  0.00     0.001 A 
HETATM   17  C17 UNK     1      15.024  12.921  33.121  1.00  0.00     0.000 A 
HETATM   18  C16 UNK     1      14.161  11.826  33.056  1.00  0.00     0.001 A 
HETATM   19  C14 UNK     1      14.481  10.645  33.724  1.00  0.00     0.007 A 
ENDBRANCH  13  14
ENDBRANCH   3  13
BRANCH  11  20
HETATM   20  O2  UNK     1      19.076   4.051  30.123  1.00  0.00    -0.341 OA
BRANCH  20  21
HETATM   21  C18 UNK     1      18.623   2.732  30.426  1.00  0.00     0.285 C 
BRANCH  21  22
HETATM   22  C19 UNK     1      18.140   2.058  29.171  1.00  0.00     0.164 C 
HETATM   23  O5  UNK     1      17.932   2.607  28.099  1.00  0.00    -0.648 OA
BRANCH  22  24
HETATM   24  O4  UNK     1      17.965   0.730  29.391  1.00  0.00    -0.775 OA
HETATM   25  H16 UNK     1      17.577   0.555  30.275  1.00  0.00     0.167 HD
ENDBRANCH  22  24
ENDBRANCH  21  22
ENDBRANCH  20  21
ENDBRANCH  11  20
TORSDOF 6
ENDMDL
MODEL 7
REMARK VINA RESULT:      -7.5     12.466     14.948
REMARK  6 active torsions:
REMARK  status: ('A' for Active; 'I' for Inactive)
REMARK    1  A    between atoms: C11_16  and  O2_2 
REMARK    2  A    between atoms: C18_23  and  O2_2 
REMARK    3  A    between atoms: C19_24  and  O4_4 
REMARK    4  A    between atoms: C1_6  and  C4_9 
REMARK    5  A    between atoms: C4_9  and  C6_11 
REMARK    6  A    between atoms: C18_23  and  C19_24 
ROOT
HETATM    1  O1  UNK     1      28.358  -5.343  38.982  1.00  0.00    -0.274 OA
HETATM    2  O3  UNK     1      29.928  -3.777  39.465  1.00  0.00    -0.259 OA
HETATM    3  C1  UNK     1      30.735  -5.848  38.608  1.00  0.00     0.029 A 
HETATM    4  C2  UNK     1      30.435  -7.096  38.188  1.00  0.00    -0.036 A 
HETATM    5  C3  UNK     1      29.022  -7.517  38.113  1.00  0.00     0.005 A 
HETATM    6  C5  UNK     1      28.031  -6.626  38.515  1.00  0.00     0.092 A 
HETATM    7  C7  UNK     1      29.669  -4.902  39.049  1.00  0.00     0.295 A 
HETATM    8  C8  UNK     1      31.474  -8.119  37.797  1.00  0.00     0.050 C 
HETATM    9  C9  UNK     1      28.600  -8.773  37.647  1.00  0.00     0.017 A 
HETATM   10  C10 UNK     1      26.671  -6.944  38.476  1.00  0.00     0.075 A 
HETATM   11  C11 UNK     1      26.277  -8.196  38.016  1.00  0.00     0.072 A 
HETATM   12  C12 UNK     1      27.242  -9.109  37.600  1.00  0.00     0.038 A 
ENDROOT
BRANCH   3  13
HETATM   13  C4  UNK     1      32.125  -5.270  38.672  1.00  0.00     0.084 C 
BRANCH  13  14
HETATM   14  C6  UNK     1      32.719  -5.074  37.309  1.00  0.00    -0.054 A 
HETATM   15  C13 UNK     1      33.967  -5.616  37.017  1.00  0.00     0.007 A 
HETATM   16  C15 UNK     1      34.520  -5.433  35.748  1.00  0.00     0.001 A 
HETATM   17  C17 UNK     1      33.822  -4.710  34.781  1.00  0.00     0.000 A 
HETATM   18  C16 UNK     1      32.572  -4.169  35.082  1.00  0.00     0.001 A 
HETATM   19  C14 UNK     1      32.019  -4.352  36.349  1.00  0.00     0.007 A 
ENDBRANCH  13  14
ENDBRANCH   3  13
BRANCH  11  20
HETATM   20  O2  UNK     1      24.959  -8.524  37.970  1.00  0.00    -0.341 OA
BRANCH  20  21
HETATM   21  C18 UNK     1      24.080  -7.816  38.844  1.00  0.00     0.285 C 
BRANCH  21  22
HETATM   22  C19 UNK     1      22.670  -7.906  38.331  1.00  0.00     0.164 C 
HETATM   23  O5  UNK     1      22.147  -7.136  37.539  1.00  0.00    -0.648 OA
BRANCH  22  24
HETATM   24  O4  UNK     1      22.042  -8.979  38.874  1.00  0.00    -0.775 OA
HETATM   25  H16 UNK     1      22.539  -9.811  38.717  1.00  0.00     0.167 HD
ENDBRANCH  22  24
ENDBRANCH  21  22
ENDBRANCH  20  21
ENDBRANCH  11  20
TORSDOF 6
ENDMDL
MODEL 8
REMARK VINA RESULT:      -7.5     22.725     24.764
REMARK  6 active torsions:
REMARK  status: ('A' for Active; 'I' for Inactive)
REMARK    1  A    between atoms: C11_16  and  O2_2 
REMARK    2  A    between atoms: C18_23  and  O2_2 
REMARK    3  A    between atoms: C19_24  and  O4_4 
REMARK    4  A    between atoms: C1_6  and  C4_9 
REMARK    5  A    between atoms: C4_9  and  C6_11 
REMARK    6  A    between atoms: C18_23  and  C19_24 
ROOT
HETATM    1  O1  UNK     1      12.332   8.770   9.608  1.00  0.00    -0.274 OA
HETATM    2  O3  UNK     1      13.256  10.391  10.900  1.00  0.00    -0.259 OA
HETATM    3  C1  UNK     1      14.589   8.452  10.528  1.00  0.00     0.029 A 
HETATM    4  C2  UNK     1      14.676   7.224   9.971  1.00  0.00    -0.036 A 
HETATM    5  C3  UNK     1      13.559   6.720   9.147  1.00  0.00     0.005 A 
HETATM    6  C5  UNK     1      12.423   7.511   8.995  1.00  0.00     0.092 A 
HETATM    7  C7  UNK     1      13.363   9.289  10.372  1.00  0.00     0.295 A 
HETATM    8  C8  UNK     1      15.859   6.306  10.153  1.00  0.00     0.050 C 
HETATM    9  C9  UNK     1      13.568   5.481   8.487  1.00  0.00     0.017 A 
HETATM   10  C10 UNK     1      11.323   7.109   8.233  1.00  0.00     0.075 A 
HETATM   11  C11 UNK     1      11.352   5.876   7.593  1.00  0.00     0.072 A 
HETATM   12  C12 UNK     1      12.475   5.063   7.718  1.00  0.00     0.038 A 
ENDROOT
BRANCH   3  13
HETATM   13  C4  UNK     1      15.677   9.112  11.336  1.00  0.00     0.084 C 
BRANCH  13  14
HETATM   14  C6  UNK     1      16.438  10.126  10.537  1.00  0.00    -0.054 A 
HETATM   15  C13 UNK     1      16.448  11.456  10.941  1.00  0.00     0.007 A 
HETATM   16  C15 UNK     1      17.158  12.400  10.197  1.00  0.00     0.001 A 
HETATM   17  C17 UNK     1      17.852  12.007   9.053  1.00  0.00     0.000 A 
HETATM   18  C16 UNK     1      17.837  10.671   8.653  1.00  0.00     0.001 A 
HETATM   19  C14 UNK     1      17.129   9.727   9.397  1.00  0.00     0.007 A 
ENDBRANCH  13  14
ENDBRANCH   3  13
BRANCH  11  20
HETATM   20  O2  UNK     1      10.292   5.468   6.847  1.00  0.00    -0.341 OA
BRANCH  20  21
HETATM   21  C18 UNK     1       9.271   6.430   6.584  1.00  0.00     0.285 C 
BRANCH  21  22
HETATM   22  C19 UNK     1       8.082   6.165   7.466  1.00  0.00     0.164 C 
HETATM   23  O5  UNK     1       7.801   5.096   7.986  1.00  0.00    -0.648 OA
BRANCH  22  24
HETATM   24  O4  UNK     1       7.347   7.297   7.611  1.00  0.00    -0.775 OA
HETATM   25  H16 UNK     1       7.808   8.082   7.245  1.00  0.00     0.167 HD
ENDBRANCH  22  24
ENDBRANCH  21  22
ENDBRANCH  20  21
ENDBRANCH  11  20
TORSDOF 6
ENDMDL
MODEL 9
REMARK VINA RESULT:      -7.5     23.309     25.388
REMARK  6 active torsions:
REMARK  status: ('A' for Active; 'I' for Inactive)
REMARK    1  A    between atoms: C11_16  and  O2_2 
REMARK    2  A    between atoms: C18_23  and  O2_2 
REMARK    3  A    between atoms: C19_24  and  O4_4 
REMARK    4  A    between atoms: C1_6  and  C4_9 
REMARK    5  A    between atoms: C4_9  and  C6_11 
REMARK    6  A    between atoms: C18_23  and  C19_24 
ROOT
HETATM    1  O1  UNK     1      13.676   9.299   9.445  1.00  0.00    -0.274 OA
HETATM    2  O3  UNK     1      11.450   8.889   9.288  1.00  0.00    -0.259 OA
HETATM    3  C1  UNK     1      12.859   6.982   9.515  1.00  0.00     0.029 A 
HETATM    4  C2  UNK     1      14.120   6.508   9.610  1.00  0.00    -0.036 A 
HETATM    5  C3  UNK     1      15.250   7.456   9.665  1.00  0.00     0.005 A 
HETATM    6  C5  UNK     1      14.989   8.821   9.579  1.00  0.00     0.092 A 
HETATM    7  C7  UNK     1      12.587   8.446   9.409  1.00  0.00     0.295 A 
HETATM    8  C8  UNK     1      14.460   5.038   9.648  1.00  0.00     0.050 C 
HETATM    9  C9  UNK     1      16.592   7.070   9.810  1.00  0.00     0.017 A 
HETATM   10  C10 UNK     1      16.000   9.785   9.622  1.00  0.00     0.075 A 
HETATM   11  C11 UNK     1      17.322   9.379   9.761  1.00  0.00     0.072 A 
HETATM   12  C12 UNK     1      17.618   8.022   9.857  1.00  0.00     0.038 A 
ENDROOT
BRANCH   3  13
HETATM   13  C4  UNK     1      11.615   6.131   9.513  1.00  0.00     0.084 C 
BRANCH  13  14
HETATM   14  C6  UNK     1      10.931   6.131   8.179  1.00  0.00    -0.054 A 
HETATM   15  C13 UNK     1      11.689   6.048   7.016  1.00  0.00     0.007 A 
HETATM   16  C15 UNK     1      11.053   6.047   5.774  1.00  0.00     0.001 A 
HETATM   17  C17 UNK     1       9.663   6.131   5.703  1.00  0.00     0.000 A 
HETATM   18  C16 UNK     1       8.908   6.216   6.874  1.00  0.00     0.001 A 
HETATM   19  C14 UNK     1       9.544   6.216   8.115  1.00  0.00     0.007 A 
ENDBRANCH  13  14
ENDBRANCH   3  13
BRANCH  11  20
HETATM   20  O2  UNK     1      18.320  10.301   9.806  1.00  0.00    -0.341 OA
BRANCH  20  21
HETATM   21  C18 UNK     1      18.075  11.557   9.173  1.00  0.00     0.285 C 
BRANCH  21  22
HETATM   22  C19 UNK     1      18.617  11.533   7.770  1.00  0.00     0.164 C 
HETATM   23  O5  UNK     1      18.066  11.998   6.783  1.00  0.00    -0.648 OA
BRANCH  22  24
HETATM   24  O4  UNK     1      19.825  10.916   7.745  1.00  0.00    -0.775 OA
HETATM   25  H16 UNK     1      20.483  11.377   8.309  1.00  0.00     0.167 HD
ENDBRANCH  22  24
ENDBRANCH  21  22
ENDBRANCH  20  21
ENDBRANCH  11  20
TORSDOF 6
ENDMDL
MODEL 10
REMARK VINA RESULT:      -7.5      5.459     11.399
REMARK  6 active torsions:
REMARK  status: ('A' for Active; 'I' for Inactive)
REMARK    1  A    between atoms: C11_16  and  O2_2 
REMARK    2  A    between atoms: C18_23  and  O2_2 
REMARK    3  A    between atoms: C19_24  and  O4_4 
REMARK    4  A    between atoms: C1_6  and  C4_9 
REMARK    5  A    between atoms: C4_9  and  C6_11 
REMARK    6  A    between atoms: C18_23  and  C19_24 
ROOT
HETATM    1  O1  UNK     1      20.393  -5.483  34.279  1.00  0.00    -0.274 OA
HETATM    2  O3  UNK     1      20.597  -7.645  33.617  1.00  0.00    -0.259 OA
HETATM    3  C1  UNK     1      20.085  -7.291  35.916  1.00  0.00     0.029 A 
HETATM    4  C2  UNK     1      19.880  -6.398  36.909  1.00  0.00    -0.036 A 
HETATM    5  C3  UNK     1      19.888  -4.954  36.600  1.00  0.00     0.005 A 
HETATM    6  C5  UNK     1      20.147  -4.546  35.294  1.00  0.00     0.092 A 
HETATM    7  C7  UNK     1      20.375  -6.846  34.521  1.00  0.00     0.295 A 
HETATM    8  C8  UNK     1      19.652  -6.787  38.349  1.00  0.00     0.050 C 
HETATM    9  C9  UNK     1      19.640  -3.948  37.546  1.00  0.00     0.017 A 
HETATM   10  C10 UNK     1      20.174  -3.201  34.918  1.00  0.00     0.075 A 
HETATM   11  C11 UNK     1      19.932  -2.221  35.873  1.00  0.00     0.072 A 
HETATM   12  C12 UNK     1      19.662  -2.595  37.187  1.00  0.00     0.038 A 
ENDROOT
BRANCH   3  13
HETATM   13  C4  UNK     1      20.039  -8.789  36.079  1.00  0.00     0.084 C 
BRANCH  13  14
HETATM   14  C6  UNK     1      21.410  -9.393  36.145  1.00  0.00    -0.054 A 
HETATM   15  C13 UNK     1      21.650 -10.624  35.544  1.00  0.00     0.007 A 
HETATM   16  C15 UNK     1      22.926 -11.186  35.605  1.00  0.00     0.001 A 
HETATM   17  C17 UNK     1      23.953 -10.514  36.266  1.00  0.00     0.000 A 
HETATM   18  C16 UNK     1      23.705  -9.279  36.868  1.00  0.00     0.001 A 
HETATM   19  C14 UNK     1      22.430  -8.717  36.806  1.00  0.00     0.007 A 
ENDBRANCH  13  14
ENDBRANCH   3  13
BRANCH  11  20
HETATM   20  O2  UNK     1      19.953  -0.907  35.527  1.00  0.00    -0.341 OA
BRANCH  20  21
HETATM   21  C18 UNK     1      18.696  -0.237  35.437  1.00  0.00     0.285 C 
BRANCH  21  22
HETATM   22  C19 UNK     1      18.206  -0.258  34.015  1.00  0.00     0.164 C 
HETATM   23  O5  UNK     1      18.694   0.360  33.082  1.00  0.00    -0.648 OA
BRANCH  22  24
HETATM   24  O4  UNK     1      17.128  -1.075  33.905  1.00  0.00    -0.775 OA
HETATM   25  H16 UNK     1      16.656  -0.943  33.054  1.00  0.00     0.167 HD
ENDBRANCH  22  24
ENDBRANCH  21  22
ENDBRANCH  20  21
ENDBRANCH  11  20
TORSDOF 6
ENDMDL
