MODEL 1
REMARK VINA RESULT:      -8.5      0.000      0.000
REMARK  7 active torsions:
REMARK  status: ('A' for Active; 'I' for Inactive)
REMARK    1  A    between atoms: C14_21  and  O1_1 
REMARK    2  A    between atoms: C2_9  and  O1_1 
REMARK    3  A    between atoms: C15_22  and  N1_6 
REMARK    4  A    between atoms: C1_8  and  C8_15 
REMARK    5  A    between atoms: C14_21  and  C5_12 
REMARK    6  A    between atoms: C11_18  and  C9_16 
REMARK    7  A    between atoms: C10_17  and  C11_18 
ROOT
HETATM    1  N2  UNK     1      30.733  -9.730  27.440  1.00  0.00    -0.191 NA
HETATM    2  C8  UNK     1      32.218  -8.974  30.521  1.00  0.00     0.038 C 
HETATM    3  C10 UNK     1      31.410  -8.436  29.574  1.00  0.00     0.096 C 
HETATM    4  C23 UNK     1      31.035  -9.152  28.399  1.00  0.00     0.103 C 
ENDROOT
BRANCH   3   5
HETATM    5  C11 UNK     1      30.978  -7.015  29.782  1.00  0.00     0.202 C 
HETATM    6  O2  UNK     1      31.550  -6.066  29.257  1.00  0.00    -0.286 OA
BRANCH   5   7
HETATM    7  C9  UNK     1      29.798  -6.752  30.632  1.00  0.00     0.015 A 
HETATM    8  C18 UNK     1      29.860  -5.745  31.579  1.00  0.00     0.015 A 
HETATM    9  C20 UNK     1      28.746  -5.496  32.380  1.00  0.00     0.001 A 
HETATM   10  C22 UNK     1      27.590  -6.259  32.222  1.00  0.00     0.000 A 
HETATM   11  C21 UNK     1      27.545  -7.271  31.263  1.00  0.00     0.001 A 
HETATM   12  C19 UNK     1      28.660  -7.519  30.460  1.00  0.00     0.015 A 
ENDBRANCH   5   7
ENDBRANCH   3   5
BRANCH   2  13
HETATM   13  C1  UNK     1      32.654  -8.326  31.748  1.00  0.00    -0.035 A 
HETATM   14  C3  UNK     1      33.826  -7.569  31.759  1.00  0.00     0.014 A 
HETATM   15  C6  UNK     1      34.242  -6.948  32.937  1.00  0.00     0.038 A 
HETATM   16  C2  UNK     1      33.488  -7.084  34.102  1.00  0.00     0.079 A 
HETATM   17  C7  UNK     1      32.316  -7.842  34.091  1.00  0.00     0.038 A 
HETATM   18  C4  UNK     1      31.900  -8.462  32.913  1.00  0.00     0.014 A 
BRANCH  16  19
HETATM   19  O1  UNK     1      33.896  -6.477  35.250  1.00  0.00    -0.275 OA
BRANCH  19  20
HETATM   20  C14 UNK     1      33.491  -5.146  35.373  1.00  0.00     0.298 C 
HETATM   21  O3  UNK     1      33.936  -4.205  34.733  1.00  0.00    -0.259 OA
BRANCH  20  22
HETATM   22  C5  UNK     1      32.440  -4.999  36.411  1.00  0.00     0.040 A 
HETATM   23  C12 UNK     1      32.208  -6.046  37.277  1.00  0.00     0.020 A 
HETATM   24  C16 UNK     1      31.222  -5.908  38.254  1.00  0.00     0.037 A 
HETATM   25  C15 UNK     1      30.489  -4.725  38.342  1.00  0.00     0.102 A 
HETATM   26  C17 UNK     1      30.743  -3.679  37.454  1.00  0.00     0.037 A 
HETATM   27  C13 UNK     1      31.729  -3.817  36.478  1.00  0.00     0.020 A 
BRANCH  25  28
HETATM   28  N1  UNK     1      29.485  -4.583  39.336  1.00  0.00    -0.116 N 
HETATM   29  O4  UNK     1      28.627  -5.490  39.466  1.00  0.00    -0.532 OA
HETATM   30  O5  UNK     1      29.482  -3.557  40.058  1.00  0.00    -0.532 OA
ENDBRANCH  25  28
ENDBRANCH  20  22
ENDBRANCH  19  20
ENDBRANCH  16  19
ENDBRANCH   2  13
TORSDOF 7
ENDMDL
MODEL 2
REMARK VINA RESULT:      -8.5      0.113      1.251
REMARK  7 active torsions:
REMARK  status: ('A' for Active; 'I' for Inactive)
REMARK    1  A    between atoms: C14_21  and  O1_1 
REMARK    2  A    between atoms: C2_9  and  O1_1 
REMARK    3  A    between atoms: C15_22  and  N1_6 
REMARK    4  A    between atoms: C1_8  and  C8_15 
REMARK    5  A    between atoms: C14_21  and  C5_12 
REMARK    6  A    between atoms: C11_18  and  C9_16 
REMARK    7  A    between atoms: C10_17  and  C11_18 
ROOT
HETATM    1  N2  UNK     1      30.685  -9.772  27.443  1.00  0.00    -0.191 NA
HETATM    2  C8  UNK     1      32.162  -9.044  30.535  1.00  0.00     0.038 C 
HETATM    3  C10 UNK     1      31.388  -8.484  29.573  1.00  0.00     0.096 C 
HETATM    4  C23 UNK     1      30.999  -9.196  28.400  1.00  0.00     0.103 C 
ENDROOT
BRANCH   3   5
HETATM    5  C11 UNK     1      31.010  -7.045  29.762  1.00  0.00     0.202 C 
HETATM    6  O2  UNK     1      31.593  -6.128  29.193  1.00  0.00    -0.286 OA
BRANCH   5   7
HETATM    7  C9  UNK     1      29.873  -6.723  30.648  1.00  0.00     0.015 A 
HETATM    8  C18 UNK     1      29.987  -5.670  31.537  1.00  0.00     0.015 A 
HETATM    9  C20 UNK     1      28.913  -5.366  32.373  1.00  0.00     0.001 A 
HETATM   10  C22 UNK     1      27.742  -6.121  32.306  1.00  0.00     0.000 A 
HETATM   11  C21 UNK     1      27.645  -7.180  31.404  1.00  0.00     0.001 A 
HETATM   12  C19 UNK     1      28.720  -7.484  30.567  1.00  0.00     0.015 A 
ENDBRANCH   5   7
ENDBRANCH   3   5
BRANCH   2  13
HETATM   13  C1  UNK     1      32.609  -8.402  31.761  1.00  0.00    -0.035 A 
HETATM   14  C3  UNK     1      31.859  -8.532  32.930  1.00  0.00     0.014 A 
HETATM   15  C6  UNK     1      32.288  -7.916  34.105  1.00  0.00     0.038 A 
HETATM   16  C2  UNK     1      33.467  -7.170  34.112  1.00  0.00     0.079 A 
HETATM   17  C7  UNK     1      34.217  -7.040  32.942  1.00  0.00     0.038 A 
HETATM   18  C4  UNK     1      33.787  -7.656  31.767  1.00  0.00     0.014 A 
BRANCH  16  19
HETATM   19  O1  UNK     1      33.885  -6.570  35.259  1.00  0.00    -0.275 OA
BRANCH  19  20
HETATM   20  C14 UNK     1      33.511  -5.229  35.378  1.00  0.00     0.298 C 
HETATM   21  O3  UNK     1      33.983  -4.300  34.740  1.00  0.00    -0.259 OA
BRANCH  20  22
HETATM   22  C5  UNK     1      32.458  -5.055  36.410  1.00  0.00     0.040 A 
HETATM   23  C12 UNK     1      31.684  -3.915  36.387  1.00  0.00     0.020 A 
HETATM   24  C16 UNK     1      30.693  -3.752  37.356  1.00  0.00     0.037 A 
HETATM   25  C15 UNK     1      30.500  -4.733  38.327  1.00  0.00     0.102 A 
HETATM   26  C17 UNK     1      31.297  -5.879  38.329  1.00  0.00     0.037 A 
HETATM   27  C13 UNK     1      32.286  -6.042  37.360  1.00  0.00     0.020 A 
BRANCH  25  28
HETATM   28  N1  UNK     1      29.493  -4.568  39.314  1.00  0.00    -0.116 N 
HETATM   29  O4  UNK     1      28.559  -5.405  39.375  1.00  0.00    -0.532 OA
HETATM   30  O5  UNK     1      29.561  -3.590  40.097  1.00  0.00    -0.532 OA
ENDBRANCH  25  28
ENDBRANCH  20  22
ENDBRANCH  19  20
ENDBRANCH  16  19
ENDBRANCH   2  13
TORSDOF 7
ENDMDL
MODEL 3
REMARK VINA RESULT:      -8.5     10.291     13.168
REMARK  7 active torsions:
REMARK  status: ('A' for Active; 'I' for Inactive)
REMARK    1  A    between atoms: C14_21  and  O1_1 
REMARK    2  A    between atoms: C2_9  and  O1_1 
REMARK    3  A    between atoms: C15_22  and  N1_6 
REMARK    4  A    between atoms: C1_8  and  C8_15 
REMARK    5  A    between atoms: C14_21  and  C5_12 
REMARK    6  A    between atoms: C11_18  and  C9_16 
REMARK    7  A    between atoms: C10_17  and  C11_18 
ROOT
HETATM    1  N2  UNK     1      19.401 -11.836  38.506  1.00  0.00    -0.191 NA
HETATM    2  C8  UNK     1      19.697  -8.354  38.271  1.00  0.00     0.038 C 
HETATM    3  C10 UNK     1      20.023  -9.491  37.610  1.00  0.00     0.096 C 
HETATM    4  C23 UNK     1      19.677 -10.784  38.104  1.00  0.00     0.103 C 
ENDROOT
BRANCH   3   5
HETATM    5  C11 UNK     1      20.834  -9.337  36.358  1.00  0.00     0.202 C 
HETATM    6  O2  UNK     1      20.409  -8.763  35.360  1.00  0.00    -0.286 OA
BRANCH   5   7
HETATM    7  C9  UNK     1      22.210  -9.875  36.336  1.00  0.00     0.015 A 
HETATM    8  C18 UNK     1      23.241  -9.114  36.856  1.00  0.00     0.015 A 
HETATM    9  C20 UNK     1      24.540  -9.623  36.836  1.00  0.00     0.001 A 
HETATM   10  C22 UNK     1      24.785 -10.885  36.295  1.00  0.00     0.000 A 
HETATM   11  C21 UNK     1      23.733 -11.639  35.775  1.00  0.00     0.001 A 
HETATM   12  C19 UNK     1      22.434 -11.129  35.795  1.00  0.00     0.015 A 
ENDBRANCH   5   7
ENDBRANCH   3   5
BRANCH   2  13
HETATM   13  C1  UNK     1      20.004  -6.996  37.850  1.00  0.00    -0.035 A 
HETATM   14  C3  UNK     1      19.108  -6.297  37.040  1.00  0.00     0.014 A 
HETATM   15  C6  UNK     1      19.404  -4.995  36.637  1.00  0.00     0.038 A 
HETATM   16  C2  UNK     1      20.595  -4.392  37.042  1.00  0.00     0.079 A 
HETATM   17  C7  UNK     1      21.491  -5.091  37.852  1.00  0.00     0.038 A 
HETATM   18  C4  UNK     1      21.195  -6.393  38.255  1.00  0.00     0.014 A 
BRANCH  16  19
HETATM   19  O1  UNK     1      20.881  -3.122  36.648  1.00  0.00    -0.275 OA
BRANCH  19  20
HETATM   20  C14 UNK     1      20.217  -2.715  35.488  1.00  0.00     0.298 C 
HETATM   21  O3  UNK     1      20.491  -3.067  34.351  1.00  0.00    -0.259 OA
BRANCH  20  22
HETATM   22  C5  UNK     1      19.121  -1.764  35.804  1.00  0.00     0.040 A 
HETATM   23  C12 UNK     1      18.566  -1.023  34.781  1.00  0.00     0.020 A 
HETATM   24  C16 UNK     1      17.535  -0.132  35.077  1.00  0.00     0.037 A 
HETATM   25  C15 UNK     1      17.082   0.000  36.389  1.00  0.00     0.102 A 
HETATM   26  C17 UNK     1      17.659  -0.761  37.406  1.00  0.00     0.037 A 
HETATM   27  C13 UNK     1      18.689  -1.653  37.110  1.00  0.00     0.020 A 
BRANCH  25  28
HETATM   28  N1  UNK     1      16.033   0.908  36.691  1.00  0.00    -0.116 N 
HETATM   29  O4  UNK     1      16.271   1.884  37.443  1.00  0.00    -0.532 OA
HETATM   30  O5  UNK     1      14.896   0.710  36.199  1.00  0.00    -0.532 OA
ENDBRANCH  25  28
ENDBRANCH  20  22
ENDBRANCH  19  20
ENDBRANCH  16  19
ENDBRANCH   2  13
TORSDOF 7
ENDMDL
MODEL 4
REMARK VINA RESULT:      -8.2      2.802      8.216
REMARK  7 active torsions:
REMARK  status: ('A' for Active; 'I' for Inactive)
REMARK    1  A    between atoms: C14_21  and  O1_1 
REMARK    2  A    between atoms: C2_9  and  O1_1 
REMARK    3  A    between atoms: C15_22  and  N1_6 
REMARK    4  A    between atoms: C1_8  and  C8_15 
REMARK    5  A    between atoms: C14_21  and  C5_12 
REMARK    6  A    between atoms: C11_18  and  C9_16 
REMARK    7  A    between atoms: C10_17  and  C11_18 
ROOT
HETATM    1  N2  UNK     1      28.417 -10.526  39.720  1.00  0.00    -0.191 NA
HETATM    2  C8  UNK     1      28.989  -8.906  36.668  1.00  0.00     0.038 C 
HETATM    3  C10 UNK     1      29.478  -8.991  37.930  1.00  0.00     0.096 C 
HETATM    4  C23 UNK     1      28.893  -9.840  38.915  1.00  0.00     0.103 C 
ENDROOT
BRANCH   3   5
HETATM    5  C11 UNK     1      30.630  -8.094  38.271  1.00  0.00     0.202 C 
HETATM    6  O2  UNK     1      31.755  -8.521  38.508  1.00  0.00    -0.286 OA
BRANCH   5   7
HETATM    7  C9  UNK     1      30.405  -6.634  38.298  1.00  0.00     0.015 A 
HETATM    8  C18 UNK     1      29.263  -6.138  38.901  1.00  0.00     0.015 A 
HETATM    9  C20 UNK     1      29.051  -4.759  38.927  1.00  0.00     0.001 A 
HETATM   10  C22 UNK     1      29.985  -3.900  38.348  1.00  0.00     0.000 A 
HETATM   11  C21 UNK     1      31.131  -4.418  37.744  1.00  0.00     0.001 A 
HETATM   12  C19 UNK     1      31.343  -5.797  37.718  1.00  0.00     0.015 A 
ENDBRANCH   5   7
ENDBRANCH   3   5
BRANCH   2  13
HETATM   13  C1  UNK     1      29.515  -8.073  35.597  1.00  0.00    -0.035 A 
HETATM   14  C3  UNK     1      30.713  -8.415  34.971  1.00  0.00     0.014 A 
HETATM   15  C6  UNK     1      31.216  -7.616  33.944  1.00  0.00     0.038 A 
HETATM   16  C2  UNK     1      30.520  -6.476  33.543  1.00  0.00     0.079 A 
HETATM   17  C7  UNK     1      29.322  -6.133  34.170  1.00  0.00     0.038 A 
HETATM   18  C4  UNK     1      28.819  -6.932  35.196  1.00  0.00     0.014 A 
BRANCH  16  19
HETATM   19  O1  UNK     1      31.012  -5.698  32.541  1.00  0.00    -0.275 OA
BRANCH  19  20
HETATM   20  C14 UNK     1      30.089  -5.403  31.535  1.00  0.00     0.298 C 
HETATM   21  O3  UNK     1      29.454  -4.364  31.433  1.00  0.00    -0.259 OA
BRANCH  20  22
HETATM   22  C5  UNK     1      29.951  -6.537  30.585  1.00  0.00     0.040 A 
HETATM   23  C12 UNK     1      30.990  -6.813  29.722  1.00  0.00     0.020 A 
HETATM   24  C16 UNK     1      30.861  -7.879  28.832  1.00  0.00     0.037 A 
HETATM   25  C15 UNK     1      29.695  -8.644  28.823  1.00  0.00     0.102 A 
HETATM   26  C17 UNK     1      28.658  -8.344  29.707  1.00  0.00     0.037 A 
HETATM   27  C13 UNK     1      28.787  -7.279  30.598  1.00  0.00     0.020 A 
BRANCH  25  28
HETATM   28  N1  UNK     1      29.563  -9.729  27.917  1.00  0.00    -0.116 N 
HETATM   29  O4  UNK     1      28.483 -10.367  27.887  1.00  0.00    -0.532 OA
HETATM   30  O5  UNK     1      30.529 -10.020  27.171  1.00  0.00    -0.532 OA
ENDBRANCH  25  28
ENDBRANCH  20  22
ENDBRANCH  19  20
ENDBRANCH  16  19
ENDBRANCH   2  13
TORSDOF 7
ENDMDL
MODEL 5
REMARK VINA RESULT:      -8.2     14.871     18.002
REMARK  7 active torsions:
REMARK  status: ('A' for Active; 'I' for Inactive)
REMARK    1  A    between atoms: C14_21  and  O1_1 
REMARK    2  A    between atoms: C2_9  and  O1_1 
REMARK    3  A    between atoms: C15_22  and  N1_6 
REMARK    4  A    between atoms: C1_8  and  C8_15 
REMARK    5  A    between atoms: C14_21  and  C5_12 
REMARK    6  A    between atoms: C11_18  and  C9_16 
REMARK    7  A    between atoms: C10_17  and  C11_18 
ROOT
HETATM    1  N2  UNK     1      20.285   9.515  34.603  1.00  0.00    -0.191 NA
HETATM    2  C8  UNK     1      19.677   6.379  33.167  1.00  0.00     0.038 C 
HETATM    3  C10 UNK     1      19.186   7.643  33.198  1.00  0.00     0.096 C 
HETATM    4  C23 UNK     1      19.794   8.675  33.971  1.00  0.00     0.103 C 
ENDROOT
BRANCH   3   5
HETATM    5  C11 UNK     1      17.921   7.896  32.434  1.00  0.00     0.202 C 
HETATM    6  O2  UNK     1      17.842   7.751  31.218  1.00  0.00    -0.286 OA
BRANCH   5   7
HETATM    7  C9  UNK     1      16.716   8.312  33.180  1.00  0.00     0.015 A 
HETATM    8  C18 UNK     1      16.651   9.593  33.697  1.00  0.00     0.015 A 
HETATM    9  C20 UNK     1      15.512   9.986  34.400  1.00  0.00     0.001 A 
HETATM   10  C22 UNK     1      14.458   9.090  34.574  1.00  0.00     0.000 A 
HETATM   11  C21 UNK     1      14.540   7.802  34.046  1.00  0.00     0.001 A 
HETATM   12  C19 UNK     1      15.680   7.409  33.342  1.00  0.00     0.015 A 
ENDBRANCH   5   7
ENDBRANCH   3   5
BRANCH   2  13
HETATM   13  C1  UNK     1      19.130   5.263  32.412  1.00  0.00    -0.035 A 
HETATM   14  C3  UNK     1      18.254   4.368  33.026  1.00  0.00     0.014 A 
HETATM   15  C6  UNK     1      17.730   3.298  32.301  1.00  0.00     0.038 A 
HETATM   16  C2  UNK     1      18.081   3.123  30.962  1.00  0.00     0.079 A 
HETATM   17  C7  UNK     1      18.958   4.018  30.349  1.00  0.00     0.038 A 
HETATM   18  C4  UNK     1      19.482   5.088  31.073  1.00  0.00     0.014 A 
BRANCH  16  19
HETATM   19  O1  UNK     1      17.568   2.079  30.257  1.00  0.00    -0.275 OA
BRANCH  19  20
HETATM   20  C14 UNK     1      18.505   1.393  29.479  1.00  0.00     0.298 C 
HETATM   21  O3  UNK     1      18.734   1.598  28.296  1.00  0.00    -0.259 OA
BRANCH  20  22
HETATM   22  C5  UNK     1      19.196   0.346  30.272  1.00  0.00     0.040 A 
HETATM   23  C12 UNK     1      18.814   0.139  31.580  1.00  0.00     0.020 A 
HETATM   24  C16 UNK     1      19.462  -0.846  32.325  1.00  0.00     0.037 A 
HETATM   25  C15 UNK     1      20.480  -1.602  31.744  1.00  0.00     0.102 A 
HETATM   26  C17 UNK     1      20.848  -1.374  30.418  1.00  0.00     0.037 A 
HETATM   27  C13 UNK     1      20.199  -0.390  29.674  1.00  0.00     0.020 A 
BRANCH  25  28
HETATM   28  N1  UNK     1      21.140  -2.605  32.502  1.00  0.00    -0.116 N 
HETATM   29  O4  UNK     1      21.265  -3.754  32.011  1.00  0.00    -0.532 OA
HETATM   30  O5  UNK     1      21.581  -2.317  33.641  1.00  0.00    -0.532 OA
ENDBRANCH  25  28
ENDBRANCH  20  22
ENDBRANCH  19  20
ENDBRANCH  16  19
ENDBRANCH   2  13
TORSDOF 7
ENDMDL
MODEL 6
REMARK VINA RESULT:      -8.2      3.357      7.618
REMARK  7 active torsions:
REMARK  status: ('A' for Active; 'I' for Inactive)
REMARK    1  A    between atoms: C14_21  and  O1_1 
REMARK    2  A    between atoms: C2_9  and  O1_1 
REMARK    3  A    between atoms: C15_22  and  N1_6 
REMARK    4  A    between atoms: C1_8  and  C8_15 
REMARK    5  A    between atoms: C14_21  and  C5_12 
REMARK    6  A    between atoms: C11_18  and  C9_16 
REMARK    7  A    between atoms: C10_17  and  C11_18 
ROOT
HETATM    1  N2  UNK     1      27.153 -10.353  39.728  1.00  0.00    -0.191 NA
HETATM    2  C8  UNK     1      30.323  -9.557  38.468  1.00  0.00     0.038 C 
HETATM    3  C10 UNK     1      29.023  -9.181  38.380  1.00  0.00     0.096 C 
HETATM    4  C23 UNK     1      27.993  -9.826  39.126  1.00  0.00     0.103 C 
ENDROOT
BRANCH   3   5
HETATM    5  C11 UNK     1      28.698  -8.092  37.401  1.00  0.00     0.202 C 
HETATM    6  O2  UNK     1      28.043  -8.291  36.384  1.00  0.00    -0.286 OA
BRANCH   5   7
HETATM    7  C9  UNK     1      29.167  -6.720  37.689  1.00  0.00     0.015 A 
HETATM    8  C18 UNK     1      28.941  -6.180  38.942  1.00  0.00     0.015 A 
HETATM    9  C20 UNK     1      29.385  -4.885  39.213  1.00  0.00     0.001 A 
HETATM   10  C22 UNK     1      30.045  -4.153  38.226  1.00  0.00     0.000 A 
HETATM   11  C21 UNK     1      30.263  -4.715  36.968  1.00  0.00     0.001 A 
HETATM   12  C19 UNK     1      29.819  -6.010  36.697  1.00  0.00     0.015 A 
ENDBRANCH   5   7
ENDBRANCH   3   5
BRANCH   2  13
HETATM   13  C1  UNK     1      31.440  -8.962  37.751  1.00  0.00    -0.035 A 
HETATM   14  C3  UNK     1      31.707  -9.342  36.436  1.00  0.00     0.014 A 
HETATM   15  C6  UNK     1      32.778  -8.771  35.749  1.00  0.00     0.038 A 
HETATM   16  C2  UNK     1      33.583  -7.820  36.377  1.00  0.00     0.079 A 
HETATM   17  C7  UNK     1      33.315  -7.440  37.693  1.00  0.00     0.038 A 
HETATM   18  C4  UNK     1      32.244  -8.011  38.379  1.00  0.00     0.014 A 
BRANCH  16  19
HETATM   19  O1  UNK     1      34.627  -7.264  35.706  1.00  0.00    -0.275 OA
BRANCH  19  20
HETATM   20  C14 UNK     1      34.274  -6.202  34.869  1.00  0.00     0.298 C 
HETATM   21  O3  UNK     1      33.883  -5.105  35.239  1.00  0.00    -0.259 OA
BRANCH  20  22
HETATM   22  C5  UNK     1      34.415  -6.576  33.439  1.00  0.00     0.040 A 
HETATM   23  C12 UNK     1      35.636  -6.401  32.822  1.00  0.00     0.020 A 
HETATM   24  C16 UNK     1      35.769  -6.754  31.479  1.00  0.00     0.037 A 
HETATM   25  C15 UNK     1      34.678  -7.273  30.783  1.00  0.00     0.102 A 
HETATM   26  C17 UNK     1      33.454  -7.441  31.430  1.00  0.00     0.037 A 
HETATM   27  C13 UNK     1      33.321  -7.089  32.773  1.00  0.00     0.020 A 
BRANCH  25  28
HETATM   28  N1  UNK     1      34.813  -7.633  29.416  1.00  0.00    -0.116 N 
HETATM   29  O4  UNK     1      33.996  -8.444  28.918  1.00  0.00    -0.532 OA
HETATM   30  O5  UNK     1      35.746  -7.130  28.743  1.00  0.00    -0.532 OA
ENDBRANCH  25  28
ENDBRANCH  20  22
ENDBRANCH  19  20
ENDBRANCH  16  19
ENDBRANCH   2  13
TORSDOF 7
ENDMDL
MODEL 7
REMARK VINA RESULT:      -8.2      9.761     12.903
REMARK  7 active torsions:
REMARK  status: ('A' for Active; 'I' for Inactive)
REMARK    1  A    between atoms: C14_21  and  O1_1 
REMARK    2  A    between atoms: C2_9  and  O1_1 
REMARK    3  A    between atoms: C15_22  and  N1_6 
REMARK    4  A    between atoms: C1_8  and  C8_15 
REMARK    5  A    between atoms: C14_21  and  C5_12 
REMARK    6  A    between atoms: C11_18  and  C9_16 
REMARK    7  A    between atoms: C10_17  and  C11_18 
ROOT
HETATM    1  N2  UNK     1      19.397 -11.707  38.492  1.00  0.00    -0.191 NA
HETATM    2  C8  UNK     1      19.603  -8.227  38.155  1.00  0.00     0.038 C 
HETATM    3  C10 UNK     1      19.978  -9.374  37.539  1.00  0.00     0.096 C 
HETATM    4  C23 UNK     1      19.655 -10.660  38.064  1.00  0.00     0.103 C 
ENDROOT
BRANCH   3   5
HETATM    5  C11 UNK     1      20.819  -9.235  36.304  1.00  0.00     0.202 C 
HETATM    6  O2  UNK     1      20.422  -8.665  35.294  1.00  0.00    -0.286 OA
BRANCH   5   7
HETATM    7  C9  UNK     1      22.190  -9.786  36.317  1.00  0.00     0.015 A 
HETATM    8  C18 UNK     1      22.415 -11.048  35.799  1.00  0.00     0.015 A 
HETATM    9  C20 UNK     1      23.710 -11.567  35.810  1.00  0.00     0.001 A 
HETATM   10  C22 UNK     1      24.758 -10.814  36.341  1.00  0.00     0.000 A 
HETATM   11  C21 UNK     1      24.512  -9.543  36.860  1.00  0.00     0.001 A 
HETATM   12  C19 UNK     1      23.216  -9.024  36.848  1.00  0.00     0.015 A 
ENDBRANCH   5   7
ENDBRANCH   3   5
BRANCH   2  13
HETATM   13  C1  UNK     1      19.883  -6.874  37.699  1.00  0.00    -0.035 A 
HETATM   14  C3  UNK     1      18.988  -6.224  36.849  1.00  0.00     0.014 A 
HETATM   15  C6  UNK     1      19.259  -4.928  36.412  1.00  0.00     0.038 A 
HETATM   16  C2  UNK     1      20.423  -4.280  36.826  1.00  0.00     0.079 A 
HETATM   17  C7  UNK     1      21.318  -4.931  37.676  1.00  0.00     0.038 A 
HETATM   18  C4  UNK     1      21.048  -6.227  38.113  1.00  0.00     0.014 A 
BRANCH  16  19
HETATM   19  O1  UNK     1      20.685  -3.015  36.400  1.00  0.00    -0.275 OA
BRANCH  19  20
HETATM   20  C14 UNK     1      19.575  -2.339  35.885  1.00  0.00     0.298 C 
HETATM   21  O3  UNK     1      18.575  -2.032  36.515  1.00  0.00    -0.259 OA
BRANCH  20  22
HETATM   22  C5  UNK     1      19.749  -2.046  34.440  1.00  0.00     0.040 A 
HETATM   23  C12 UNK     1      20.781  -2.653  33.756  1.00  0.00     0.020 A 
HETATM   24  C16 UNK     1      20.944  -2.379  32.398  1.00  0.00     0.037 A 
HETATM   25  C15 UNK     1      20.071  -1.503  31.755  1.00  0.00     0.102 A 
HETATM   26  C17 UNK     1      19.035  -0.901  32.469  1.00  0.00     0.037 A 
HETATM   27  C13 UNK     1      18.872  -1.176  33.826  1.00  0.00     0.020 A 
BRANCH  25  28
HETATM   28  N1  UNK     1      20.236  -1.223  30.373  1.00  0.00    -0.116 N 
HETATM   29  O4  UNK     1      19.986  -2.125  29.536  1.00  0.00    -0.532 OA
HETATM   30  O5  UNK     1      20.628  -0.083  30.024  1.00  0.00    -0.532 OA
ENDBRANCH  25  28
ENDBRANCH  20  22
ENDBRANCH  19  20
ENDBRANCH  16  19
ENDBRANCH   2  13
TORSDOF 7
ENDMDL
MODEL 8
REMARK VINA RESULT:      -8.1     18.625     21.633
REMARK  7 active torsions:
REMARK  status: ('A' for Active; 'I' for Inactive)
REMARK    1  A    between atoms: C14_21  and  O1_1 
REMARK    2  A    between atoms: C2_9  and  O1_1 
REMARK    3  A    between atoms: C15_22  and  N1_6 
REMARK    4  A    between atoms: C1_8  and  C8_15 
REMARK    5  A    between atoms: C14_21  and  C5_12 
REMARK    6  A    between atoms: C11_18  and  C9_16 
REMARK    7  A    between atoms: C10_17  and  C11_18 
ROOT
HETATM    1  N2  UNK     1      11.703  11.799  33.060  1.00  0.00    -0.191 NA
HETATM    2  C8  UNK     1      14.216   9.360  33.054  1.00  0.00     0.038 C 
HETATM    3  C10 UNK     1      13.850  10.501  33.687  1.00  0.00     0.096 C 
HETATM    4  C23 UNK     1      12.665  11.214  33.342  1.00  0.00     0.103 C 
ENDROOT
BRANCH   3   5
HETATM    5  C11 UNK     1      14.790  11.028  34.730  1.00  0.00     0.202 C 
HETATM    6  O2  UNK     1      14.734  10.685  35.906  1.00  0.00    -0.286 OA
BRANCH   5   7
HETATM    7  C9  UNK     1      15.842  11.980  34.318  1.00  0.00     0.015 A 
HETATM    8  C18 UNK     1      17.170  11.610  34.435  1.00  0.00     0.015 A 
HETATM    9  C20 UNK     1      18.163  12.508  34.043  1.00  0.00     0.001 A 
HETATM   10  C22 UNK     1      17.811  13.761  33.543  1.00  0.00     0.000 A 
HETATM   11  C21 UNK     1      16.467  14.118  33.432  1.00  0.00     0.001 A 
HETATM   12  C19 UNK     1      15.474  13.218  33.823  1.00  0.00     0.015 A 
ENDBRANCH   5   7
ENDBRANCH   3   5
BRANCH   2  13
HETATM   13  C1  UNK     1      15.402   8.564  33.334  1.00  0.00    -0.035 A 
HETATM   14  C3  UNK     1      16.569   8.768  32.599  1.00  0.00     0.014 A 
HETATM   15  C6  UNK     1      17.705   8.005  32.868  1.00  0.00     0.038 A 
HETATM   16  C2  UNK     1      17.674   7.038  33.873  1.00  0.00     0.079 A 
HETATM   17  C7  UNK     1      16.506   6.834  34.609  1.00  0.00     0.038 A 
HETATM   18  C4  UNK     1      15.370   7.597  34.339  1.00  0.00     0.014 A 
BRANCH  16  19
HETATM   19  O1  UNK     1      18.783   6.295  34.135  1.00  0.00    -0.275 OA
BRANCH  19  20
HETATM   20  C14 UNK     1      19.685   6.211  33.071  1.00  0.00     0.298 C 
HETATM   21  O3  UNK     1      20.694   6.887  32.939  1.00  0.00    -0.259 OA
BRANCH  20  22
HETATM   22  C5  UNK     1      19.255   5.190  32.083  1.00  0.00     0.040 A 
HETATM   23  C12 UNK     1      18.609   4.058  32.533  1.00  0.00     0.020 A 
HETATM   24  C16 UNK     1      18.203   3.099  31.604  1.00  0.00     0.037 A 
HETATM   25  C15 UNK     1      18.454   3.294  30.246  1.00  0.00     0.102 A 
HETATM   26  C17 UNK     1      19.109   4.448  29.816  1.00  0.00     0.037 A 
HETATM   27  C13 UNK     1      19.513   5.407  30.745  1.00  0.00     0.020 A 
BRANCH  25  28
HETATM   28  N1  UNK     1      18.041   2.318  29.301  1.00  0.00    -0.116 N 
HETATM   29  O4  UNK     1      17.829   1.145  29.691  1.00  0.00    -0.532 OA
HETATM   30  O5  UNK     1      17.900   2.655  28.100  1.00  0.00    -0.532 OA
ENDBRANCH  25  28
ENDBRANCH  20  22
ENDBRANCH  19  20
ENDBRANCH  16  19
ENDBRANCH   2  13
TORSDOF 7
ENDMDL
MODEL 9
REMARK VINA RESULT:      -8.1      2.801      6.939
REMARK  7 active torsions:
REMARK  status: ('A' for Active; 'I' for Inactive)
REMARK    1  A    between atoms: C14_21  and  O1_1 
REMARK    2  A    between atoms: C2_9  and  O1_1 
REMARK    3  A    between atoms: C15_22  and  N1_6 
REMARK    4  A    between atoms: C1_8  and  C8_15 
REMARK    5  A    between atoms: C14_21  and  C5_12 
REMARK    6  A    between atoms: C11_18  and  C9_16 
REMARK    7  A    between atoms: C10_17  and  C11_18 
ROOT
HETATM    1  N2  UNK     1      27.248  -9.998  40.185  1.00  0.00    -0.191 NA
HETATM    2  C8  UNK     1      30.235  -9.664  38.387  1.00  0.00     0.038 C 
HETATM    3  C10 UNK     1      28.991  -9.133  38.482  1.00  0.00     0.096 C 
HETATM    4  C23 UNK     1      28.032  -9.609  39.423  1.00  0.00     0.103 C 
ENDROOT
BRANCH   3   5
HETATM    5  C11 UNK     1      28.637  -8.059  37.496  1.00  0.00     0.202 C 
HETATM    6  O2  UNK     1      27.958  -8.275  36.498  1.00  0.00    -0.286 OA
BRANCH   5   7
HETATM    7  C9  UNK     1      29.104  -6.681  37.754  1.00  0.00     0.015 A 
HETATM    8  C18 UNK     1      29.830  -6.021  36.779  1.00  0.00     0.015 A 
HETATM    9  C20 UNK     1      30.270  -4.720  37.023  1.00  0.00     0.001 A 
HETATM   10  C22 UNK     1      29.977  -4.102  38.238  1.00  0.00     0.000 A 
HETATM   11  C21 UNK     1      29.244  -4.783  39.210  1.00  0.00     0.001 A 
HETATM   12  C19 UNK     1      28.804  -6.085  38.966  1.00  0.00     0.015 A 
ENDBRANCH   5   7
ENDBRANCH   3   5
BRANCH   2  13
HETATM   13  C1  UNK     1      31.279  -9.248  37.464  1.00  0.00    -0.035 A 
HETATM   14  C3  UNK     1      31.323  -9.779  36.174  1.00  0.00     0.014 A 
HETATM   15  C6  UNK     1      32.325  -9.379  35.290  1.00  0.00     0.038 A 
HETATM   16  C2  UNK     1      33.282  -8.449  35.694  1.00  0.00     0.079 A 
HETATM   17  C7  UNK     1      33.238  -7.918  36.983  1.00  0.00     0.038 A 
HETATM   18  C4  UNK     1      32.237  -8.317  37.868  1.00  0.00     0.014 A 
BRANCH  16  19
HETATM   19  O1  UNK     1      34.258  -8.059  34.829  1.00  0.00    -0.275 OA
BRANCH  19  20
HETATM   20  C14 UNK     1      34.123  -6.750  34.360  1.00  0.00     0.298 C 
HETATM   21  O3  UNK     1      34.844  -5.810  34.660  1.00  0.00    -0.259 OA
BRANCH  20  22
HETATM   22  C5  UNK     1      32.961  -6.625  33.445  1.00  0.00     0.040 A 
HETATM   23  C12 UNK     1      32.977  -7.314  32.250  1.00  0.00     0.020 A 
HETATM   24  C16 UNK     1      31.885  -7.198  31.390  1.00  0.00     0.037 A 
HETATM   25  C15 UNK     1      30.801  -6.395  31.744  1.00  0.00     0.102 A 
HETATM   26  C17 UNK     1      30.809  -5.709  32.959  1.00  0.00     0.037 A 
HETATM   27  C13 UNK     1      31.901  -5.826  33.819  1.00  0.00     0.020 A 
BRANCH  25  28
HETATM   28  N1  UNK     1      29.689  -6.277  30.869  1.00  0.00    -0.116 N 
HETATM   29  O4  UNK     1      29.745  -6.818  29.739  1.00  0.00    -0.532 OA
HETATM   30  O5  UNK     1      28.681  -5.634  31.249  1.00  0.00    -0.532 OA
ENDBRANCH  25  28
ENDBRANCH  20  22
ENDBRANCH  19  20
ENDBRANCH  16  19
ENDBRANCH   2  13
TORSDOF 7
ENDMDL
MODEL 10
REMARK VINA RESULT:      -8.0      2.246      3.185
REMARK  7 active torsions:
REMARK  status: ('A' for Active; 'I' for Inactive)
REMARK    1  A    between atoms: C14_21  and  O1_1 
REMARK    2  A    between atoms: C2_9  and  O1_1 
REMARK    3  A    between atoms: C15_22  and  N1_6 
REMARK    4  A    between atoms: C1_8  and  C8_15 
REMARK    5  A    between atoms: C14_21  and  C5_12 
REMARK    6  A    between atoms: C11_18  and  C9_16 
REMARK    7  A    between atoms: C10_17  and  C11_18 
ROOT
HETATM    1  N2  UNK     1      30.537  -9.969  27.478  1.00  0.00    -0.191 NA
HETATM    2  C8  UNK     1      30.095 -10.383  30.927  1.00  0.00     0.038 C 
HETATM    3  C10 UNK     1      30.692  -9.563  30.027  1.00  0.00     0.096 C 
HETATM    4  C23 UNK     1      30.604  -9.787  28.621  1.00  0.00     0.103 C 
ENDROOT
BRANCH   3   5
HETATM    5  C11 UNK     1      31.517  -8.439  30.578  1.00  0.00     0.202 C 
HETATM    6  O2  UNK     1      32.740  -8.491  30.654  1.00  0.00    -0.286 OA
BRANCH   5   7
HETATM    7  C9  UNK     1      30.828  -7.210  31.024  1.00  0.00     0.015 A 
HETATM    8  C18 UNK     1      29.812  -6.685  30.245  1.00  0.00     0.015 A 
HETATM    9  C20 UNK     1      29.162  -5.526  30.667  1.00  0.00     0.001 A 
HETATM   10  C22 UNK     1      29.539  -4.910  31.859  1.00  0.00     0.000 A 
HETATM   11  C21 UNK     1      30.567  -5.452  32.632  1.00  0.00     0.001 A 
HETATM   12  C19 UNK     1      31.217  -6.613  32.210  1.00  0.00     0.015 A 
ENDBRANCH   5   7
ENDBRANCH   3   5
BRANCH   2  13
HETATM   13  C1  UNK     1      30.127 -10.238  32.374  1.00  0.00    -0.035 A 
HETATM   14  C3  UNK     1      29.150  -9.483  33.022  1.00  0.00     0.014 A 
HETATM   15  C6  UNK     1      29.181  -9.345  34.410  1.00  0.00     0.038 A 
HETATM   16  C2  UNK     1      30.190  -9.963  35.149  1.00  0.00     0.079 A 
HETATM   17  C7  UNK     1      31.167 -10.718  34.501  1.00  0.00     0.038 A 
HETATM   18  C4  UNK     1      31.136 -10.856  33.114  1.00  0.00     0.014 A 
BRANCH  16  19
HETATM   19  O1  UNK     1      30.219  -9.828  36.503  1.00  0.00    -0.275 OA
BRANCH  19  20
HETATM   20  C14 UNK     1      31.198  -8.949  36.974  1.00  0.00     0.298 C 
HETATM   21  O3  UNK     1      32.404  -9.133  36.918  1.00  0.00    -0.259 OA
BRANCH  20  22
HETATM   22  C5  UNK     1      30.586  -7.742  37.585  1.00  0.00     0.040 A 
HETATM   23  C12 UNK     1      31.361  -6.614  37.750  1.00  0.00     0.020 A 
HETATM   24  C16 UNK     1      30.785  -5.479  38.322  1.00  0.00     0.037 A 
HETATM   25  C15 UNK     1      29.448  -5.499  38.717  1.00  0.00     0.102 A 
HETATM   26  C17 UNK     1      28.685  -6.653  38.538  1.00  0.00     0.037 A 
HETATM   27  C13 UNK     1      29.260  -7.787  37.965  1.00  0.00     0.020 A 
BRANCH  25  28
HETATM   28  N1  UNK     1      28.862  -4.344  39.299  1.00  0.00    -0.116 N 
HETATM   29  O4  UNK     1      27.657  -4.088  39.060  1.00  0.00    -0.532 OA
HETATM   30  O5  UNK     1      29.564  -3.610  40.037  1.00  0.00    -0.532 OA
ENDBRANCH  25  28
ENDBRANCH  20  22
ENDBRANCH  19  20
ENDBRANCH  16  19
ENDBRANCH   2  13
TORSDOF 7
ENDMDL
