MODEL 1
REMARK VINA RESULT:      -8.6      0.000      0.000
REMARK  6 active torsions:
REMARK  status: ('A' for Active; 'I' for Inactive)
REMARK    1  A    between atoms: C21_28  and  O3_3 
REMARK    2  A    between atoms: C23_30  and  O3_3 
REMARK       I    between atoms: C11_18  and  N1_5 
REMARK    3  A    between atoms: C10_17  and  N2_6 
REMARK    4  A    between atoms: C13_20  and  N3_7 
REMARK    5  A    between atoms: C10_17  and  C11_18 
REMARK    6  A    between atoms: C13_20  and  C14_21 
ROOT
HETATM    1  N2  UNK     1       9.083   7.080   7.508  1.00  0.00     0.100 N 
HETATM    2  N3  UNK     1      11.935   6.611   7.448  1.00  0.00     0.096 N 
HETATM    3  C6  UNK     1       9.686   6.175   6.522  1.00  0.00     0.303 C 
HETATM    4  C7  UNK     1       9.886   7.107   8.736  1.00  0.00     0.303 C 
HETATM    5  C8  UNK     1      11.131   6.584   6.219  1.00  0.00     0.303 C 
HETATM    6  C9  UNK     1      11.331   7.515   8.435  1.00  0.00     0.303 C 
ENDROOT
BRANCH   2   7
HETATM    7  C13 UNK     1      13.314   7.003   7.159  1.00  0.00     0.312 C 
BRANCH   7   8
HETATM    8  C14 UNK     1      14.239   6.667   8.275  1.00  0.00    -0.011 A 
HETATM    9  C15 UNK     1      14.912   7.741   9.019  1.00  0.00     0.009 A 
HETATM   10  C17 UNK     1      15.772   7.396  10.061  1.00  0.00     0.090 A 
HETATM   11  C18 UNK     1      14.740   9.104   8.743  1.00  0.00     0.051 A 
HETATM   12  O2  UNK     1      15.999   6.047  10.402  1.00  0.00    -0.275 OA
HETATM   13  C20 UNK     1      16.451   8.353  10.817  1.00  0.00     0.041 A 
HETATM   14  C19 UNK     1      15.378   5.013   9.720  1.00  0.00     0.288 A 
HETATM   15  C16 UNK     1      14.473   5.393   8.623  1.00  0.00     0.092 A 
HETATM   16  O4  UNK     1      15.568   3.836  10.009  1.00  0.00    -0.260 OA
HETATM   17  C22 UNK     1      16.268   9.701  10.528  1.00  0.00     0.039 A 
HETATM   18  C21 UNK     1      15.413  10.077   9.492  1.00  0.00     0.069 A 
BRANCH  18  19
HETATM   19  O3  UNK     1      15.231  11.395   9.208  1.00  0.00    -0.351 OA
BRANCH  19  20
HETATM   20  C23 UNK     1      15.453  11.805   7.860  1.00  0.00     0.171 C 
HETATM   21  C24 UNK     1      16.940  11.971   7.632  1.00  0.00     0.034 C 
ENDBRANCH  19  20
ENDBRANCH  18  19
ENDBRANCH   7   8
ENDBRANCH   2   7
BRANCH   1  22
HETATM   22  C10 UNK     1       7.704   6.690   7.795  1.00  0.00     0.374 C 
BRANCH  22  23
HETATM   23  C11 UNK     1       7.633   5.722   8.950  1.00  0.00     0.248 C 
HETATM   24  O1  UNK     1       7.983   4.551   8.776  1.00  0.00    -0.271 OA
HETATM   25  N1  UNK     1       7.166   6.228  10.161  1.00  0.00    -0.350 N 
HETATM   26  C2  UNK     1       6.768   7.621  10.406  1.00  0.00     0.130 C 
HETATM   27  C5  UNK     1       7.065   5.349  11.329  1.00  0.00     0.126 C 
HETATM   28  C1  UNK     1       5.335   7.688  10.956  1.00  0.00    -0.001 C 
HETATM   29  C3  UNK     1       5.190   6.791  12.195  1.00  0.00     0.007 C 
HETATM   30  C12 UNK     1       4.948   9.128  11.280  1.00  0.00     0.011 C 
HETATM   31  C4  UNK     1       5.650   5.364  11.898  1.00  0.00     0.020 C 
ENDBRANCH  22  23
ENDBRANCH   1  22
TORSDOF 6
ENDMDL
MODEL 2
REMARK VINA RESULT:      -8.5     33.178     36.199
REMARK  6 active torsions:
REMARK  status: ('A' for Active; 'I' for Inactive)
REMARK    1  A    between atoms: C21_28  and  O3_3 
REMARK    2  A    between atoms: C23_30  and  O3_3 
REMARK       I    between atoms: C11_18  and  N1_5 
REMARK    3  A    between atoms: C10_17  and  N2_6 
REMARK    4  A    between atoms: C13_20  and  N3_7 
REMARK    5  A    between atoms: C10_17  and  C11_18 
REMARK    6  A    between atoms: C13_20  and  C14_21 
ROOT
HETATM    1  N2  UNK     1      29.787  -8.725  37.143  1.00  0.00     0.100 N 
HETATM    2  N3  UNK     1      26.978  -9.392  37.292  1.00  0.00     0.096 N 
HETATM    3  C6  UNK     1      29.256  -9.548  38.236  1.00  0.00     0.303 C 
HETATM    4  C7  UNK     1      28.980  -8.902  35.930  1.00  0.00     0.303 C 
HETATM    5  C8  UNK     1      27.784  -9.214  38.505  1.00  0.00     0.303 C 
HETATM    6  C9  UNK     1      27.509  -8.570  36.197  1.00  0.00     0.303 C 
ENDROOT
BRANCH   2   7
HETATM    7  C13 UNK     1      25.574  -9.071  37.549  1.00  0.00     0.312 C 
BRANCH   7   8
HETATM    8  C14 UNK     1      24.648  -9.953  36.788  1.00  0.00    -0.011 A 
HETATM    9  C15 UNK     1      23.259  -9.532  36.557  1.00  0.00     0.009 A 
HETATM   10  C17 UNK     1      22.414 -10.379  35.839  1.00  0.00     0.090 A 
HETATM   11  C18 UNK     1      22.726  -8.321  37.017  1.00  0.00     0.051 A 
HETATM   12  O2  UNK     1      22.873 -11.615  35.341  1.00  0.00    -0.275 OA
HETATM   13  C20 UNK     1      21.081 -10.056  35.576  1.00  0.00     0.041 A 
HETATM   14  C19 UNK     1      24.178 -12.037  35.542  1.00  0.00     0.288 A 
HETATM   15  C16 UNK     1      25.057 -11.133  36.301  1.00  0.00     0.092 A 
HETATM   16  O4  UNK     1      24.588 -13.111  35.112  1.00  0.00    -0.260 OA
HETATM   17  C22 UNK     1      20.571  -8.850  36.042  1.00  0.00     0.039 A 
HETATM   18  C21 UNK     1      21.392  -7.982  36.761  1.00  0.00     0.069 A 
BRANCH  18  19
HETATM   19  O3  UNK     1      20.894  -6.801  37.217  1.00  0.00    -0.351 OA
BRANCH  19  20
HETATM   20  C23 UNK     1      19.693  -6.856  37.986  1.00  0.00     0.171 C 
HETATM   21  C24 UNK     1      20.049  -7.064  39.442  1.00  0.00     0.034 C 
ENDBRANCH  19  20
ENDBRANCH  18  19
ENDBRANCH   7   8
ENDBRANCH   2   7
BRANCH   1  22
HETATM   22  C10 UNK     1      31.189  -9.044  36.887  1.00  0.00     0.374 C 
BRANCH  22  23
HETATM   23  C11 UNK     1      32.103  -7.945  37.368  1.00  0.00     0.248 C 
HETATM   24  O1  UNK     1      32.479  -7.945  38.544  1.00  0.00    -0.271 OA
HETATM   25  N1  UNK     1      32.467  -6.980  36.430  1.00  0.00    -0.350 N 
HETATM   26  C2  UNK     1      32.058  -6.967  35.019  1.00  0.00     0.130 C 
HETATM   27  C5  UNK     1      33.350  -5.879  36.821  1.00  0.00     0.126 C 
HETATM   28  C1  UNK     1      31.379  -5.636  34.663  1.00  0.00    -0.001 C 
HETATM   29  C3  UNK     1      32.282  -4.452  35.042  1.00  0.00     0.007 C 
HETATM   30  C12 UNK     1      31.021  -5.592  33.180  1.00  0.00     0.011 C 
HETATM   31  C4  UNK     1      32.707  -4.532  36.507  1.00  0.00     0.020 C 
ENDBRANCH  22  23
ENDBRANCH   1  22
TORSDOF 6
ENDMDL
MODEL 3
REMARK VINA RESULT:      -8.5     31.902     35.281
REMARK  6 active torsions:
REMARK  status: ('A' for Active; 'I' for Inactive)
REMARK    1  A    between atoms: C21_28  and  O3_3 
REMARK    2  A    between atoms: C23_30  and  O3_3 
REMARK       I    between atoms: C11_18  and  N1_5 
REMARK    3  A    between atoms: C10_17  and  N2_6 
REMARK    4  A    between atoms: C13_20  and  N3_7 
REMARK    5  A    between atoms: C10_17  and  C11_18 
REMARK    6  A    between atoms: C13_20  and  C14_21 
ROOT
HETATM    1  N2  UNK     1      32.185  -7.657  31.688  1.00  0.00     0.100 N 
HETATM    2  N3  UNK     1      32.622  -6.655  34.365  1.00  0.00     0.096 N 
HETATM    3  C6  UNK     1      31.329  -6.610  32.259  1.00  0.00     0.303 C 
HETATM    4  C7  UNK     1      33.533  -7.587  32.266  1.00  0.00     0.303 C 
HETATM    5  C8  UNK     1      31.274  -6.724  33.787  1.00  0.00     0.303 C 
HETATM    6  C9  UNK     1      33.480  -7.700  33.793  1.00  0.00     0.303 C 
ENDROOT
BRANCH   2   7
HETATM    7  C13 UNK     1      32.569  -6.765  35.822  1.00  0.00     0.312 C 
BRANCH   7   8
HETATM    8  C14 UNK     1      31.833  -5.631  36.445  1.00  0.00    -0.011 A 
HETATM    9  C15 UNK     1      30.679  -5.895  37.316  1.00  0.00     0.009 A 
HETATM   10  C17 UNK     1      30.010  -4.812  37.887  1.00  0.00     0.090 A 
HETATM   11  C18 UNK     1      30.205  -7.180  37.611  1.00  0.00     0.051 A 
HETATM   12  O2  UNK     1      30.425  -3.487  37.639  1.00  0.00    -0.275 OA
HETATM   13  C20 UNK     1      28.905  -4.974  38.724  1.00  0.00     0.041 A 
HETATM   14  C19 UNK     1      31.511  -3.208  36.824  1.00  0.00     0.288 A 
HETATM   15  C16 UNK     1      32.205  -4.361  36.229  1.00  0.00     0.092 A 
HETATM   16  O4  UNK     1      31.879  -2.060  36.604  1.00  0.00    -0.260 OA
HETATM   17  C22 UNK     1      28.450  -6.258  39.005  1.00  0.00     0.039 A 
HETATM   18  C21 UNK     1      29.099  -7.360  38.450  1.00  0.00     0.069 A 
BRANCH  18  19
HETATM   19  O3  UNK     1      28.655  -8.616  38.724  1.00  0.00    -0.351 OA
BRANCH  19  20
HETATM   20  C23 UNK     1      27.572  -8.736  39.646  1.00  0.00     0.171 C 
HETATM   21  C24 UNK     1      27.687 -10.058  40.374  1.00  0.00     0.034 C 
ENDBRANCH  19  20
ENDBRANCH  18  19
ENDBRANCH   7   8
ENDBRANCH   2   7
BRANCH   1  22
HETATM   22  C10 UNK     1      32.237  -7.548  30.232  1.00  0.00     0.374 C 
BRANCH  22  23
HETATM   23  C11 UNK     1      31.922  -8.864  29.568  1.00  0.00     0.248 C 
HETATM   24  O1  UNK     1      32.817  -9.463  28.963  1.00  0.00    -0.271 OA
HETATM   25  N1  UNK     1      30.612  -9.325  29.683  1.00  0.00    -0.350 N 
HETATM   26  C2  UNK     1      29.533  -8.650  30.416  1.00  0.00     0.130 C 
HETATM   27  C5  UNK     1      30.228 -10.595  29.062  1.00  0.00     0.126 C 
HETATM   28  C1  UNK     1      28.323  -8.410  29.502  1.00  0.00    -0.001 C 
HETATM   29  C3  UNK     1      27.875  -9.723  28.842  1.00  0.00     0.007 C 
HETATM   30  C12 UNK     1      27.173  -7.776  30.282  1.00  0.00     0.011 C 
HETATM   31  C4  UNK     1      29.041 -10.402  28.124  1.00  0.00     0.020 C 
ENDBRANCH  22  23
ENDBRANCH   1  22
TORSDOF 6
ENDMDL
MODEL 4
REMARK VINA RESULT:      -8.4     32.578     35.750
REMARK  6 active torsions:
REMARK  status: ('A' for Active; 'I' for Inactive)
REMARK    1  A    between atoms: C21_28  and  O3_3 
REMARK    2  A    between atoms: C23_30  and  O3_3 
REMARK       I    between atoms: C11_18  and  N1_5 
REMARK    3  A    between atoms: C10_17  and  N2_6 
REMARK    4  A    between atoms: C13_20  and  N3_7 
REMARK    5  A    between atoms: C10_17  and  C11_18 
REMARK    6  A    between atoms: C13_20  and  C14_21 
ROOT
HETATM    1  N2  UNK     1      30.414 -10.445  33.396  1.00  0.00     0.100 N 
HETATM    2  N3  UNK     1      30.515 -10.072  36.261  1.00  0.00     0.096 N 
HETATM    3  C6  UNK     1      31.100 -11.408  34.266  1.00  0.00     0.303 C 
HETATM    4  C7  UNK     1      29.315  -9.794  34.120  1.00  0.00     0.303 C 
HETATM    5  C8  UNK     1      31.614 -10.724  35.537  1.00  0.00     0.303 C 
HETATM    6  C9  UNK     1      29.827  -9.110  35.391  1.00  0.00     0.303 C 
ENDROOT
BRANCH   2   7
HETATM    7  C13 UNK     1      31.007  -9.418  37.473  1.00  0.00     0.312 C 
BRANCH   7   8
HETATM    8  C14 UNK     1      29.946  -8.624  38.152  1.00  0.00    -0.011 A 
HETATM    9  C15 UNK     1      30.096  -7.168  38.292  1.00  0.00     0.009 A 
HETATM   10  C17 UNK     1      29.085  -6.451  38.932  1.00  0.00     0.090 A 
HETATM   11  C18 UNK     1      31.201  -6.451  37.817  1.00  0.00     0.051 A 
HETATM   12  O2  UNK     1      27.940  -7.099  39.438  1.00  0.00    -0.275 OA
HETATM   13  C20 UNK     1      29.148  -5.067  39.107  1.00  0.00     0.041 A 
HETATM   14  C19 UNK     1      27.771  -8.469  39.319  1.00  0.00     0.288 A 
HETATM   15  C16 UNK     1      28.845  -9.213  38.642  1.00  0.00     0.092 A 
HETATM   16  O4  UNK     1      26.778  -9.042  39.756  1.00  0.00    -0.260 OA
HETATM   17  C22 UNK     1      30.254  -4.373  38.629  1.00  0.00     0.039 A 
HETATM   18  C21 UNK     1      31.279  -5.063  37.984  1.00  0.00     0.069 A 
BRANCH  18  19
HETATM   19  O3  UNK     1      32.362  -4.385  37.514  1.00  0.00    -0.351 OA
BRANCH  19  20
HETATM   20  C23 UNK     1      32.153  -3.523  36.396  1.00  0.00     0.171 C 
HETATM   21  C24 UNK     1      32.573  -4.245  35.133  1.00  0.00     0.034 C 
ENDBRANCH  19  20
ENDBRANCH  18  19
ENDBRANCH   7   8
ENDBRANCH   2   7
BRANCH   1  22
HETATM   22  C10 UNK     1      29.924 -11.099  32.184  1.00  0.00     0.374 C 
BRANCH  22  23
HETATM   23  C11 UNK     1      30.554 -10.511  30.947  1.00  0.00     0.248 C 
HETATM   24  O1  UNK     1      31.655 -10.929  30.575  1.00  0.00    -0.271 OA
HETATM   25  N1  UNK     1      29.835  -9.512  30.293  1.00  0.00    -0.350 N 
HETATM   26  C2  UNK     1      28.514  -9.012  30.695  1.00  0.00     0.130 C 
HETATM   27  C5  UNK     1      30.383  -8.891  29.085  1.00  0.00     0.126 C 
HETATM   28  C1  UNK     1      28.546  -7.489  30.892  1.00  0.00    -0.001 C 
HETATM   29  C3  UNK     1      29.099  -6.795  29.637  1.00  0.00     0.007 C 
HETATM   30  C12 UNK     1      27.157  -6.959  31.237  1.00  0.00     0.011 C 
HETATM   31  C4  UNK     1      30.456  -7.375  29.241  1.00  0.00     0.020 C 
ENDBRANCH  22  23
ENDBRANCH   1  22
TORSDOF 6
ENDMDL
MODEL 5
REMARK VINA RESULT:      -8.4     28.131     30.512
REMARK  6 active torsions:
REMARK  status: ('A' for Active; 'I' for Inactive)
REMARK    1  A    between atoms: C21_28  and  O3_3 
REMARK    2  A    between atoms: C23_30  and  O3_3 
REMARK       I    between atoms: C11_18  and  N1_5 
REMARK    3  A    between atoms: C10_17  and  N2_6 
REMARK    4  A    between atoms: C13_20  and  N3_7 
REMARK    5  A    between atoms: C10_17  and  C11_18 
REMARK    6  A    between atoms: C13_20  and  C14_21 
ROOT
HETATM    1  N2  UNK     1      18.410  -0.667  35.305  1.00  0.00     0.100 N 
HETATM    2  N3  UNK     1      19.260  -3.320  36.078  1.00  0.00     0.096 N 
HETATM    3  C6  UNK     1      19.191  -1.512  34.395  1.00  0.00     0.303 C 
HETATM    4  C7  UNK     1      17.598  -1.496  36.204  1.00  0.00     0.303 C 
HETATM    5  C8  UNK     1      20.072  -2.490  35.179  1.00  0.00     0.303 C 
HETATM    6  C9  UNK     1      18.476  -2.475  36.988  1.00  0.00     0.303 C 
ENDROOT
BRANCH   2   7
HETATM    7  C13 UNK     1      20.101  -4.251  36.828  1.00  0.00     0.312 C 
BRANCH   7   8
HETATM    8  C14 UNK     1      19.593  -5.649  36.758  1.00  0.00    -0.011 A 
HETATM    9  C15 UNK     1      20.266  -6.713  37.515  1.00  0.00     0.009 A 
HETATM   10  C17 UNK     1      19.766  -8.013  37.430  1.00  0.00     0.090 A 
HETATM   11  C18 UNK     1      21.390  -6.501  38.324  1.00  0.00     0.051 A 
HETATM   12  O2  UNK     1      18.639  -8.310  36.638  1.00  0.00    -0.275 OA
HETATM   13  C20 UNK     1      20.347  -9.082  38.116  1.00  0.00     0.041 A 
HETATM   14  C19 UNK     1      17.982  -7.326  35.915  1.00  0.00     0.288 A 
HETATM   15  C16 UNK     1      18.522  -5.961  36.013  1.00  0.00     0.092 A 
HETATM   16  O4  UNK     1      17.001  -7.574  35.223  1.00  0.00    -0.260 OA
HETATM   17  C22 UNK     1      21.462  -8.850  38.914  1.00  0.00     0.039 A 
HETATM   18  C21 UNK     1      21.983  -7.562  39.019  1.00  0.00     0.069 A 
BRANCH  18  19
HETATM   19  O3  UNK     1      23.074  -7.333  39.800  1.00  0.00    -0.351 OA
BRANCH  19  20
HETATM   20  C23 UNK     1      24.257  -6.877  39.146  1.00  0.00     0.171 C 
HETATM   21  C24 UNK     1      25.109  -8.073  38.778  1.00  0.00     0.034 C 
ENDBRANCH  19  20
ENDBRANCH  18  19
ENDBRANCH   7   8
ENDBRANCH   2   7
BRANCH   1  22
HETATM   22  C10 UNK     1      17.570   0.266  34.556  1.00  0.00     0.374 C 
BRANCH  22  23
HETATM   23  C11 UNK     1      17.881   1.698  34.912  1.00  0.00     0.248 C 
HETATM   24  O1  UNK     1      17.677   2.090  36.065  1.00  0.00    -0.271 OA
HETATM   25  N1  UNK     1      18.387   2.500  33.891  1.00  0.00    -0.350 N 
HETATM   26  C2  UNK     1      18.666   2.057  32.518  1.00  0.00     0.130 C 
HETATM   27  C5  UNK     1      18.711   3.903  34.158  1.00  0.00     0.126 C 
HETATM   28  C1  UNK     1      17.925   2.939  31.503  1.00  0.00    -0.001 C 
HETATM   29  C3  UNK     1      18.251   4.422  31.737  1.00  0.00     0.007 C 
HETATM   30  C12 UNK     1      18.272   2.527  30.074  1.00  0.00     0.011 C 
HETATM   31  C4  UNK     1      17.979   4.822  33.186  1.00  0.00     0.020 C 
ENDBRANCH  22  23
ENDBRANCH   1  22
TORSDOF 6
ENDMDL
MODEL 6
REMARK VINA RESULT:      -8.2     34.380     35.787
REMARK  6 active torsions:
REMARK  status: ('A' for Active; 'I' for Inactive)
REMARK    1  A    between atoms: C21_28  and  O3_3 
REMARK    2  A    between atoms: C23_30  and  O3_3 
REMARK       I    between atoms: C11_18  and  N1_5 
REMARK    3  A    between atoms: C10_17  and  N2_6 
REMARK    4  A    between atoms: C13_20  and  N3_7 
REMARK    5  A    between atoms: C10_17  and  C11_18 
REMARK    6  A    between atoms: C13_20  and  C14_21 
ROOT
HETATM    1  N2  UNK     1      25.914  -8.114  38.284  1.00  0.00     0.100 N 
HETATM    2  N3  UNK     1      28.771  -8.505  38.074  1.00  0.00     0.096 N 
HETATM    3  C6  UNK     1      26.569  -8.270  36.980  1.00  0.00     0.303 C 
HETATM    4  C7  UNK     1      26.664  -8.833  39.322  1.00  0.00     0.303 C 
HETATM    5  C8  UNK     1      28.022  -7.787  37.037  1.00  0.00     0.303 C 
HETATM    6  C9  UNK     1      28.117  -8.351  39.380  1.00  0.00     0.303 C 
ENDROOT
BRANCH   2   7
HETATM    7  C13 UNK     1      30.157  -8.042  38.130  1.00  0.00     0.312 C 
BRANCH   7   8
HETATM    8  C14 UNK     1      30.254  -6.556  38.109  1.00  0.00    -0.011 A 
HETATM    9  C15 UNK     1      31.133  -5.892  37.137  1.00  0.00     0.009 A 
HETATM   10  C17 UNK     1      31.202  -4.498  37.141  1.00  0.00     0.090 A 
HETATM   11  C18 UNK     1      31.913  -6.578  36.198  1.00  0.00     0.051 A 
HETATM   12  O2  UNK     1      30.448  -3.734  38.055  1.00  0.00    -0.275 OA
HETATM   13  C20 UNK     1      32.012  -3.789  36.253  1.00  0.00     0.041 A 
HETATM   14  C19 UNK     1      29.609  -4.333  38.981  1.00  0.00     0.288 A 
HETATM   15  C16 UNK     1      29.547  -5.803  38.965  1.00  0.00     0.092 A 
HETATM   16  O4  UNK     1      28.948  -3.677  39.779  1.00  0.00    -0.260 OA
HETATM   17  C22 UNK     1      32.780  -4.488  35.328  1.00  0.00     0.039 A 
HETATM   18  C21 UNK     1      32.731  -5.881  35.299  1.00  0.00     0.069 A 
BRANCH  18  19
HETATM   19  O3  UNK     1      33.480  -6.567  34.395  1.00  0.00    -0.351 OA
BRANCH  19  20
HETATM   20  C23 UNK     1      34.741  -6.003  34.035  1.00  0.00     0.171 C 
HETATM   21  C24 UNK     1      35.819  -6.608  34.909  1.00  0.00     0.034 C 
ENDBRANCH  19  20
ENDBRANCH  18  19
ENDBRANCH   7   8
ENDBRANCH   2   7
BRANCH   1  22
HETATM   22  C10 UNK     1      24.529  -8.575  38.228  1.00  0.00     0.374 C 
BRANCH  22  23
HETATM   23  C11 UNK     1      23.562  -7.460  38.537  1.00  0.00     0.248 C 
HETATM   24  O1  UNK     1      23.991  -6.407  39.019  1.00  0.00    -0.271 OA
HETATM   25  N1  UNK     1      22.219  -7.700  38.252  1.00  0.00    -0.350 N 
HETATM   26  C2  UNK     1      21.682  -8.930  37.654  1.00  0.00     0.130 C 
HETATM   27  C5  UNK     1      21.219  -6.666  38.526  1.00  0.00     0.126 C 
HETATM   28  C1  UNK     1      20.581  -9.528  38.542  1.00  0.00    -0.001 C 
HETATM   29  C3  UNK     1      19.499  -8.479  38.840  1.00  0.00     0.007 C 
HETATM   30  C12 UNK     1      19.971 -10.765  37.886  1.00  0.00     0.011 C 
HETATM   31  C4  UNK     1      20.113  -7.207  39.425  1.00  0.00     0.020 C 
ENDBRANCH  22  23
ENDBRANCH   1  22
TORSDOF 6
ENDMDL
MODEL 7
REMARK VINA RESULT:      -8.2     32.497     35.871
REMARK  6 active torsions:
REMARK  status: ('A' for Active; 'I' for Inactive)
REMARK    1  A    between atoms: C21_28  and  O3_3 
REMARK    2  A    between atoms: C23_30  and  O3_3 
REMARK       I    between atoms: C11_18  and  N1_5 
REMARK    3  A    between atoms: C10_17  and  N2_6 
REMARK    4  A    between atoms: C13_20  and  N3_7 
REMARK    5  A    between atoms: C10_17  and  C11_18 
REMARK    6  A    between atoms: C13_20  and  C14_21 
ROOT
HETATM    1  N2  UNK     1      31.941  -8.829  32.352  1.00  0.00     0.100 N 
HETATM    2  N3  UNK     1      32.281  -8.736  35.221  1.00  0.00     0.096 N 
HETATM    3  C6  UNK     1      31.478  -7.679  33.137  1.00  0.00     0.303 C 
HETATM    4  C7  UNK     1      33.093  -9.464  33.004  1.00  0.00     0.303 C 
HETATM    5  C8  UNK     1      31.129  -8.101  34.569  1.00  0.00     0.303 C 
HETATM    6  C9  UNK     1      32.747  -9.885  34.435  1.00  0.00     0.303 C 
ENDROOT
BRANCH   2   7
HETATM    7  C13 UNK     1      31.947  -9.140  36.586  1.00  0.00     0.312 C 
BRANCH   7   8
HETATM    8  C14 UNK     1      31.442  -8.002  37.402  1.00  0.00    -0.011 A 
HETATM    9  C15 UNK     1      30.052  -8.003  37.880  1.00  0.00     0.009 A 
HETATM   10  C17 UNK     1      29.607  -6.922  38.643  1.00  0.00     0.090 A 
HETATM   11  C18 UNK     1      29.138  -9.030  37.615  1.00  0.00     0.051 A 
HETATM   12  O2  UNK     1      30.465  -5.848  38.955  1.00  0.00    -0.275 OA
HETATM   13  C20 UNK     1      28.303  -6.843  39.136  1.00  0.00     0.041 A 
HETATM   14  C19 UNK     1      31.781  -5.821  38.519  1.00  0.00     0.288 A 
HETATM   15  C16 UNK     1      32.235  -6.967  37.715  1.00  0.00     0.092 A 
HETATM   16  O4  UNK     1      32.535  -4.892  38.786  1.00  0.00    -0.260 OA
HETATM   17  C22 UNK     1      27.411  -7.874  38.861  1.00  0.00     0.039 A 
HETATM   18  C21 UNK     1      27.827  -8.967  38.102  1.00  0.00     0.069 A 
BRANCH  18  19
HETATM   19  O3  UNK     1      26.955  -9.976  37.833  1.00  0.00    -0.351 OA
BRANCH  19  20
HETATM   20  C23 UNK     1      26.533 -10.125  36.478  1.00  0.00     0.171 C 
HETATM   21  C24 UNK     1      25.554 -11.276  36.390  1.00  0.00     0.034 C 
ENDBRANCH  19  20
ENDBRANCH  18  19
ENDBRANCH   7   8
ENDBRANCH   2   7
BRANCH   1  22
HETATM   22  C10 UNK     1      32.273  -8.425  30.987  1.00  0.00     0.374 C 
BRANCH  22  23
HETATM   23  C11 UNK     1      31.909  -9.497  29.990  1.00  0.00     0.248 C 
HETATM   24  O1  UNK     1      32.806 -10.048  29.345  1.00  0.00    -0.271 OA
HETATM   25  N1  UNK     1      30.554  -9.796  29.861  1.00  0.00    -0.350 N 
HETATM   26  C2  UNK     1      29.468  -9.177  30.632  1.00  0.00     0.130 C 
HETATM   27  C5  UNK     1      30.122 -10.824  28.911  1.00  0.00     0.126 C 
HETATM   28  C1  UNK     1      28.412  -8.573  29.694  1.00  0.00    -0.001 C 
HETATM   29  C3  UNK     1      27.917  -9.625  28.690  1.00  0.00     0.007 C 
HETATM   30  C12 UNK     1      27.247  -7.996  30.493  1.00  0.00     0.011 C 
HETATM   31  C4  UNK     1      29.087 -10.263  27.941  1.00  0.00     0.020 C 
ENDBRANCH  22  23
ENDBRANCH   1  22
TORSDOF 6
ENDMDL
MODEL 8
REMARK VINA RESULT:      -8.2     32.381     35.542
REMARK  6 active torsions:
REMARK  status: ('A' for Active; 'I' for Inactive)
REMARK    1  A    between atoms: C21_28  and  O3_3 
REMARK    2  A    between atoms: C23_30  and  O3_3 
REMARK       I    between atoms: C11_18  and  N1_5 
REMARK    3  A    between atoms: C10_17  and  N2_6 
REMARK    4  A    between atoms: C13_20  and  N3_7 
REMARK    5  A    between atoms: C10_17  and  C11_18 
REMARK    6  A    between atoms: C13_20  and  C14_21 
ROOT
HETATM    1  N2  UNK     1      29.798  -9.111  34.449  1.00  0.00     0.100 N 
HETATM    2  N3  UNK     1      28.789  -9.349  37.148  1.00  0.00     0.096 N 
HETATM    3  C6  UNK     1      30.389 -10.057  35.403  1.00  0.00     0.303 C 
HETATM    4  C7  UNK     1      28.379  -8.896  34.754  1.00  0.00     0.303 C 
HETATM    5  C8  UNK     1      30.209  -9.564  36.843  1.00  0.00     0.303 C 
HETATM    6  C9  UNK     1      28.197  -8.404  36.193  1.00  0.00     0.303 C 
ENDROOT
BRANCH   2   7
HETATM    7  C13 UNK     1      28.618  -8.876  38.521  1.00  0.00     0.312 C 
BRANCH   7   8
HETATM    8  C14 UNK     1      28.220  -7.442  38.576  1.00  0.00    -0.011 A 
HETATM    9  C15 UNK     1      29.247  -6.393  38.511  1.00  0.00     0.009 A 
HETATM   10  C17 UNK     1      28.843  -5.058  38.563  1.00  0.00     0.090 A 
HETATM   11  C18 UNK     1      30.618  -6.652  38.397  1.00  0.00     0.051 A 
HETATM   12  O2  UNK     1      27.481  -4.713  38.677  1.00  0.00    -0.275 OA
HETATM   13  C20 UNK     1      29.753  -4.000  38.508  1.00  0.00     0.041 A 
HETATM   14  C19 UNK     1      26.491  -5.681  38.739  1.00  0.00     0.288 A 
HETATM   15  C16 UNK     1      26.932  -7.084  38.682  1.00  0.00     0.092 A 
HETATM   16  O4  UNK     1      25.303  -5.391  38.837  1.00  0.00    -0.260 OA
HETATM   17  C22 UNK     1      31.110  -4.279  38.396  1.00  0.00     0.039 A 
HETATM   18  C21 UNK     1      31.544  -5.603  38.340  1.00  0.00     0.069 A 
BRANCH  18  19
HETATM   19  O3  UNK     1      32.872  -5.877  38.230  1.00  0.00    -0.351 OA
BRANCH  19  20
HETATM   20  C23 UNK     1      33.520  -5.473  37.024  1.00  0.00     0.171 C 
HETATM   21  C24 UNK     1      34.720  -6.365  36.787  1.00  0.00     0.034 C 
ENDBRANCH  19  20
ENDBRANCH  18  19
ENDBRANCH   7   8
ENDBRANCH   2   7
BRANCH   1  22
HETATM   22  C10 UNK     1      29.971  -9.582  33.077  1.00  0.00     0.374 C 
BRANCH  22  23
HETATM   23  C11 UNK     1      30.741  -8.588  32.244  1.00  0.00     0.248 C 
HETATM   24  O1  UNK     1      31.946  -8.428  32.459  1.00  0.00    -0.271 OA
HETATM   25  N1  UNK     1      30.022  -7.903  31.266  1.00  0.00    -0.350 N 
HETATM   26  C2  UNK     1      28.596  -8.090  30.968  1.00  0.00     0.130 C 
HETATM   27  C5  UNK     1      30.700  -6.919  30.418  1.00  0.00     0.126 C 
HETATM   28  C1  UNK     1      27.842  -6.755  31.058  1.00  0.00    -0.001 C 
HETATM   29  C3  UNK     1      28.512  -5.697  30.167  1.00  0.00     0.007 C 
HETATM   30  C12 UNK     1      26.375  -6.936  30.676  1.00  0.00     0.011 C 
HETATM   31  C4  UNK     1      29.999  -5.567  30.492  1.00  0.00     0.020 C 
ENDBRANCH  22  23
ENDBRANCH   1  22
TORSDOF 6
ENDMDL
MODEL 9
REMARK VINA RESULT:      -8.2     32.261     35.556
REMARK  6 active torsions:
REMARK  status: ('A' for Active; 'I' for Inactive)
REMARK    1  A    between atoms: C21_28  and  O3_3 
REMARK    2  A    between atoms: C23_30  and  O3_3 
REMARK       I    between atoms: C11_18  and  N1_5 
REMARK    3  A    between atoms: C10_17  and  N2_6 
REMARK    4  A    between atoms: C13_20  and  N3_7 
REMARK    5  A    between atoms: C10_17  and  C11_18 
REMARK    6  A    between atoms: C13_20  and  C14_21 
ROOT
HETATM    1  N2  UNK     1      33.131  -8.326  36.773  1.00  0.00     0.100 N 
HETATM    2  N3  UNK     1      33.194  -8.633  33.899  1.00  0.00     0.096 N 
HETATM    3  C6  UNK     1      33.831  -7.360  35.918  1.00  0.00     0.303 C 
HETATM    4  C7  UNK     1      32.009  -8.934  36.046  1.00  0.00     0.303 C 
HETATM    5  C8  UNK     1      34.315  -8.026  34.626  1.00  0.00     0.303 C 
HETATM    6  C9  UNK     1      32.492  -9.599  34.753  1.00  0.00     0.303 C 
ENDROOT
BRANCH   2   7
HETATM    7  C13 UNK     1      33.657  -9.270  32.667  1.00  0.00     0.312 C 
BRANCH   7   8
HETATM    8  C14 UNK     1      33.651  -8.331  31.512  1.00  0.00    -0.011 A 
HETATM    9  C15 UNK     1      32.393  -8.038  30.811  1.00  0.00     0.009 A 
HETATM   10  C17 UNK     1      32.419  -7.153  29.733  1.00  0.00     0.090 A 
HETATM   11  C18 UNK     1      31.159  -8.598  31.162  1.00  0.00     0.051 A 
HETATM   12  O2  UNK     1      33.621  -6.546  29.317  1.00  0.00    -0.275 OA
HETATM   13  C20 UNK     1      31.270  -6.821  29.013  1.00  0.00     0.041 A 
HETATM   14  C19 UNK     1      34.822  -6.802  29.960  1.00  0.00     0.288 A 
HETATM   15  C16 UNK     1      34.780  -7.738  31.095  1.00  0.00     0.092 A 
HETATM   16  O4  UNK     1      35.873  -6.279  29.606  1.00  0.00    -0.260 OA
HETATM   17  C22 UNK     1      30.053  -7.388  29.377  1.00  0.00     0.039 A 
HETATM   18  C21 UNK     1      29.997  -8.275  30.451  1.00  0.00     0.069 A 
BRANCH  18  19
HETATM   19  O3  UNK     1      28.807  -8.831  30.809  1.00  0.00    -0.351 OA
BRANCH  19  20
HETATM   20  C23 UNK     1      27.694  -8.589  29.950  1.00  0.00     0.171 C 
HETATM   21  C24 UNK     1      26.835  -7.497  30.551  1.00  0.00     0.034 C 
ENDBRANCH  19  20
ENDBRANCH  18  19
ENDBRANCH   7   8
ENDBRANCH   2   7
BRANCH   1  22
HETATM   22  C10 UNK     1      32.669  -7.691  38.005  1.00  0.00     0.374 C 
BRANCH  22  23
HETATM   23  C11 UNK     1      32.338  -6.235  37.786  1.00  0.00     0.248 C 
HETATM   24  O1  UNK     1      33.258  -5.423  37.650  1.00  0.00    -0.271 OA
HETATM   25  N1  UNK     1      30.986  -5.900  37.753  1.00  0.00    -0.350 N 
HETATM   26  C2  UNK     1      29.870  -6.847  37.886  1.00  0.00     0.130 C 
HETATM   27  C5  UNK     1      30.585  -4.507  37.547  1.00  0.00     0.126 C 
HETATM   28  C1  UNK     1      28.934  -6.426  39.028  1.00  0.00    -0.001 C 
HETATM   29  C3  UNK     1      28.474  -4.972  38.841  1.00  0.00     0.007 C 
HETATM   30  C12 UNK     1      27.735  -7.367  39.119  1.00  0.00     0.011 C 
HETATM   31  C4  UNK     1      29.670  -4.035  38.672  1.00  0.00     0.020 C 
ENDBRANCH  22  23
ENDBRANCH   1  22
TORSDOF 6
ENDMDL
MODEL 10
REMARK VINA RESULT:      -8.2     31.802     34.902
REMARK  6 active torsions:
REMARK  status: ('A' for Active; 'I' for Inactive)
REMARK    1  A    between atoms: C21_28  and  O3_3 
REMARK    2  A    between atoms: C23_30  and  O3_3 
REMARK       I    between atoms: C11_18  and  N1_5 
REMARK    3  A    between atoms: C10_17  and  N2_6 
REMARK    4  A    between atoms: C13_20  and  N3_7 
REMARK    5  A    between atoms: C10_17  and  C11_18 
REMARK    6  A    between atoms: C13_20  and  C14_21 
ROOT
HETATM    1  N2  UNK     1      30.313  -6.802  35.967  1.00  0.00     0.100 N 
HETATM    2  N3  UNK     1      31.929  -7.792  33.784  1.00  0.00     0.096 N 
HETATM    3  C6  UNK     1      30.729  -5.924  34.867  1.00  0.00     0.303 C 
HETATM    4  C7  UNK     1      30.195  -8.189  35.498  1.00  0.00     0.303 C 
HETATM    5  C8  UNK     1      32.047  -6.406  34.252  1.00  0.00     0.303 C 
HETATM    6  C9  UNK     1      31.512  -8.672  34.883  1.00  0.00     0.303 C 
ENDROOT
BRANCH   2   7
HETATM    7  C13 UNK     1      33.189  -8.252  33.200  1.00  0.00     0.312 C 
BRANCH   7   8
HETATM    8  C14 UNK     1      33.354  -7.797  31.792  1.00  0.00    -0.011 A 
HETATM    9  C15 UNK     1      32.263  -7.988  30.826  1.00  0.00     0.009 A 
HETATM   10  C17 UNK     1      32.448  -7.550  29.514  1.00  0.00     0.090 A 
HETATM   11  C18 UNK     1      31.039  -8.589  31.145  1.00  0.00     0.051 A 
HETATM   12  O2  UNK     1      33.651  -6.936  29.113  1.00  0.00    -0.275 OA
HETATM   13  C20 UNK     1      31.463  -7.694  28.534  1.00  0.00     0.041 A 
HETATM   14  C19 UNK     1      34.696  -6.741  30.002  1.00  0.00     0.288 A 
HETATM   15  C16 UNK     1      34.487  -7.208  31.382  1.00  0.00     0.092 A 
HETATM   16  O4  UNK     1      35.747  -6.207  29.664  1.00  0.00    -0.260 OA
HETATM   17  C22 UNK     1      30.254  -8.293  28.870  1.00  0.00     0.039 A 
HETATM   18  C21 UNK     1      30.041  -8.740  30.174  1.00  0.00     0.069 A 
BRANCH  18  19
HETATM   19  O3  UNK     1      28.858  -9.326  30.504  1.00  0.00    -0.351 OA
BRANCH  19  20
HETATM   20  C23 UNK     1      27.669  -8.706  30.017  1.00  0.00     0.171 C 
HETATM   21  C24 UNK     1      27.338  -7.516  30.892  1.00  0.00     0.034 C 
ENDBRANCH  19  20
ENDBRANCH  18  19
ENDBRANCH   7   8
ENDBRANCH   2   7
BRANCH   1  22
HETATM   22  C10 UNK     1      29.056  -6.342  36.552  1.00  0.00     0.374 C 
BRANCH  22  23
HETATM   23  C11 UNK     1      28.946  -6.733  38.004  1.00  0.00     0.248 C 
HETATM   24  O1  UNK     1      29.714  -6.223  38.825  1.00  0.00    -0.271 OA
HETATM   25  N1  UNK     1      27.963  -7.667  38.327  1.00  0.00    -0.350 N 
HETATM   26  C2  UNK     1      27.018  -8.272  37.379  1.00  0.00     0.130 C 
HETATM   27  C5  UNK     1      27.796  -8.100  39.716  1.00  0.00     0.126 C 
HETATM   28  C1  UNK     1      27.100  -9.805  37.434  1.00  0.00    -0.001 C 
HETATM   29  C3  UNK     1      26.912 -10.303  38.876  1.00  0.00     0.007 C 
HETATM   30  C12 UNK     1      26.067 -10.435  36.504  1.00  0.00     0.011 C 
HETATM   31  C4  UNK     1      27.893  -9.618  39.826  1.00  0.00     0.020 C 
ENDBRANCH  22  23
ENDBRANCH   1  22
TORSDOF 6
ENDMDL
