MODEL 1
REMARK VINA RESULT:      -8.7      0.000      0.000
REMARK  2 active torsions:
REMARK  status: ('A' for Active; 'I' for Inactive)
REMARK    1  A    between atoms: C11_18  and  N1_5 
REMARK       I    between atoms: C8_15  and  N1_5 
REMARK    2  A    between atoms: C3_10  and  C8_15 
ROOT
HETATM    1  O1  UNK     1      19.044   1.603  28.726  1.00  0.00    -0.274 OA
HETATM    2  O2  UNK     1      18.279   3.748  28.917  1.00  0.00    -0.259 OA
HETATM    3  C1  UNK     1      19.514   0.313  30.732  1.00  0.00    -0.001 A 
HETATM    4  C2  UNK     1      19.473   0.413  29.345  1.00  0.00     0.089 A 
HETATM    5  C3  UNK     1      18.702   2.586  30.939  1.00  0.00     0.108 A 
HETATM    6  C4  UNK     1      19.107   1.457  31.533  1.00  0.00     0.037 A 
HETATM    7  C5  UNK     1      19.944  -0.885  31.309  1.00  0.00     0.014 A 
HETATM    8  C6  UNK     1      18.649   2.714  29.465  1.00  0.00     0.304 A 
HETATM    9  C7  UNK     1      19.850  -0.646  28.521  1.00  0.00     0.038 A 
HETATM   10  C9  UNK     1      20.325  -1.956  30.495  1.00  0.00     0.001 A 
HETATM   11  C10 UNK     1      20.278  -1.837  29.104  1.00  0.00     0.003 A 
ENDROOT
BRANCH   5  12
HETATM   12  C8  UNK     1      18.311   3.684  31.831  1.00  0.00     0.263 C 
HETATM   13  O3  UNK     1      17.609   3.447  32.813  1.00  0.00    -0.267 OA
HETATM   14  N1  UNK     1      18.827   4.901  31.409  1.00  0.00    -0.300 N 
HETATM   15  H6  UNK     1      19.400   4.935  30.569  1.00  0.00     0.171 HD
BRANCH  14  16
HETATM   16  C11 UNK     1      18.642   6.137  32.035  1.00  0.00     0.193 A 
HETATM   17  S1  UNK     1      17.297   7.083  31.546  1.00  0.00     0.052 SA
HETATM   18  N3  UNK     1      17.660   8.320  32.612  1.00  0.00    -0.193 NA
HETATM   19  C12 UNK     1      18.762   7.934  33.256  1.00  0.00     0.133 A 
HETATM   20  C13 UNK     1      19.355   8.812  34.281  1.00  0.00     0.094 C 
HETATM   21  N2  UNK     1      19.358   6.717  32.974  1.00  0.00    -0.207 NA
ENDBRANCH  14  16
ENDBRANCH   5  12
TORSDOF 2
ENDMDL
MODEL 2
REMARK VINA RESULT:      -8.6      8.364     11.063
REMARK  2 active torsions:
REMARK  status: ('A' for Active; 'I' for Inactive)
REMARK    1  A    between atoms: C11_18  and  N1_5 
REMARK       I    between atoms: C8_15  and  N1_5 
REMARK    2  A    between atoms: C3_10  and  C8_15 
ROOT
HETATM    1  O1  UNK     1      19.563  -0.908  34.713  1.00  0.00    -0.274 OA
HETATM    2  O2  UNK     1      20.680  -2.805  34.102  1.00  0.00    -0.259 OA
HETATM    3  C1  UNK     1      18.491  -0.794  36.892  1.00  0.00    -0.001 A 
HETATM    4  C2  UNK     1      18.806  -0.206  35.670  1.00  0.00     0.089 A 
HETATM    5  C3  UNK     1      19.675  -2.807  36.249  1.00  0.00     0.108 A 
HETATM    6  C4  UNK     1      18.956  -2.145  37.163  1.00  0.00     0.037 A 
HETATM    7  C5  UNK     1      17.739  -0.065  37.817  1.00  0.00     0.014 A 
HETATM    8  C6  UNK     1      20.023  -2.201  34.944  1.00  0.00     0.304 A 
HETATM    9  C7  UNK     1      18.390   1.085  35.349  1.00  0.00     0.038 A 
HETATM   10  C9  UNK     1      17.315   1.231  37.508  1.00  0.00     0.001 A 
HETATM   11  C10 UNK     1      17.640   1.804  36.277  1.00  0.00     0.003 A 
ENDROOT
BRANCH   5  12
HETATM   12  C8  UNK     1      20.098  -4.164  36.614  1.00  0.00     0.263 C 
HETATM   13  O3  UNK     1      20.754  -4.338  37.641  1.00  0.00    -0.267 OA
HETATM   14  N1  UNK     1      19.668  -5.106  35.692  1.00  0.00    -0.300 N 
HETATM   15  H6  UNK     1      19.125  -4.804  34.886  1.00  0.00     0.171 HD
BRANCH  14  16
HETATM   16  C11 UNK     1      19.903  -6.484  35.748  1.00  0.00     0.193 A 
HETATM   17  S1  UNK     1      18.768  -7.450  36.598  1.00  0.00     0.052 SA
HETATM   18  N3  UNK     1      19.602  -8.867  36.288  1.00  0.00    -0.193 NA
HETATM   19  C12 UNK     1      20.669  -8.513  35.572  1.00  0.00     0.133 A 
HETATM   20  C13 UNK     1      21.627  -9.541  35.130  1.00  0.00     0.094 C 
HETATM   21  N2  UNK     1      20.890  -7.188  35.238  1.00  0.00    -0.207 NA
ENDBRANCH  14  16
ENDBRANCH   5  12
TORSDOF 2
ENDMDL
MODEL 3
REMARK VINA RESULT:      -8.5      2.849      7.732
REMARK  2 active torsions:
REMARK  status: ('A' for Active; 'I' for Inactive)
REMARK    1  A    between atoms: C11_18  and  N1_5 
REMARK       I    between atoms: C8_15  and  N1_5 
REMARK    2  A    between atoms: C3_10  and  C8_15 
ROOT
HETATM    1  O1  UNK     1      17.416   5.927  34.256  1.00  0.00    -0.274 OA
HETATM    2  O2  UNK     1      18.665   4.053  33.866  1.00  0.00    -0.259 OA
HETATM    3  C1  UNK     1      16.741   7.330  32.389  1.00  0.00    -0.001 A 
HETATM    4  C2  UNK     1      16.750   7.062  33.755  1.00  0.00     0.089 A 
HETATM    5  C3  UNK     1      18.064   5.344  31.971  1.00  0.00     0.108 A 
HETATM    6  C4  UNK     1      17.431   6.421  31.489  1.00  0.00     0.037 A 
HETATM    7  C5  UNK     1      16.067   8.465  31.930  1.00  0.00     0.014 A 
HETATM    8  C6  UNK     1      18.085   5.038  33.419  1.00  0.00     0.304 A 
HETATM    9  C7  UNK     1      16.108   7.894  34.670  1.00  0.00     0.038 A 
HETATM   10  C9  UNK     1      15.419   9.309  32.837  1.00  0.00     0.001 A 
HETATM   11  C10 UNK     1      15.439   9.023  34.204  1.00  0.00     0.003 A 
ENDROOT
BRANCH   5  12
HETATM   12  C8  UNK     1      18.731   4.487  30.984  1.00  0.00     0.263 C 
HETATM   13  O3  UNK     1      19.587   4.969  30.243  1.00  0.00    -0.267 OA
HETATM   14  N1  UNK     1      18.271   3.180  31.040  1.00  0.00    -0.300 N 
HETATM   15  H6  UNK     1      17.554   2.931  31.717  1.00  0.00     0.171 HD
BRANCH  14  16
HETATM   16  C11 UNK     1      18.701   2.119  30.237  1.00  0.00     0.193 A 
HETATM   17  S1  UNK     1      17.958   1.932  28.702  1.00  0.00     0.052 SA
HETATM   18  N3  UNK     1      18.876   0.586  28.318  1.00  0.00    -0.193 NA
HETATM   19  C12 UNK     1      19.671   0.376  29.367  1.00  0.00     0.133 A 
HETATM   20  C13 UNK     1      20.619  -0.752  29.352  1.00  0.00     0.094 C 
HETATM   21  N2  UNK     1      19.617   1.205  30.474  1.00  0.00    -0.207 NA
ENDBRANCH  14  16
ENDBRANCH   5  12
TORSDOF 2
ENDMDL
MODEL 4
REMARK VINA RESULT:      -8.5      1.641      2.563
REMARK  2 active torsions:
REMARK  status: ('A' for Active; 'I' for Inactive)
REMARK    1  A    between atoms: C11_18  and  N1_5 
REMARK       I    between atoms: C8_15  and  N1_5 
REMARK    2  A    between atoms: C3_10  and  C8_15 
ROOT
HETATM    1  O1  UNK     1      18.713   0.573  32.596  1.00  0.00    -0.274 OA
HETATM    2  O2  UNK     1      17.891   2.506  33.495  1.00  0.00    -0.259 OA
HETATM    3  C1  UNK     1      19.584   0.579  30.327  1.00  0.00    -0.001 A 
HETATM    4  C2  UNK     1      19.297  -0.101  31.506  1.00  0.00     0.089 A 
HETATM    5  C3  UNK     1      18.714   2.632  31.276  1.00  0.00     0.108 A 
HETATM    6  C4  UNK     1      19.270   1.997  30.237  1.00  0.00     0.037 A 
HETATM    7  C5  UNK     1      20.165  -0.123  29.268  1.00  0.00     0.014 A 
HETATM    8  C6  UNK     1      18.402   1.929  32.541  1.00  0.00     0.304 A 
HETATM    9  C7  UNK     1      19.573  -1.459  31.656  1.00  0.00     0.038 A 
HETATM   10  C9  UNK     1      20.447  -1.486  29.404  1.00  0.00     0.001 A 
HETATM   11  C10 UNK     1      20.151  -2.152  30.595  1.00  0.00     0.003 A 
ENDROOT
BRANCH   5  12
HETATM   12  C8  UNK     1      18.435   4.060  31.090  1.00  0.00     0.263 C 
HETATM   13  O3  UNK     1      18.761   4.609  30.038  1.00  0.00    -0.267 OA
HETATM   14  N1  UNK     1      17.804   4.612  32.195  1.00  0.00    -0.300 N 
HETATM   15  H6  UNK     1      17.595   4.022  32.997  1.00  0.00     0.171 HD
BRANCH  14  16
HETATM   16  C11 UNK     1      17.402   5.944  32.337  1.00  0.00     0.193 A 
HETATM   17  S1  UNK     1      18.614   7.106  32.690  1.00  0.00     0.052 SA
HETATM   18  N3  UNK     1      17.522   8.373  32.722  1.00  0.00    -0.193 NA
HETATM   19  C12 UNK     1      16.330   7.833  32.465  1.00  0.00     0.133 A 
HETATM   20  C13 UNK     1      15.134   8.691  32.421  1.00  0.00     0.094 C 
HETATM   21  N2  UNK     1      16.202   6.474  32.241  1.00  0.00    -0.207 NA
ENDBRANCH  14  16
ENDBRANCH   5  12
TORSDOF 2
ENDMDL
MODEL 5
REMARK VINA RESULT:      -8.4      2.760      7.540
REMARK  2 active torsions:
REMARK  status: ('A' for Active; 'I' for Inactive)
REMARK    1  A    between atoms: C11_18  and  N1_5 
REMARK       I    between atoms: C8_15  and  N1_5 
REMARK    2  A    between atoms: C3_10  and  C8_15 
ROOT
HETATM    1  O1  UNK     1      19.354   7.247  32.558  1.00  0.00    -0.274 OA
HETATM    2  O2  UNK     1      20.506   5.534  31.578  1.00  0.00    -0.259 OA
HETATM    3  C1  UNK     1      17.076   6.881  33.322  1.00  0.00    -0.001 A 
HETATM    4  C2  UNK     1      18.173   7.721  33.160  1.00  0.00     0.089 A 
HETATM    5  C3  UNK     1      18.294   5.061  32.285  1.00  0.00     0.108 A 
HETATM    6  C4  UNK     1      17.169   5.505  32.858  1.00  0.00     0.037 A 
HETATM    7  C5  UNK     1      15.922   7.387  33.926  1.00  0.00     0.014 A 
HETATM    8  C6  UNK     1      19.473   5.937  32.104  1.00  0.00     0.304 A 
HETATM    9  C7  UNK     1      18.148   9.049  33.583  1.00  0.00     0.038 A 
HETATM   10  C9  UNK     1      15.883   8.717  34.355  1.00  0.00     0.001 A 
HETATM   11  C10 UNK     1      16.994   9.546  34.184  1.00  0.00     0.003 A 
ENDROOT
BRANCH   5  12
HETATM   12  C8  UNK     1      18.291   3.659  31.849  1.00  0.00     0.263 C 
HETATM   13  O3  UNK     1      17.823   2.796  32.590  1.00  0.00    -0.267 OA
HETATM   14  N1  UNK     1      18.848   3.509  30.588  1.00  0.00    -0.300 N 
HETATM   15  H6  UNK     1      19.193   4.328  30.094  1.00  0.00     0.171 HD
BRANCH  14  16
HETATM   16  C11 UNK     1      18.995   2.306  29.889  1.00  0.00     0.193 A 
HETATM   17  S1  UNK     1      17.932   2.017  28.574  1.00  0.00     0.052 SA
HETATM   18  N3  UNK     1      18.612   0.527  28.231  1.00  0.00    -0.193 NA
HETATM   19  C12 UNK     1      19.585   0.356  29.126  1.00  0.00     0.133 A 
HETATM   20  C13 UNK     1      20.393  -0.876  29.101  1.00  0.00     0.094 C 
HETATM   21  N2  UNK     1      19.846   1.322  30.082  1.00  0.00    -0.207 NA
ENDBRANCH  14  16
ENDBRANCH   5  12
TORSDOF 2
ENDMDL
MODEL 6
REMARK VINA RESULT:      -8.3      9.095     10.622
REMARK  2 active torsions:
REMARK  status: ('A' for Active; 'I' for Inactive)
REMARK    1  A    between atoms: C11_18  and  N1_5 
REMARK       I    between atoms: C8_15  and  N1_5 
REMARK    2  A    between atoms: C3_10  and  C8_15 
ROOT
HETATM    1  O1  UNK     1      20.007  -7.938  35.697  1.00  0.00    -0.274 OA
HETATM    2  O2  UNK     1      20.209  -5.986  34.527  1.00  0.00    -0.259 OA
HETATM    3  C1  UNK     1      19.866  -7.875  38.123  1.00  0.00    -0.001 A 
HETATM    4  C2  UNK     1      19.890  -8.599  36.935  1.00  0.00     0.089 A 
HETATM    5  C3  UNK     1      20.079  -5.802  36.886  1.00  0.00     0.108 A 
HETATM    6  C4  UNK     1      19.966  -6.425  38.066  1.00  0.00     0.037 A 
HETATM    7  C5  UNK     1      19.747  -8.566  39.332  1.00  0.00     0.014 A 
HETATM    8  C6  UNK     1      20.104  -6.552  35.610  1.00  0.00     0.304 A 
HETATM    9  C7  UNK     1      19.799  -9.990  36.922  1.00  0.00     0.038 A 
HETATM   10  C9  UNK     1      19.654  -9.961  39.333  1.00  0.00     0.001 A 
HETATM   11  C10 UNK     1      19.681 -10.671  38.131  1.00  0.00     0.003 A 
ENDROOT
BRANCH   5  12
HETATM   12  C8  UNK     1      20.173  -4.338  36.931  1.00  0.00     0.263 C 
HETATM   13  O3  UNK     1      21.261  -3.808  37.155  1.00  0.00    -0.267 OA
HETATM   14  N1  UNK     1      18.947  -3.734  36.697  1.00  0.00    -0.300 N 
HETATM   15  H6  UNK     1      18.130  -4.314  36.521  1.00  0.00     0.171 HD
BRANCH  14  16
HETATM   16  C11 UNK     1      18.698  -2.358  36.670  1.00  0.00     0.193 A 
HETATM   17  S1  UNK     1      19.222  -1.481  35.292  1.00  0.00     0.052 SA
HETATM   18  N3  UNK     1      18.648  -0.025  35.884  1.00  0.00    -0.193 NA
HETATM   19  C12 UNK     1      18.106  -0.303  37.070  1.00  0.00     0.133 A 
HETATM   20  C13 UNK     1      17.502   0.778  37.868  1.00  0.00     0.094 C 
HETATM   21  N2  UNK     1      18.105  -1.596  37.563  1.00  0.00    -0.207 NA
ENDBRANCH  14  16
ENDBRANCH   5  12
TORSDOF 2
ENDMDL
MODEL 7
REMARK VINA RESULT:      -8.1     14.445     17.410
REMARK  2 active torsions:
REMARK  status: ('A' for Active; 'I' for Inactive)
REMARK    1  A    between atoms: C11_18  and  N1_5 
REMARK       I    between atoms: C8_15  and  N1_5 
REMARK    2  A    between atoms: C3_10  and  C8_15 
ROOT
HETATM    1  O1  UNK     1      19.338   1.218  15.645  1.00  0.00    -0.274 OA
HETATM    2  O2  UNK     1      19.464  -0.314  13.954  1.00  0.00    -0.259 OA
HETATM    3  C1  UNK     1      18.920   0.466  17.919  1.00  0.00    -0.001 A 
HETATM    4  C2  UNK     1      19.151   1.496  17.012  1.00  0.00     0.089 A 
HETATM    5  C3  UNK     1      19.053  -1.162  16.129  1.00  0.00     0.108 A 
HETATM    6  C4  UNK     1      18.875  -0.903  17.430  1.00  0.00     0.037 A 
HETATM    7  C5  UNK     1      18.741   0.782  19.268  1.00  0.00     0.014 A 
HETATM    8  C6  UNK     1      19.301  -0.082  15.148  1.00  0.00     0.304 A 
HETATM    9  C7  UNK     1      19.205   2.829  17.416  1.00  0.00     0.038 A 
HETATM   10  C9  UNK     1      18.793   2.115  19.687  1.00  0.00     0.001 A 
HETATM   11  C10 UNK     1      19.024   3.136  18.763  1.00  0.00     0.003 A 
ENDROOT
BRANCH   5  12
HETATM   12  C8  UNK     1      18.990  -2.574  15.733  1.00  0.00     0.263 C 
HETATM   13  O3  UNK     1      17.906  -3.157  15.739  1.00  0.00    -0.267 OA
HETATM   14  N1  UNK     1      20.238  -3.070  15.388  1.00  0.00    -0.300 N 
HETATM   15  H6  UNK     1      21.048  -2.458  15.432  1.00  0.00     0.171 HD
BRANCH  14  16
HETATM   16  C11 UNK     1      20.520  -4.374  14.967  1.00  0.00     0.193 A 
HETATM   17  S1  UNK     1      21.725  -5.243  15.825  1.00  0.00     0.052 SA
HETATM   18  N3  UNK     1      21.557  -6.605  14.866  1.00  0.00    -0.193 NA
HETATM   19  C12 UNK     1      20.611  -6.308  13.974  1.00  0.00     0.133 A 
HETATM   20  C13 UNK     1      20.218  -7.308  12.966  1.00  0.00     0.094 C 
HETATM   21  N2  UNK     1      19.993  -5.070  13.983  1.00  0.00    -0.207 NA
ENDBRANCH  14  16
ENDBRANCH   5  12
TORSDOF 2
ENDMDL
MODEL 8
REMARK VINA RESULT:      -8.1      8.796     11.070
REMARK  2 active torsions:
REMARK  status: ('A' for Active; 'I' for Inactive)
REMARK    1  A    between atoms: C11_18  and  N1_5 
REMARK       I    between atoms: C8_15  and  N1_5 
REMARK    2  A    between atoms: C3_10  and  C8_15 
ROOT
HETATM    1  O1  UNK     1      19.555  -0.993  34.660  1.00  0.00    -0.274 OA
HETATM    2  O2  UNK     1      20.716  -2.828  33.948  1.00  0.00    -0.259 OA
HETATM    3  C1  UNK     1      18.509  -1.011  36.854  1.00  0.00    -0.001 A 
HETATM    4  C2  UNK     1      18.791  -0.358  35.658  1.00  0.00     0.089 A 
HETATM    5  C3  UNK     1      19.739  -2.958  36.103  1.00  0.00     0.108 A 
HETATM    6  C4  UNK     1      19.014  -2.359  37.056  1.00  0.00     0.037 A 
HETATM    7  C5  UNK     1      17.749  -0.347  37.821  1.00  0.00     0.014 A 
HETATM    8  C6  UNK     1      20.053  -2.282  34.824  1.00  0.00     0.304 A 
HETATM    9  C7  UNK     1      18.335   0.934  35.402  1.00  0.00     0.038 A 
HETATM   10  C9  UNK     1      17.285   0.949  37.578  1.00  0.00     0.001 A 
HETATM   11  C10 UNK     1      17.578   1.588  36.371  1.00  0.00     0.003 A 
ENDROOT
BRANCH   5  12
HETATM   12  C8  UNK     1      20.205  -4.318  36.400  1.00  0.00     0.263 C 
HETATM   13  O3  UNK     1      20.024  -5.213  35.575  1.00  0.00    -0.267 OA
HETATM   14  N1  UNK     1      20.819  -4.395  37.641  1.00  0.00    -0.300 N 
HETATM   15  H6  UNK     1      20.896  -3.557  38.213  1.00  0.00     0.171 HD
BRANCH  14  16
HETATM   16  C11 UNK     1      21.369  -5.543  38.219  1.00  0.00     0.193 A 
HETATM   17  S1  UNK     1      20.312  -6.587  39.077  1.00  0.00     0.052 SA
HETATM   18  N3  UNK     1      21.536  -7.659  39.467  1.00  0.00    -0.193 NA
HETATM   19  C12 UNK     1      22.646  -7.158  38.926  1.00  0.00     0.133 A 
HETATM   20  C13 UNK     1      23.924  -7.871  39.087  1.00  0.00     0.094 C 
HETATM   21  N2  UNK     1      22.613  -5.972  38.213  1.00  0.00    -0.207 NA
ENDBRANCH  14  16
ENDBRANCH   5  12
TORSDOF 2
ENDMDL
MODEL 9
REMARK VINA RESULT:      -8.0     13.847     15.951
REMARK  2 active torsions:
REMARK  status: ('A' for Active; 'I' for Inactive)
REMARK    1  A    between atoms: C11_18  and  N1_5 
REMARK       I    between atoms: C8_15  and  N1_5 
REMARK    2  A    between atoms: C3_10  and  C8_15 
ROOT
HETATM    1  O1  UNK     1      19.378  -1.998  13.209  1.00  0.00    -0.274 OA
HETATM    2  O2  UNK     1      19.491   0.010  14.294  1.00  0.00    -0.259 OA
HETATM    3  C1  UNK     1      18.462  -3.935  14.357  1.00  0.00    -0.001 A 
HETATM    4  C2  UNK     1      19.027  -3.361  13.222  1.00  0.00     0.089 A 
HETATM    5  C3  UNK     1      18.579  -1.808  15.512  1.00  0.00     0.108 A 
HETATM    6  C4  UNK     1      18.242  -3.103  15.530  1.00  0.00     0.037 A 
HETATM    7  C5  UNK     1      18.126  -5.290  14.332  1.00  0.00     0.014 A 
HETATM    8  C6  UNK     1      19.179  -1.177  14.315  1.00  0.00     0.304 A 
HETATM    9  C7  UNK     1      19.265  -4.104  12.066  1.00  0.00     0.038 A 
HETATM   10  C9  UNK     1      18.359  -6.047  13.179  1.00  0.00     0.001 A 
HETATM   11  C10 UNK     1      18.927  -5.455  12.050  1.00  0.00     0.003 A 
ENDROOT
BRANCH   5  12
HETATM   12  C8  UNK     1      18.318  -1.051  16.742  1.00  0.00     0.263 C 
HETATM   13  O3  UNK     1      17.326  -1.320  17.419  1.00  0.00    -0.267 OA
HETATM   14  N1  UNK     1      19.289  -0.089  16.973  1.00  0.00    -0.300 N 
HETATM   15  H6  UNK     1      20.059   0.011  16.316  1.00  0.00     0.171 HD
BRANCH  14  16
HETATM   16  C11 UNK     1      19.333   0.795  18.056  1.00  0.00     0.193 A 
HETATM   17  S1  UNK     1      19.153   2.469  17.722  1.00  0.00     0.052 SA
HETATM   18  N3  UNK     1      19.296   2.900  19.333  1.00  0.00    -0.193 NA
HETATM   19  C12 UNK     1      19.467   1.760  20.002  1.00  0.00     0.133 A 
HETATM   20  C13 UNK     1      19.628   1.788  21.466  1.00  0.00     0.094 C 
HETATM   21  N2  UNK     1      19.497   0.546  19.337  1.00  0.00    -0.207 NA
ENDBRANCH  14  16
ENDBRANCH   5  12
TORSDOF 2
ENDMDL
MODEL 10
REMARK VINA RESULT:      -7.9      2.498      7.536
REMARK  2 active torsions:
REMARK  status: ('A' for Active; 'I' for Inactive)
REMARK    1  A    between atoms: C11_18  and  N1_5 
REMARK       I    between atoms: C8_15  and  N1_5 
REMARK    2  A    between atoms: C3_10  and  C8_15 
ROOT
HETATM    1  O1  UNK     1      16.881   7.611  32.788  1.00  0.00    -0.274 OA
HETATM    2  O2  UNK     1      15.834   5.781  31.907  1.00  0.00    -0.259 OA
HETATM    3  C1  UNK     1      19.198   7.441  33.505  1.00  0.00    -0.001 A 
HETATM    4  C2  UNK     1      18.037   8.193  33.342  1.00  0.00     0.089 A 
HETATM    5  C3  UNK     1      18.092   5.498  32.570  1.00  0.00     0.108 A 
HETATM    6  C4  UNK     1      19.195   6.046  33.095  1.00  0.00     0.037 A 
HETATM    7  C5  UNK     1      20.326   8.054  34.056  1.00  0.00     0.014 A 
HETATM    8  C6  UNK     1      16.848   6.279  32.386  1.00  0.00     0.304 A 
HETATM    9  C7  UNK     1      17.974   9.534  33.715  1.00  0.00     0.038 A 
HETATM   10  C9  UNK     1      20.276   9.399  34.435  1.00  0.00     0.001 A 
HETATM   11  C10 UNK     1      19.103  10.137  34.265  1.00  0.00     0.003 A 
ENDROOT
BRANCH   5  12
HETATM   12  C8  UNK     1      18.188   4.085  32.187  1.00  0.00     0.263 C 
HETATM   13  O3  UNK     1      17.912   3.214  33.012  1.00  0.00    -0.267 OA
HETATM   14  N1  UNK     1      18.598   3.932  30.871  1.00  0.00    -0.300 N 
HETATM   15  H6  UNK     1      18.787   4.758  30.308  1.00  0.00     0.171 HD
BRANCH  14  16
HETATM   16  C11 UNK     1      18.786   2.719  30.201  1.00  0.00     0.193 A 
HETATM   17  S1  UNK     1      17.922   2.476  28.739  1.00  0.00     0.052 SA
HETATM   18  N3  UNK     1      18.568   0.951  28.502  1.00  0.00    -0.193 NA
HETATM   19  C12 UNK     1      19.384   0.736  29.534  1.00  0.00     0.133 A 
HETATM   20  C13 UNK     1      20.121  -0.536  29.631  1.00  0.00     0.094 C 
HETATM   21  N2  UNK     1      19.546   1.694  30.520  1.00  0.00    -0.207 NA
ENDBRANCH  14  16
ENDBRANCH   5  12
TORSDOF 2
ENDMDL
