MODEL 1
REMARK VINA RESULT:      -8.4      0.000      0.000
REMARK  6 active torsions:
REMARK  status: ('A' for Active; 'I' for Inactive)
REMARK    1  A    between atoms: C1_7  and  O1_4 
REMARK    2  A    between atoms: C4_10  and  O1_4 
REMARK    3  A    between atoms: C3_9  and  O2_5 
REMARK    4  A    between atoms: C2_8  and  C9_15 
REMARK    5  A    between atoms: C4_10  and  C6_12 
REMARK    6  A    between atoms: C10_16  and  C11_17 
ROOT
HETATM    1  N1  UNK     1      18.131   3.067  34.307  1.00  0.00    -0.191 NA
HETATM    2  C9  UNK     1      18.046   4.884  31.377  1.00  0.00     0.036 C 
HETATM    3  C10 UNK     1      18.271   3.600  31.765  1.00  0.00     0.055 C 
HETATM    4  C23 UNK     1      18.191   3.314  33.174  1.00  0.00     0.100 C 
ENDROOT
BRANCH   3   5
HETATM    5  C11 UNK     1      18.575   2.517  30.844  1.00  0.00    -0.015 A 
HETATM    6  C16 UNK     1      19.371   1.450  31.260  1.00  0.00     0.014 A 
HETATM    7  C19 UNK     1      19.663   0.412  30.376  1.00  0.00     0.024 A 
HETATM    8  C21 UNK     1      19.160   0.441  29.075  1.00  0.00     0.034 A 
HETATM    9  C20 UNK     1      18.365   1.508  28.659  1.00  0.00     0.024 A 
HETATM   10 Cl1  UNK     1      19.522  -0.841  27.984  1.00  0.00    -0.084 Cl
HETATM   11  C17 UNK     1      18.072   2.546  29.543  1.00  0.00     0.014 A 
ENDBRANCH   3   5
BRANCH   2  12
HETATM   12  C2  UNK     1      17.729   6.007  32.270  1.00  0.00    -0.015 A 
HETATM   13  C5  UNK     1      16.384   6.287  32.483  1.00  0.00     0.052 A 
HETATM   14  C3  UNK     1      16.026   7.342  33.322  1.00  0.00     0.102 A 
HETATM   15  C1  UNK     1      17.014   8.108  33.941  1.00  0.00     0.103 A 
HETATM   16  C7  UNK     1      18.361   7.818  33.722  1.00  0.00     0.059 A 
HETATM   17  C8  UNK     1      18.719   6.764  32.883  1.00  0.00     0.024 A 
HETATM   18 Br1  UNK     1      20.571   6.423  32.627  1.00  0.00    -0.050 Br
BRANCH  14  19
HETATM   19  O2  UNK     1      14.708   7.615  33.528  1.00  0.00    -0.353 OA
HETATM   20  C22 UNK     1      13.815   7.364  32.444  1.00  0.00     0.210 C 
ENDBRANCH  14  19
BRANCH  15  21
HETATM   21  O1  UNK     1      16.676   9.140  34.764  1.00  0.00    -0.344 OA
BRANCH  21  22
HETATM   22  C4  UNK     1      16.764  10.456  34.221  1.00  0.00     0.214 C 
BRANCH  22  23
HETATM   23  C6  UNK     1      15.406  11.094  34.262  1.00  0.00    -0.034 A 
HETATM   24  C12 UNK     1      14.571  11.005  33.154  1.00  0.00     0.011 A 
HETATM   25  C14 UNK     1      13.310  11.600  33.191  1.00  0.00     0.019 A 
HETATM   26  C18 UNK     1      12.892  12.279  34.336  1.00  0.00     0.011 A 
HETATM   27 Br2  UNK     1      11.183  13.085  34.386  1.00  0.00    -0.051 Br
HETATM   28  C15 UNK     1      13.735  12.364  35.444  1.00  0.00     0.019 A 
HETATM   29  C13 UNK     1      14.997  11.769  35.406  1.00  0.00     0.011 A 
ENDBRANCH  22  23
ENDBRANCH  21  22
ENDBRANCH  15  21
ENDBRANCH   2  12
TORSDOF 6
ENDMDL
MODEL 2
REMARK VINA RESULT:      -8.4      6.260      8.295
REMARK  6 active torsions:
REMARK  status: ('A' for Active; 'I' for Inactive)
REMARK    1  A    between atoms: C1_7  and  O1_4 
REMARK    2  A    between atoms: C4_10  and  O1_4 
REMARK    3  A    between atoms: C3_9  and  O2_5 
REMARK    4  A    between atoms: C2_8  and  C9_15 
REMARK    5  A    between atoms: C4_10  and  C6_12 
REMARK    6  A    between atoms: C10_16  and  C11_17 
ROOT
HETATM    1  N1  UNK     1      21.883  -1.724  35.371  1.00  0.00    -0.191 NA
HETATM    2  C9  UNK     1      18.519  -2.219  35.950  1.00  0.00     0.036 C 
HETATM    3  C10 UNK     1      19.691  -2.874  36.169  1.00  0.00     0.055 C 
HETATM    4  C23 UNK     1      20.899  -2.230  35.724  1.00  0.00     0.100 C 
ENDROOT
BRANCH   3   5
HETATM    5  C11 UNK     1      19.784  -4.168  36.825  1.00  0.00    -0.015 A 
HETATM    6  C16 UNK     1      18.807  -5.137  36.599  1.00  0.00     0.014 A 
HETATM    7  C19 UNK     1      18.897  -6.378  37.229  1.00  0.00     0.024 A 
HETATM    8  C21 UNK     1      19.964  -6.650  38.086  1.00  0.00     0.034 A 
HETATM    9  C20 UNK     1      20.941  -5.681  38.312  1.00  0.00     0.024 A 
HETATM   10 Cl1  UNK     1      20.073  -8.182  38.864  1.00  0.00    -0.084 Cl
HETATM   11  C17 UNK     1      20.851  -4.440  37.682  1.00  0.00     0.014 A 
ENDBRANCH   3   5
BRANCH   2  12
HETATM   12  C2  UNK     1      18.378  -0.909  35.297  1.00  0.00    -0.015 A 
HETATM   13  C5  UNK     1      18.587  -0.861  33.923  1.00  0.00     0.052 A 
HETATM   14  C3  UNK     1      18.466   0.355  33.252  1.00  0.00     0.102 A 
HETATM   15  C1  UNK     1      18.138   1.513  33.957  1.00  0.00     0.103 A 
HETATM   16  C7  UNK     1      17.930   1.454  35.336  1.00  0.00     0.059 A 
HETATM   17  C8  UNK     1      18.051   0.238  36.007  1.00  0.00     0.024 A 
HETATM   18 Br1  UNK     1      17.755   0.228  37.885  1.00  0.00    -0.050 Br
BRANCH  14  19
HETATM   19  O2  UNK     1      18.671   0.400  31.905  1.00  0.00    -0.353 OA
HETATM   20  C22 UNK     1      19.615  -0.522  31.362  1.00  0.00     0.210 C 
ENDBRANCH  14  19
BRANCH  15  21
HETATM   21  O1  UNK     1      18.016   2.706  33.312  1.00  0.00    -0.344 OA
BRANCH  21  22
HETATM   22  C4  UNK     1      18.670   3.829  33.898  1.00  0.00     0.214 C 
BRANCH  22  23
HETATM   23  C6  UNK     1      17.903   5.074  33.561  1.00  0.00    -0.034 A 
HETATM   24  C12 UNK     1      17.587   5.981  34.567  1.00  0.00     0.011 A 
HETATM   25  C14 UNK     1      16.873   7.137  34.254  1.00  0.00     0.019 A 
HETATM   26  C18 UNK     1      16.481   7.381  32.938  1.00  0.00     0.011 A 
HETATM   27 Br2  UNK     1      15.512   8.948  32.515  1.00  0.00    -0.051 Br
HETATM   28  C15 UNK     1      16.801   6.467  31.934  1.00  0.00     0.019 A 
HETATM   29  C13 UNK     1      17.515   5.310  32.247  1.00  0.00     0.011 A 
ENDBRANCH  22  23
ENDBRANCH  21  22
ENDBRANCH  15  21
ENDBRANCH   2  12
TORSDOF 6
ENDMDL
MODEL 3
REMARK VINA RESULT:      -8.3      4.477     10.403
REMARK  6 active torsions:
REMARK  status: ('A' for Active; 'I' for Inactive)
REMARK    1  A    between atoms: C1_7  and  O1_4 
REMARK    2  A    between atoms: C4_10  and  O1_4 
REMARK    3  A    between atoms: C3_9  and  O2_5 
REMARK    4  A    between atoms: C2_8  and  C9_15 
REMARK    5  A    between atoms: C4_10  and  C6_12 
REMARK    6  A    between atoms: C10_16  and  C11_17 
ROOT
HETATM    1  N1  UNK     1      15.194   6.640  31.989  1.00  0.00    -0.191 NA
HETATM    2  C9  UNK     1      18.508   6.624  32.940  1.00  0.00     0.036 C 
HETATM    3  C10 UNK     1      17.464   7.495  32.927  1.00  0.00     0.055 C 
HETATM    4  C23 UNK     1      16.211   7.013  32.406  1.00  0.00     0.100 C 
ENDROOT
BRANCH   3   5
HETATM    5  C11 UNK     1      17.545   8.864  33.410  1.00  0.00    -0.015 A 
HETATM    6  C16 UNK     1      16.381   9.613  33.584  1.00  0.00     0.014 A 
HETATM    7  C19 UNK     1      16.460  10.926  34.047  1.00  0.00     0.024 A 
HETATM    8  C21 UNK     1      17.702  11.491  34.336  1.00  0.00     0.034 A 
HETATM    9  C20 UNK     1      18.866  10.742  34.161  1.00  0.00     0.024 A 
HETATM   10 Cl1  UNK     1      17.798  13.112  34.907  1.00  0.00    -0.084 Cl
HETATM   11  C17 UNK     1      18.787   9.429  33.698  1.00  0.00     0.014 A 
ENDBRANCH   3   5
BRANCH   2  12
HETATM   12  C2  UNK     1      18.470   5.232  32.469  1.00  0.00    -0.015 A 
HETATM   13  C5  UNK     1      18.105   4.261  33.393  1.00  0.00     0.052 A 
HETATM   14  C3  UNK     1      18.052   2.924  33.001  1.00  0.00     0.102 A 
HETATM   15  C1  UNK     1      18.365   2.568  31.688  1.00  0.00     0.103 A 
HETATM   16  C7  UNK     1      18.730   3.551  30.768  1.00  0.00     0.059 A 
HETATM   17  C8  UNK     1      18.783   4.888  31.160  1.00  0.00     0.024 A 
HETATM   18 Br1  UNK     1      19.287   6.176  29.857  1.00  0.00    -0.050 Br
BRANCH  14  19
HETATM   19  O2  UNK     1      17.695   1.972  33.908  1.00  0.00    -0.353 OA
HETATM   20  C22 UNK     1      18.419   1.944  35.137  1.00  0.00     0.210 C 
ENDBRANCH  14  19
BRANCH  15  21
HETATM   21  O1  UNK     1      18.315   1.266  31.293  1.00  0.00    -0.344 OA
BRANCH  21  22
HETATM   22  C4  UNK     1      19.191   0.876  30.237  1.00  0.00     0.214 C 
BRANCH  22  23
HETATM   23  C6  UNK     1      19.799  -0.455  30.571  1.00  0.00    -0.034 A 
HETATM   24  C12 UNK     1      20.358  -1.229  29.559  1.00  0.00     0.011 A 
HETATM   25  C14 UNK     1      20.923  -2.466  29.869  1.00  0.00     0.019 A 
HETATM   26  C18 UNK     1      20.926  -2.921  31.188  1.00  0.00     0.011 A 
HETATM   27 Br2  UNK     1      21.691  -4.598  31.606  1.00  0.00    -0.051 Br
HETATM   28  C15 UNK     1      20.364  -2.139  32.197  1.00  0.00     0.019 A 
HETATM   29  C13 UNK     1      19.799  -0.902  31.887  1.00  0.00     0.011 A 
ENDBRANCH  22  23
ENDBRANCH  21  22
ENDBRANCH  15  21
ENDBRANCH   2  12
TORSDOF 6
ENDMDL
MODEL 4
REMARK VINA RESULT:      -8.2      1.664      1.926
REMARK  6 active torsions:
REMARK  status: ('A' for Active; 'I' for Inactive)
REMARK    1  A    between atoms: C1_7  and  O1_4 
REMARK    2  A    between atoms: C4_10  and  O1_4 
REMARK    3  A    between atoms: C3_9  and  O2_5 
REMARK    4  A    between atoms: C2_8  and  C9_15 
REMARK    5  A    between atoms: C4_10  and  C6_12 
REMARK    6  A    between atoms: C10_16  and  C11_17 
ROOT
HETATM    1  N1  UNK     1      18.112   3.436  34.019  1.00  0.00    -0.191 NA
HETATM    2  C9  UNK     1      18.506   5.198  31.080  1.00  0.00     0.036 C 
HETATM    3  C10 UNK     1      18.465   3.900  31.484  1.00  0.00     0.055 C 
HETATM    4  C23 UNK     1      18.269   3.653  32.889  1.00  0.00     0.100 C 
ENDROOT
BRANCH   3   5
HETATM    5  C11 UNK     1      18.600   2.767  30.583  1.00  0.00    -0.015 A 
HETATM    6  C16 UNK     1      19.296   1.629  30.992  1.00  0.00     0.014 A 
HETATM    7  C19 UNK     1      19.426   0.543  30.126  1.00  0.00     0.024 A 
HETATM    8  C21 UNK     1      18.860   0.594  28.853  1.00  0.00     0.034 A 
HETATM    9  C20 UNK     1      18.165   1.732  28.444  1.00  0.00     0.024 A 
HETATM   10 Cl1  UNK     1      19.021  -0.746  27.785  1.00  0.00    -0.084 Cl
HETATM   11  C17 UNK     1      18.035   2.818  29.309  1.00  0.00     0.014 A 
ENDBRANCH   3   5
BRANCH   2  12
HETATM   12  C2  UNK     1      18.368   6.372  31.954  1.00  0.00    -0.015 A 
HETATM   13  C5  UNK     1      17.102   6.935  32.061  1.00  0.00     0.052 A 
HETATM   14  C3  UNK     1      16.913   8.051  32.876  1.00  0.00     0.102 A 
HETATM   15  C1  UNK     1      17.990   8.595  33.576  1.00  0.00     0.103 A 
HETATM   16  C7  UNK     1      19.257   8.022  33.462  1.00  0.00     0.059 A 
HETATM   17  C8  UNK     1      19.446   6.907  32.647  1.00  0.00     0.024 A 
HETATM   18 Br1  UNK     1      21.197   6.176  32.535  1.00  0.00    -0.050 Br
BRANCH  14  19
HETATM   19  O2  UNK     1      15.671   8.602  32.981  1.00  0.00    -0.353 OA
HETATM   20  C22 UNK     1      14.705   7.884  33.747  1.00  0.00     0.210 C 
ENDBRANCH  14  19
BRANCH  15  21
HETATM   21  O1  UNK     1      17.817   9.684  34.376  1.00  0.00    -0.344 OA
BRANCH  21  22
HETATM   22  C4  UNK     1      18.581  10.846  34.062  1.00  0.00     0.214 C 
BRANCH  22  23
HETATM   23  C6  UNK     1      17.670  12.038  34.028  1.00  0.00    -0.034 A 
HETATM   24  C12 UNK     1      16.318  11.879  34.316  1.00  0.00     0.011 A 
HETATM   25  C14 UNK     1      15.471  12.986  34.284  1.00  0.00     0.019 A 
HETATM   26  C18 UNK     1      15.980  14.245  33.965  1.00  0.00     0.011 A 
HETATM   27 Br2  UNK     1      14.830  15.745  33.920  1.00  0.00    -0.051 Br
HETATM   28  C15 UNK     1      17.336  14.398  33.677  1.00  0.00     0.019 A 
HETATM   29  C13 UNK     1      18.184  13.290  33.709  1.00  0.00     0.011 A 
ENDBRANCH  22  23
ENDBRANCH  21  22
ENDBRANCH  15  21
ENDBRANCH   2  12
TORSDOF 6
ENDMDL
MODEL 5
REMARK VINA RESULT:      -8.0     18.789     21.062
REMARK  6 active torsions:
REMARK  status: ('A' for Active; 'I' for Inactive)
REMARK    1  A    between atoms: C1_7  and  O1_4 
REMARK    2  A    between atoms: C4_10  and  O1_4 
REMARK    3  A    between atoms: C3_9  and  O2_5 
REMARK    4  A    between atoms: C2_8  and  C9_15 
REMARK    5  A    between atoms: C4_10  and  C6_12 
REMARK    6  A    between atoms: C10_16  and  C11_17 
ROOT
HETATM    1  N1  UNK     1      27.514 -10.484  39.634  1.00  0.00    -0.191 NA
HETATM    2  C9  UNK     1      27.468  -8.639  36.721  1.00  0.00     0.036 C 
HETATM    3  C10 UNK     1      26.680  -9.547  37.357  1.00  0.00     0.055 C 
HETATM    4  C23 UNK     1      27.150 -10.060  38.617  1.00  0.00     0.100 C 
ENDROOT
BRANCH   3   5
HETATM    5  C11 UNK     1      25.403 -10.013  36.839  1.00  0.00    -0.015 A 
HETATM    6  C16 UNK     1      25.305 -11.278  36.260  1.00  0.00     0.014 A 
HETATM    7  C19 UNK     1      24.080 -11.725  35.764  1.00  0.00     0.024 A 
HETATM    8  C21 UNK     1      22.954 -10.906  35.846  1.00  0.00     0.034 A 
HETATM    9  C20 UNK     1      23.052  -9.641  36.425  1.00  0.00     0.024 A 
HETATM   10 Cl1  UNK     1      21.443 -11.458  35.232  1.00  0.00    -0.084 Cl
HETATM   11  C17 UNK     1      24.276  -9.195  36.921  1.00  0.00     0.014 A 
ENDBRANCH   3   5
BRANCH   2  12
HETATM   12  C2  UNK     1      28.760  -8.136  37.209  1.00  0.00    -0.015 A 
HETATM   13  C5  UNK     1      29.899  -8.824  36.807  1.00  0.00     0.052 A 
HETATM   14  C3  UNK     1      31.152  -8.390  37.239  1.00  0.00     0.102 A 
HETATM   15  C1  UNK     1      31.257  -7.274  38.069  1.00  0.00     0.103 A 
HETATM   16  C7  UNK     1      30.107  -6.590  38.466  1.00  0.00     0.059 A 
HETATM   17  C8  UNK     1      28.855  -7.023  38.034  1.00  0.00     0.024 A 
HETATM   18 Br1  UNK     1      27.330  -6.047  38.612  1.00  0.00    -0.050 Br
BRANCH  14  19
HETATM   19  O2  UNK     1      32.267  -9.066  36.845  1.00  0.00    -0.353 OA
HETATM   20  C22 UNK     1      32.494  -9.181  35.441  1.00  0.00     0.210 C 
ENDBRANCH  14  19
BRANCH  15  21
HETATM   21  O1  UNK     1      32.475  -6.840  38.496  1.00  0.00    -0.344 OA
BRANCH  21  22
HETATM   22  C4  UNK     1      32.925  -5.580  38.003  1.00  0.00     0.214 C 
BRANCH  22  23
HETATM   23  C6  UNK     1      33.617  -5.788  36.688  1.00  0.00    -0.034 A 
HETATM   24  C12 UNK     1      33.057  -5.267  35.526  1.00  0.00     0.011 A 
HETATM   25  C14 UNK     1      33.700  -5.461  34.304  1.00  0.00     0.019 A 
HETATM   26  C18 UNK     1      34.900  -6.173  34.251  1.00  0.00     0.011 A 
HETATM   27 Br2  UNK     1      35.770  -6.435  32.594  1.00  0.00    -0.051 Br
HETATM   28  C15 UNK     1      35.456  -6.691  35.420  1.00  0.00     0.019 A 
HETATM   29  C13 UNK     1      34.811  -6.498  36.643  1.00  0.00     0.011 A 
ENDBRANCH  22  23
ENDBRANCH  21  22
ENDBRANCH  15  21
ENDBRANCH   2  12
TORSDOF 6
ENDMDL
MODEL 6
REMARK VINA RESULT:      -7.9      7.344     12.429
REMARK  6 active torsions:
REMARK  status: ('A' for Active; 'I' for Inactive)
REMARK    1  A    between atoms: C1_7  and  O1_4 
REMARK    2  A    between atoms: C4_10  and  O1_4 
REMARK    3  A    between atoms: C3_9  and  O2_5 
REMARK    4  A    between atoms: C2_8  and  C9_15 
REMARK    5  A    between atoms: C4_10  and  C6_12 
REMARK    6  A    between atoms: C10_16  and  C11_17 
ROOT
HETATM    1  N1  UNK     1      20.098   2.647  36.459  1.00  0.00    -0.191 NA
HETATM    2  C9  UNK     1      17.940   1.275  34.146  1.00  0.00     0.036 C 
HETATM    3  C10 UNK     1      18.481   2.490  34.428  1.00  0.00     0.055 C 
HETATM    4  C23 UNK     1      19.375   2.567  35.554  1.00  0.00     0.100 C 
ENDROOT
BRANCH   3   5
HETATM    5  C11 UNK     1      18.212   3.694  33.659  1.00  0.00    -0.015 A 
HETATM    6  C16 UNK     1      18.119   3.628  32.269  1.00  0.00     0.014 A 
HETATM    7  C19 UNK     1      17.862   4.784  31.532  1.00  0.00     0.024 A 
HETATM    8  C21 UNK     1      17.698   6.005  32.184  1.00  0.00     0.034 A 
HETATM    9  C20 UNK     1      17.791   6.072  33.574  1.00  0.00     0.024 A 
HETATM   10 Cl1  UNK     1      17.381   7.432  31.274  1.00  0.00    -0.084 Cl
HETATM   11  C17 UNK     1      18.048   4.916  34.312  1.00  0.00     0.014 A 
ENDBRANCH   3   5
BRANCH   2  12
HETATM   12  C2  UNK     1      18.188   0.032  34.891  1.00  0.00    -0.015 A 
HETATM   13  C5  UNK     1      19.121  -0.850  34.358  1.00  0.00     0.052 A 
HETATM   14  C3  UNK     1      19.396  -2.045  35.023  1.00  0.00     0.102 A 
HETATM   15  C1  UNK     1      18.736  -2.349  36.214  1.00  0.00     0.103 A 
HETATM   16  C7  UNK     1      17.801  -1.457  36.741  1.00  0.00     0.059 A 
HETATM   17  C8  UNK     1      17.527  -0.262  36.076  1.00  0.00     0.024 A 
HETATM   18 Br1  UNK     1      16.243   0.908  36.847  1.00  0.00    -0.050 Br
BRANCH  14  19
HETATM   19  O2  UNK     1      20.310  -2.908  34.499  1.00  0.00    -0.353 OA
HETATM   20  C22 UNK     1      20.777  -2.635  33.179  1.00  0.00     0.210 C 
ENDBRANCH  14  19
BRANCH  15  21
HETATM   21  O1  UNK     1      18.997  -3.512  36.873  1.00  0.00    -0.344 OA
BRANCH  21  22
HETATM   22  C4  UNK     1      20.297  -3.657  37.441  1.00  0.00     0.214 C 
BRANCH  22  23
HETATM   23  C6  UNK     1      20.744  -5.081  37.284  1.00  0.00    -0.034 A 
HETATM   24  C12 UNK     1      20.228  -5.854  36.249  1.00  0.00     0.011 A 
HETATM   25  C14 UNK     1      20.643  -7.178  36.104  1.00  0.00     0.019 A 
HETATM   26  C18 UNK     1      21.571  -7.720  36.994  1.00  0.00     0.011 A 
HETATM   27 Br2  UNK     1      22.131  -9.514  36.797  1.00  0.00    -0.051 Br
HETATM   28  C15 UNK     1      22.084  -6.939  38.030  1.00  0.00     0.019 A 
HETATM   29  C13 UNK     1      21.668  -5.615  38.175  1.00  0.00     0.011 A 
ENDBRANCH  22  23
ENDBRANCH  21  22
ENDBRANCH  15  21
ENDBRANCH   2  12
TORSDOF 6
ENDMDL
MODEL 7
REMARK VINA RESULT:      -7.8      4.745     10.507
REMARK  6 active torsions:
REMARK  status: ('A' for Active; 'I' for Inactive)
REMARK    1  A    between atoms: C1_7  and  O1_4 
REMARK    2  A    between atoms: C4_10  and  O1_4 
REMARK    3  A    between atoms: C3_9  and  O2_5 
REMARK    4  A    between atoms: C2_8  and  C9_15 
REMARK    5  A    between atoms: C4_10  and  C6_12 
REMARK    6  A    between atoms: C10_16  and  C11_17 
ROOT
HETATM    1  N1  UNK     1      21.593   6.233  32.724  1.00  0.00    -0.191 NA
HETATM    2  C9  UNK     1      18.160   6.304  33.045  1.00  0.00     0.036 C 
HETATM    3  C10 UNK     1      19.211   7.147  33.228  1.00  0.00     0.055 C 
HETATM    4  C23 UNK     1      20.526   6.632  32.947  1.00  0.00     0.100 C 
ENDROOT
BRANCH   3   5
HETATM    5  C11 UNK     1      19.076   8.523  33.681  1.00  0.00    -0.015 A 
HETATM    6  C16 UNK     1      20.163   9.176  34.261  1.00  0.00     0.014 A 
HETATM    7  C19 UNK     1      20.033  10.495  34.696  1.00  0.00     0.024 A 
HETATM    8  C21 UNK     1      18.816  11.161  34.550  1.00  0.00     0.034 A 
HETATM    9  C20 UNK     1      17.729  10.507  33.970  1.00  0.00     0.024 A 
HETATM   10 Cl1  UNK     1      18.656  12.788  35.087  1.00  0.00    -0.084 Cl
HETATM   11  C17 UNK     1      17.859   9.188  33.535  1.00  0.00     0.014 A 
ENDBRANCH   3   5
BRANCH   2  12
HETATM   12  C2  UNK     1      18.248   4.911  32.584  1.00  0.00    -0.015 A 
HETATM   13  C5  UNK     1      18.066   3.917  33.538  1.00  0.00     0.052 A 
HETATM   14  C3  UNK     1      18.139   2.577  33.157  1.00  0.00     0.102 A 
HETATM   15  C1  UNK     1      18.394   2.242  31.827  1.00  0.00     0.103 A 
HETATM   16  C7  UNK     1      18.574   3.248  30.877  1.00  0.00     0.059 A 
HETATM   17  C8  UNK     1      18.502   4.587  31.258  1.00  0.00     0.024 A 
HETATM   18 Br1  UNK     1      18.758   5.907  29.914  1.00  0.00    -0.050 Br
BRANCH  14  19
HETATM   19  O2  UNK     1      17.961   1.604  34.093  1.00  0.00    -0.353 OA
HETATM   20  C22 UNK     1      18.446   1.872  35.408  1.00  0.00     0.210 C 
ENDBRANCH  14  19
BRANCH  15  21
HETATM   21  O1  UNK     1      18.466   0.938  31.443  1.00  0.00    -0.344 OA
BRANCH  21  22
HETATM   22  C4  UNK     1      19.412   0.613  30.426  1.00  0.00     0.214 C 
BRANCH  22  23
HETATM   23  C6  UNK     1      20.005  -0.733  30.719  1.00  0.00    -0.034 A 
HETATM   24  C12 UNK     1      20.177  -1.136  32.039  1.00  0.00     0.011 A 
HETATM   25  C14 UNK     1      20.730  -2.387  32.312  1.00  0.00     0.019 A 
HETATM   26  C18 UNK     1      21.106  -3.228  31.264  1.00  0.00     0.011 A 
HETATM   27 Br2  UNK     1      21.857  -4.923  31.635  1.00  0.00    -0.051 Br
HETATM   28  C15 UNK     1      20.931  -2.818  29.943  1.00  0.00     0.019 A 
HETATM   29  C13 UNK     1      20.378  -1.566  29.670  1.00  0.00     0.011 A 
ENDBRANCH  22  23
ENDBRANCH  21  22
ENDBRANCH  15  21
ENDBRANCH   2  12
TORSDOF 6
ENDMDL
MODEL 8
REMARK VINA RESULT:      -7.7     18.474     20.776
REMARK  6 active torsions:
REMARK  status: ('A' for Active; 'I' for Inactive)
REMARK    1  A    between atoms: C1_7  and  O1_4 
REMARK    2  A    between atoms: C4_10  and  O1_4 
REMARK    3  A    between atoms: C3_9  and  O2_5 
REMARK    4  A    between atoms: C2_8  and  C9_15 
REMARK    5  A    between atoms: C4_10  and  C6_12 
REMARK    6  A    between atoms: C10_16  and  C11_17 
ROOT
HETATM    1  N1  UNK     1      27.688 -10.410  39.483  1.00  0.00    -0.191 NA
HETATM    2  C9  UNK     1      27.442  -8.485  36.632  1.00  0.00     0.036 C 
HETATM    3  C10 UNK     1      26.711  -9.432  37.280  1.00  0.00     0.055 C 
HETATM    4  C23 UNK     1      27.260  -9.968  38.498  1.00  0.00     0.100 C 
ENDROOT
BRANCH   3   5
HETATM    5  C11 UNK     1      25.421  -9.917  36.816  1.00  0.00    -0.015 A 
HETATM    6  C16 UNK     1      24.286  -9.117  36.950  1.00  0.00     0.014 A 
HETATM    7  C19 UNK     1      23.049  -9.583  36.505  1.00  0.00     0.024 A 
HETATM    8  C21 UNK     1      22.947 -10.848  35.926  1.00  0.00     0.034 A 
HETATM    9  C20 UNK     1      24.082 -11.647  35.793  1.00  0.00     0.024 A 
HETATM   10 Cl1  UNK     1      21.420 -11.423  35.378  1.00  0.00    -0.084 Cl
HETATM   11  C17 UNK     1      25.319 -11.182  36.237  1.00  0.00     0.014 A 
ENDBRANCH   3   5
BRANCH   2  12
HETATM   12  C2  UNK     1      28.745  -7.962  37.066  1.00  0.00    -0.015 A 
HETATM   13  C5  UNK     1      28.734  -6.871  37.928  1.00  0.00     0.052 A 
HETATM   14  C3  UNK     1      29.941  -6.333  38.372  1.00  0.00     0.102 A 
HETATM   15  C1  UNK     1      31.150  -6.889  37.953  1.00  0.00     0.103 A 
HETATM   16  C7  UNK     1      31.151  -7.985  37.089  1.00  0.00     0.059 A 
HETATM   17  C8  UNK     1      29.943  -8.522  36.644  1.00  0.00     0.024 A 
HETATM   18 Br1  UNK     1      30.016 -10.014  35.468  1.00  0.00    -0.050 Br
BRANCH  14  19
HETATM   19  O2  UNK     1      29.928  -5.264  39.216  1.00  0.00    -0.353 OA
HETATM   20  C22 UNK     1      29.102  -4.160  38.850  1.00  0.00     0.210 C 
ENDBRANCH  14  19
BRANCH  15  21
HETATM   21  O1  UNK     1      32.335  -6.374  38.381  1.00  0.00    -0.344 OA
BRANCH  21  22
HETATM   22  C4  UNK     1      32.789  -5.179  37.748  1.00  0.00     0.214 C 
BRANCH  22  23
HETATM   23  C6  UNK     1      33.608  -5.543  36.545  1.00  0.00    -0.034 A 
HETATM   24  C12 UNK     1      33.087  -5.343  35.271  1.00  0.00     0.011 A 
HETATM   25  C14 UNK     1      33.848  -5.682  34.153  1.00  0.00     0.019 A 
HETATM   26  C18 UNK     1      35.126  -6.218  34.315  1.00  0.00     0.011 A 
HETATM   27 Br2  UNK     1      36.156  -6.678  32.799  1.00  0.00    -0.051 Br
HETATM   28  C15 UNK     1      35.643  -6.416  35.595  1.00  0.00     0.019 A 
HETATM   29  C13 UNK     1      34.881  -6.077  36.714  1.00  0.00     0.011 A 
ENDBRANCH  22  23
ENDBRANCH  21  22
ENDBRANCH  15  21
ENDBRANCH   2  12
TORSDOF 6
ENDMDL
MODEL 9
REMARK VINA RESULT:      -7.6     18.071     19.941
REMARK  6 active torsions:
REMARK  status: ('A' for Active; 'I' for Inactive)
REMARK    1  A    between atoms: C1_7  and  O1_4 
REMARK    2  A    between atoms: C4_10  and  O1_4 
REMARK    3  A    between atoms: C3_9  and  O2_5 
REMARK    4  A    between atoms: C2_8  and  C9_15 
REMARK    5  A    between atoms: C4_10  and  C6_12 
REMARK    6  A    between atoms: C10_16  and  C11_17 
ROOT
HETATM    1  N1  UNK     1      29.442  -7.088  34.485  1.00  0.00    -0.191 NA
HETATM    2  C9  UNK     1      30.897  -7.732  37.544  1.00  0.00     0.036 C 
HETATM    3  C10 UNK     1      31.294  -7.467  36.270  1.00  0.00     0.055 C 
HETATM    4  C23 UNK     1      30.262  -7.259  35.288  1.00  0.00     0.100 C 
ENDROOT
BRANCH   3   5
HETATM    5  C11 UNK     1      32.686  -7.378  35.858  1.00  0.00    -0.015 A 
HETATM    6  C16 UNK     1      33.180  -8.241  34.879  1.00  0.00     0.014 A 
HETATM    7  C19 UNK     1      34.515  -8.156  34.484  1.00  0.00     0.024 A 
HETATM    8  C21 UNK     1      35.355  -7.208  35.068  1.00  0.00     0.034 A 
HETATM    9  C20 UNK     1      34.861  -6.346  36.046  1.00  0.00     0.024 A 
HETATM   10 Cl1  UNK     1      37.003  -7.104  34.581  1.00  0.00    -0.084 Cl
HETATM   11  C17 UNK     1      33.526  -6.431  36.441  1.00  0.00     0.014 A 
ENDBRANCH   3   5
BRANCH   2  12
HETATM   12  C2  UNK     1      29.505  -7.825  38.006  1.00  0.00    -0.015 A 
HETATM   13  C5  UNK     1      28.862  -9.046  37.837  1.00  0.00     0.052 A 
HETATM   14  C3  UNK     1      27.541  -9.191  38.258  1.00  0.00     0.102 A 
HETATM   15  C1  UNK     1      26.872  -8.116  38.844  1.00  0.00     0.103 A 
HETATM   16  C7  UNK     1      27.526  -6.895  39.009  1.00  0.00     0.059 A 
HETATM   17  C8  UNK     1      28.847  -6.749  38.589  1.00  0.00     0.024 A 
HETATM   18 Br1  UNK     1      29.679  -5.059  38.843  1.00  0.00    -0.050 Br
BRANCH  14  19
HETATM   19  O2  UNK     1      26.913 -10.389  38.092  1.00  0.00    -0.353 OA
HETATM   20  C22 UNK     1      26.241 -10.601  36.851  1.00  0.00     0.210 C 
ENDBRANCH  14  19
BRANCH  15  21
HETATM   21  O1  UNK     1      25.582  -8.247  39.260  1.00  0.00    -0.344 OA
BRANCH  21  22
HETATM   22  C4  UNK     1      24.623  -7.362  38.684  1.00  0.00     0.214 C 
BRANCH  22  23
HETATM   23  C6  UNK     1      23.322  -8.091  38.517  1.00  0.00    -0.034 A 
HETATM   24  C12 UNK     1      22.429  -8.158  39.581  1.00  0.00     0.011 A 
HETATM   25  C14 UNK     1      21.221  -8.836  39.426  1.00  0.00     0.019 A 
HETATM   26  C18 UNK     1      20.911  -9.442  38.208  1.00  0.00     0.011 A 
HETATM   27 Br2  UNK     1      19.273 -10.362  38.000  1.00  0.00    -0.051 Br
HETATM   28  C15 UNK     1      21.811  -9.371  37.145  1.00  0.00     0.019 A 
HETATM   29  C13 UNK     1      23.020  -8.692  37.300  1.00  0.00     0.011 A 
ENDBRANCH  22  23
ENDBRANCH  21  22
ENDBRANCH  15  21
ENDBRANCH   2  12
TORSDOF 6
ENDMDL
MODEL 10
REMARK VINA RESULT:      -7.6      7.725     10.605
REMARK  6 active torsions:
REMARK  status: ('A' for Active; 'I' for Inactive)
REMARK    1  A    between atoms: C1_7  and  O1_4 
REMARK    2  A    between atoms: C4_10  and  O1_4 
REMARK    3  A    between atoms: C3_9  and  O2_5 
REMARK    4  A    between atoms: C2_8  and  C9_15 
REMARK    5  A    between atoms: C4_10  and  C6_12 
REMARK    6  A    between atoms: C10_16  and  C11_17 
ROOT
HETATM    1  N1  UNK     1      17.634  -5.300  36.284  1.00  0.00    -0.191 NA
HETATM    2  C9  UNK     1      20.574  -3.571  36.788  1.00  0.00     0.036 C 
HETATM    3  C10 UNK     1      20.017  -4.752  37.167  1.00  0.00     0.055 C 
HETATM    4  C23 UNK     1      18.697  -5.047  36.673  1.00  0.00     0.100 C 
ENDROOT
BRANCH   3   5
HETATM    5  C11 UNK     1      20.679  -5.720  38.028  1.00  0.00    -0.015 A 
HETATM    6  C16 UNK     1      22.042  -5.598  38.296  1.00  0.00     0.014 A 
HETATM    7  C19 UNK     1      22.676  -6.527  39.121  1.00  0.00     0.024 A 
HETATM    8  C21 UNK     1      21.948  -7.577  39.678  1.00  0.00     0.034 A 
HETATM    9  C20 UNK     1      20.584  -7.699  39.410  1.00  0.00     0.024 A 
HETATM   10 Cl1  UNK     1      22.731  -8.724  40.695  1.00  0.00    -0.084 Cl
HETATM   11  C17 UNK     1      19.950  -6.771  38.585  1.00  0.00     0.014 A 
ENDBRANCH   3   5
BRANCH   2  12
HETATM   12  C2  UNK     1      19.946  -2.567  35.917  1.00  0.00    -0.015 A 
HETATM   13  C5  UNK     1      20.378  -2.517  34.596  1.00  0.00     0.052 A 
HETATM   14  C3  UNK     1      19.816  -1.584  33.725  1.00  0.00     0.102 A 
HETATM   15  C1  UNK     1      18.828  -0.710  34.179  1.00  0.00     0.103 A 
HETATM   16  C7  UNK     1      18.402  -0.769  35.507  1.00  0.00     0.059 A 
HETATM   17  C8  UNK     1      18.963  -1.702  36.378  1.00  0.00     0.024 A 
HETATM   18 Br1  UNK     1      18.337  -1.730  38.172  1.00  0.00    -0.050 Br
BRANCH  14  19
HETATM   19  O2  UNK     1      20.241  -1.535  32.431  1.00  0.00    -0.353 OA
HETATM   20  C22 UNK     1      19.482  -2.270  31.472  1.00  0.00     0.210 C 
ENDBRANCH  14  19
BRANCH  15  21
HETATM   21  O1  UNK     1      18.272   0.204  33.338  1.00  0.00    -0.344 OA
BRANCH  21  22
HETATM   22  C4  UNK     1      17.853   1.442  33.910  1.00  0.00     0.214 C 
BRANCH  22  23
HETATM   23  C6  UNK     1      18.165   2.555  32.953  1.00  0.00    -0.034 A 
HETATM   24  C12 UNK     1      18.236   3.863  33.419  1.00  0.00     0.011 A 
HETATM   25  C14 UNK     1      18.524   4.898  32.530  1.00  0.00     0.019 A 
HETATM   26  C18 UNK     1      18.740   4.618  31.180  1.00  0.00     0.011 A 
HETATM   27 Br2  UNK     1      19.130   6.021  29.975  1.00  0.00    -0.051 Br
HETATM   28  C15 UNK     1      18.668   3.304  30.719  1.00  0.00     0.019 A 
HETATM   29  C13 UNK     1      18.379   2.269  31.609  1.00  0.00     0.011 A 
ENDBRANCH  22  23
ENDBRANCH  21  22
ENDBRANCH  15  21
ENDBRANCH   2  12
TORSDOF 6
ENDMDL
