MODEL 1
REMARK VINA RESULT:      -7.4      0.000      0.000
REMARK  4 active torsions:
REMARK  status: ('A' for Active; 'I' for Inactive)
REMARK    1  A    between atoms: C16_21  and  O1_3 
REMARK    2  A    between atoms: C8_13  and  O1_3 
REMARK    3  A    between atoms: C12_17  and  O3_5 
REMARK    4  A    between atoms: C4_9  and  C6_11 
ROOT
HETATM    1  I1  UNK     1      16.877   0.319  36.938  1.00  0.00    -0.042 I 
HETATM    2  C4  UNK     1      20.102  -2.423  36.059  1.00  0.00    -0.031 A 
HETATM    3  C7  UNK     1      20.178  -2.474  34.676  1.00  0.00     0.051 A 
HETATM    4  C8  UNK     1      19.293  -1.711  33.915  1.00  0.00     0.103 A 
HETATM    5  C10 UNK     1      19.164  -1.631  36.702  1.00  0.00     0.032 A 
HETATM    6  C12 UNK     1      18.344  -0.908  34.547  1.00  0.00     0.115 A 
HETATM    7  C13 UNK     1      18.279  -0.868  35.940  1.00  0.00     0.043 A 
ENDROOT
BRANCH   2   8
HETATM    8  C6  UNK     1      21.039  -3.230  36.862  1.00  0.00     0.034 C 
HETATM    9  C2  UNK     1      20.820  -4.467  37.311  1.00  0.00     0.057 A 
HETATM   10  C5  UNK     1      19.556  -5.205  37.043  1.00  0.00     0.200 A 
HETATM   11  S1  UNK     1      21.938  -5.395  38.255  1.00  0.00    -0.086 SA
HETATM   12  C1  UNK     1      19.611  -6.534  37.664  1.00  0.00     0.032 A 
HETATM   13  O2  UNK     1      18.606  -4.788  36.406  1.00  0.00    -0.286 OA
HETATM   14  C9  UNK     1      18.604  -7.486  37.616  1.00  0.00     0.017 A 
HETATM   15  C3  UNK     1      20.811  -6.763  38.333  1.00  0.00     0.020 A 
HETATM   16  C14 UNK     1      18.820  -8.703  38.264  1.00  0.00     0.001 A 
HETATM   17  C15 UNK     1      20.025  -8.945  38.940  1.00  0.00     0.001 A 
HETATM   18  C11 UNK     1      21.029  -7.972  38.977  1.00  0.00     0.020 A 
ENDBRANCH   2   8
BRANCH   4  19
HETATM   19  O1  UNK     1      19.367  -1.761  32.556  1.00  0.00    -0.349 OA
BRANCH  19  20
HETATM   20  C16 UNK     1      20.621  -2.135  31.989  1.00  0.00     0.171 C 
HETATM   21  C17 UNK     1      20.472  -2.242  30.487  1.00  0.00     0.034 C 
ENDBRANCH  19  20
ENDBRANCH   4  19
BRANCH   6  22
HETATM   22  O3  UNK     1      17.490  -0.172  33.778  1.00  0.00    -0.357 OA
HETATM   23  H13 UNK     1      18.019   0.433  33.229  1.00  0.00     0.218 HD
ENDBRANCH   6  22
TORSDOF 4
ENDMDL
MODEL 2
REMARK VINA RESULT:      -7.4      1.717      2.998
REMARK  4 active torsions:
REMARK  status: ('A' for Active; 'I' for Inactive)
REMARK    1  A    between atoms: C16_21  and  O1_3 
REMARK    2  A    between atoms: C8_13  and  O1_3 
REMARK    3  A    between atoms: C12_17  and  O3_5 
REMARK    4  A    between atoms: C4_9  and  C6_11 
ROOT
HETATM    1  I1  UNK     1      19.719  -1.614  31.971  1.00  0.00    -0.042 I 
HETATM    2  C4  UNK     1      20.057  -2.561  36.175  1.00  0.00    -0.031 A 
HETATM    3  C7  UNK     1      18.992  -1.919  36.787  1.00  0.00     0.051 A 
HETATM    4  C8  UNK     1      18.110  -1.170  36.009  1.00  0.00     0.103 A 
HETATM    5  C10 UNK     1      20.264  -2.474  34.809  1.00  0.00     0.032 A 
HETATM    6  C12 UNK     1      18.304  -1.074  34.631  1.00  0.00     0.115 A 
HETATM    7  C13 UNK     1      19.382  -1.725  34.031  1.00  0.00     0.043 A 
ENDROOT
BRANCH   2   8
HETATM    8  C6  UNK     1      20.989  -3.353  36.999  1.00  0.00     0.034 C 
HETATM    9  C2  UNK     1      20.798  -4.610  37.406  1.00  0.00     0.057 A 
HETATM   10  C5  UNK     1      19.577  -5.387  37.064  1.00  0.00     0.200 A 
HETATM   11  S1  UNK     1      21.910  -5.520  38.375  1.00  0.00    -0.086 SA
HETATM   12  C1  UNK     1      19.657  -6.729  37.653  1.00  0.00     0.032 A 
HETATM   13  O2  UNK     1      18.641  -4.989  36.396  1.00  0.00    -0.286 OA
HETATM   14  C9  UNK     1      18.690  -7.717  37.537  1.00  0.00     0.017 A 
HETATM   15  C3  UNK     1      20.835  -6.931  38.369  1.00  0.00     0.020 A 
HETATM   16  C14 UNK     1      18.926  -8.942  38.162  1.00  0.00     0.001 A 
HETATM   17  C15 UNK     1      20.108  -9.156  38.886  1.00  0.00     0.001 A 
HETATM   18  C11 UNK     1      21.071  -8.148  38.992  1.00  0.00     0.020 A 
ENDBRANCH   2   8
BRANCH   4  19
HETATM   19  O1  UNK     1      17.063  -0.538  36.609  1.00  0.00    -0.349 OA
BRANCH  19  20
HETATM   20  C16 UNK     1      17.373   0.380  37.655  1.00  0.00     0.171 C 
HETATM   21  C17 UNK     1      17.873   1.672  37.045  1.00  0.00     0.034 C 
ENDBRANCH  19  20
ENDBRANCH   4  19
BRANCH   6  22
HETATM   22  O3  UNK     1      17.425  -0.334  33.894  1.00  0.00    -0.357 OA
HETATM   23  H13 UNK     1      17.435  -0.669  32.981  1.00  0.00     0.218 HD
ENDBRANCH   6  22
TORSDOF 4
ENDMDL
MODEL 3
REMARK VINA RESULT:      -6.8     10.760     11.891
REMARK  4 active torsions:
REMARK  status: ('A' for Active; 'I' for Inactive)
REMARK    1  A    between atoms: C16_21  and  O1_3 
REMARK    2  A    between atoms: C8_13  and  O1_3 
REMARK    3  A    between atoms: C12_17  and  O3_5 
REMARK    4  A    between atoms: C4_9  and  C6_11 
ROOT
HETATM    1  I1  UNK     1      30.564 -11.693  32.213  1.00  0.00    -0.042 I 
HETATM    2  C4  UNK     1      30.835  -7.399  32.643  1.00  0.00    -0.031 A 
HETATM    3  C7  UNK     1      30.054  -6.875  31.625  1.00  0.00     0.051 A 
HETATM    4  C8  UNK     1      29.401  -7.742  30.751  1.00  0.00     0.103 A 
HETATM    5  C10 UNK     1      30.980  -8.767  32.810  1.00  0.00     0.032 A 
HETATM    6  C12 UNK     1      29.536  -9.122  30.906  1.00  0.00     0.115 A 
HETATM    7  C13 UNK     1      30.327  -9.635  31.935  1.00  0.00     0.043 A 
ENDROOT
BRANCH   2   8
HETATM    8  C6  UNK     1      31.525  -6.481  33.568  1.00  0.00     0.034 C 
HETATM    9  C2  UNK     1      31.080  -6.096  34.765  1.00  0.00     0.057 A 
HETATM   10  C5  UNK     1      29.786  -6.566  35.329  1.00  0.00     0.200 A 
HETATM   11  S1  UNK     1      31.910  -5.014  35.835  1.00  0.00    -0.086 SA
HETATM   12  C1  UNK     1      29.571  -5.972  36.654  1.00  0.00     0.032 A 
HETATM   13  O2  UNK     1      29.007  -7.331  34.789  1.00  0.00    -0.286 OA
HETATM   14  C9  UNK     1      28.467  -6.191  37.464  1.00  0.00     0.017 A 
HETATM   15  C3  UNK     1      30.615  -5.135  37.040  1.00  0.00     0.020 A 
HETATM   16  C14 UNK     1      28.421  -5.544  38.700  1.00  0.00     0.001 A 
HETATM   17  C15 UNK     1      29.467  -4.699  39.099  1.00  0.00     0.001 A 
HETATM   18  C11 UNK     1      30.572  -4.491  38.269  1.00  0.00     0.020 A 
ENDBRANCH   2   8
BRANCH   4  19
HETATM   19  O1  UNK     1      28.634  -7.228  29.750  1.00  0.00    -0.349 OA
BRANCH  19  20
HETATM   20  C16 UNK     1      27.688  -6.223  30.110  1.00  0.00     0.171 C 
HETATM   21  C17 UNK     1      26.380  -6.886  30.484  1.00  0.00     0.034 C 
ENDBRANCH  19  20
ENDBRANCH   4  19
BRANCH   6  22
HETATM   22  O3  UNK     1      28.885  -9.948  30.036  1.00  0.00    -0.357 OA
HETATM   23  H13 UNK     1      28.195  -9.431  29.584  1.00  0.00     0.218 HD
ENDBRANCH   6  22
TORSDOF 4
ENDMDL
MODEL 4
REMARK VINA RESULT:      -6.8     10.922     12.761
REMARK  4 active torsions:
REMARK  status: ('A' for Active; 'I' for Inactive)
REMARK    1  A    between atoms: C16_21  and  O1_3 
REMARK    2  A    between atoms: C8_13  and  O1_3 
REMARK    3  A    between atoms: C12_17  and  O3_5 
REMARK    4  A    between atoms: C4_9  and  C6_11 
ROOT
HETATM    1  I1  UNK     1      34.878  -5.841  36.350  1.00  0.00    -0.042 I 
HETATM    2  C4  UNK     1      31.157  -8.004  35.945  1.00  0.00    -0.031 A 
HETATM    3  C7  UNK     1      30.380  -7.612  37.023  1.00  0.00     0.051 A 
HETATM    4  C8  UNK     1      30.895  -6.691  37.935  1.00  0.00     0.103 A 
HETATM    5  C10 UNK     1      32.434  -7.502  35.753  1.00  0.00     0.032 A 
HETATM    6  C12 UNK     1      32.179  -6.176  37.756  1.00  0.00     0.115 A 
HETATM    7  C13 UNK     1      32.949  -6.582  36.666  1.00  0.00     0.043 A 
ENDROOT
BRANCH   2   8
HETATM    8  C6  UNK     1      30.610  -8.977  34.980  1.00  0.00     0.034 C 
HETATM    9  C2  UNK     1      29.868  -8.685  33.910  1.00  0.00     0.057 A 
HETATM   10  C5  UNK     1      29.490  -7.292  33.553  1.00  0.00     0.200 A 
HETATM   11  S1  UNK     1      29.237  -9.848  32.791  1.00  0.00    -0.086 SA
HETATM   12  C1  UNK     1      28.674  -7.292  32.332  1.00  0.00     0.032 A 
HETATM   13  O2  UNK     1      29.800  -6.287  34.166  1.00  0.00    -0.286 OA
HETATM   14  C9  UNK     1      28.148  -6.166  31.716  1.00  0.00     0.017 A 
HETATM   15  C3  UNK     1      28.466  -8.574  31.828  1.00  0.00     0.020 A 
HETATM   16  C14 UNK     1      27.391  -6.346  30.557  1.00  0.00     0.001 A 
HETATM   17  C15 UNK     1      27.176  -7.632  30.040  1.00  0.00     0.001 A 
HETATM   18  C11 UNK     1      27.715  -8.755  30.675  1.00  0.00     0.020 A 
ENDBRANCH   2   8
BRANCH   4  19
HETATM   19  O1  UNK     1      30.133  -6.305  38.996  1.00  0.00    -0.349 OA
BRANCH  19  20
HETATM   20  C16 UNK     1      29.090  -5.367  38.737  1.00  0.00     0.171 C 
HETATM   21  C17 UNK     1      29.471  -4.029  39.332  1.00  0.00     0.034 C 
ENDBRANCH  19  20
ENDBRANCH   4  19
BRANCH   6  22
HETATM   22  O3  UNK     1      32.658  -5.276  38.665  1.00  0.00    -0.357 OA
HETATM   23  H13 UNK     1      33.023  -4.517  38.179  1.00  0.00     0.218 HD
ENDBRANCH   6  22
TORSDOF 4
ENDMDL
MODEL 5
REMARK VINA RESULT:      -6.7     12.192     13.856
REMARK  4 active torsions:
REMARK  status: ('A' for Active; 'I' for Inactive)
REMARK    1  A    between atoms: C16_21  and  O1_3 
REMARK    2  A    between atoms: C8_13  and  O1_3 
REMARK    3  A    between atoms: C12_17  and  O3_5 
REMARK    4  A    between atoms: C4_9  and  C6_11 
ROOT
HETATM    1  I1  UNK     1      36.412  -7.297  34.436  1.00  0.00    -0.042 I 
HETATM    2  C4  UNK     1      32.435  -5.610  34.587  1.00  0.00    -0.031 A 
HETATM    3  C7  UNK     1      32.002  -5.796  35.890  1.00  0.00     0.051 A 
HETATM    4  C8  UNK     1      32.845  -6.425  36.805  1.00  0.00     0.103 A 
HETATM    5  C10 UNK     1      33.686  -6.036  34.173  1.00  0.00     0.032 A 
HETATM    6  C12 UNK     1      34.108  -6.860  36.405  1.00  0.00     0.115 A 
HETATM    7  C13 UNK     1      34.529  -6.667  35.089  1.00  0.00     0.043 A 
ENDROOT
BRANCH   2   8
HETATM    8  C6  UNK     1      31.542  -4.943  33.620  1.00  0.00     0.034 C 
HETATM    9  C2  UNK     1      30.626  -5.544  32.859  1.00  0.00     0.057 A 
HETATM   10  C5  UNK     1      30.389  -7.012  32.897  1.00  0.00     0.200 A 
HETATM   11  S1  UNK     1      29.588  -4.738  31.729  1.00  0.00    -0.086 SA
HETATM   12  C1  UNK     1      29.325  -7.372  31.952  1.00  0.00     0.032 A 
HETATM   13  O2  UNK     1      30.976  -7.812  33.601  1.00  0.00    -0.286 OA
HETATM   14  C9  UNK     1      28.849  -8.656  31.728  1.00  0.00     0.017 A 
HETATM   15  C3  UNK     1      28.817  -6.268  31.271  1.00  0.00     0.020 A 
HETATM   16  C14 UNK     1      27.830  -8.823  30.789  1.00  0.00     0.001 A 
HETATM   17  C15 UNK     1      27.311  -7.718  30.098  1.00  0.00     0.001 A 
HETATM   18  C11 UNK     1      27.804  -6.431  30.338  1.00  0.00     0.020 A 
ENDBRANCH   2   8
BRANCH   4  19
HETATM   19  O1  UNK     1      32.420  -6.609  38.086  1.00  0.00    -0.349 OA
BRANCH  19  20
HETATM   20  C16 UNK     1      31.239  -7.387  38.272  1.00  0.00     0.171 C 
HETATM   21  C17 UNK     1      31.577  -8.850  38.091  1.00  0.00     0.034 C 
ENDBRANCH  19  20
ENDBRANCH   4  19
BRANCH   6  22
HETATM   22  O3  UNK     1      34.912  -7.474  37.322  1.00  0.00    -0.357 OA
HETATM   23  H13 UNK     1      35.838  -7.292  37.085  1.00  0.00     0.218 HD
ENDBRANCH   6  22
TORSDOF 4
ENDMDL
MODEL 6
REMARK VINA RESULT:      -6.7      8.564     12.636
REMARK  4 active torsions:
REMARK  status: ('A' for Active; 'I' for Inactive)
REMARK    1  A    between atoms: C16_21  and  O1_3 
REMARK    2  A    between atoms: C8_13  and  O1_3 
REMARK    3  A    between atoms: C12_17  and  O3_5 
REMARK    4  A    between atoms: C4_9  and  C6_11 
ROOT
HETATM    1  I1  UNK     1      18.385   3.036  29.716  1.00  0.00    -0.042 I 
HETATM    2  C4  UNK     1      18.781   5.618  33.161  1.00  0.00    -0.031 A 
HETATM    3  C7  UNK     1      18.546   4.808  34.261  1.00  0.00     0.051 A 
HETATM    4  C8  UNK     1      18.258   3.458  34.064  1.00  0.00     0.103 A 
HETATM    5  C10 UNK     1      18.735   5.116  31.871  1.00  0.00     0.032 A 
HETATM    6  C12 UNK     1      18.209   2.936  32.771  1.00  0.00     0.115 A 
HETATM    7  C13 UNK     1      18.446   3.765  31.674  1.00  0.00     0.043 A 
ENDROOT
BRANCH   2   8
HETATM    8  C6  UNK     1      19.087   7.046  33.370  1.00  0.00     0.034 C 
HETATM    9  C2  UNK     1      18.195   8.008  33.615  1.00  0.00     0.057 A 
HETATM   10  C5  UNK     1      16.735   7.744  33.707  1.00  0.00     0.200 A 
HETATM   11  S1  UNK     1      18.579   9.681  33.857  1.00  0.00    -0.086 SA
HETATM   12  C1  UNK     1      16.016   8.994  33.982  1.00  0.00     0.032 A 
HETATM   13  O2  UNK     1      16.195   6.660  33.579  1.00  0.00    -0.286 OA
HETATM   14  C9  UNK     1      14.642   9.116  34.129  1.00  0.00     0.017 A 
HETATM   15  C3  UNK     1      16.869  10.090  34.085  1.00  0.00     0.020 A 
HETATM   16  C14 UNK     1      14.120  10.384  34.388  1.00  0.00     0.001 A 
HETATM   17  C15 UNK     1      14.970  11.495  34.494  1.00  0.00     0.001 A 
HETATM   18  C11 UNK     1      16.353  11.352  34.343  1.00  0.00     0.020 A 
ENDBRANCH   2   8
BRANCH   4  19
HETATM   19  O1  UNK     1      18.027   2.661  35.144  1.00  0.00    -0.349 OA
BRANCH  19  20
HETATM   20  C16 UNK     1      19.164   2.062  35.763  1.00  0.00     0.171 C 
HETATM   21  C17 UNK     1      18.861   0.608  36.049  1.00  0.00     0.034 C 
ENDBRANCH  19  20
ENDBRANCH   4  19
BRANCH   6  22
HETATM   22  O3  UNK     1      17.924   1.611  32.609  1.00  0.00    -0.357 OA
HETATM   23  H13 UNK     1      18.550   1.242  31.962  1.00  0.00     0.218 HD
ENDBRANCH   6  22
TORSDOF 4
ENDMDL
MODEL 7
REMARK VINA RESULT:      -6.5     11.201     12.885
REMARK  4 active torsions:
REMARK  status: ('A' for Active; 'I' for Inactive)
REMARK    1  A    between atoms: C16_21  and  O1_3 
REMARK    2  A    between atoms: C8_13  and  O1_3 
REMARK    3  A    between atoms: C12_17  and  O3_5 
REMARK    4  A    between atoms: C4_9  and  C6_11 
ROOT
HETATM    1  I1  UNK     1      29.489  -4.448  38.997  1.00  0.00    -0.042 I 
HETATM    2  C4  UNK     1      30.781  -7.710  36.472  1.00  0.00    -0.031 A 
HETATM    3  C7  UNK     1      32.158  -7.768  36.615  1.00  0.00     0.051 A 
HETATM    4  C8  UNK     1      32.795  -6.857  37.459  1.00  0.00     0.103 A 
HETATM    5  C10 UNK     1      30.023  -6.768  37.147  1.00  0.00     0.032 A 
HETATM    6  C12 UNK     1      32.045  -5.902  38.146  1.00  0.00     0.115 A 
HETATM    7  C13 UNK     1      30.660  -5.857  37.990  1.00  0.00     0.043 A 
ENDROOT
BRANCH   2   8
HETATM    8  C6  UNK     1      30.110  -8.675  35.580  1.00  0.00     0.034 C 
HETATM    9  C2  UNK     1      29.589  -8.400  34.383  1.00  0.00     0.057 A 
HETATM   10  C5  UNK     1      29.626  -7.039  33.785  1.00  0.00     0.200 A 
HETATM   11  S1  UNK     1      28.803  -9.552  33.353  1.00  0.00    -0.086 SA
HETATM   12  C1  UNK     1      28.975  -7.052  32.469  1.00  0.00     0.032 A 
HETATM   13  O2  UNK     1      30.117  -6.048  34.293  1.00  0.00    -0.286 OA
HETATM   14  C9  UNK     1      28.829  -5.954  31.634  1.00  0.00     0.017 A 
HETATM   15  C3  UNK     1      28.498  -8.313  32.120  1.00  0.00     0.020 A 
HETATM   16  C14 UNK     1      28.181  -6.142  30.411  1.00  0.00     0.001 A 
HETATM   17  C15 UNK     1      27.697  -7.408  30.050  1.00  0.00     0.001 A 
HETATM   18  C11 UNK     1      27.855  -8.503  30.906  1.00  0.00     0.020 A 
ENDBRANCH   2   8
BRANCH   4  19
HETATM   19  O1  UNK     1      34.148  -6.913  37.600  1.00  0.00    -0.349 OA
BRANCH  19  20
HETATM   20  C16 UNK     1      34.929  -6.805  36.412  1.00  0.00     0.171 C 
HETATM   21  C17 UNK     1      35.091  -5.343  36.058  1.00  0.00     0.034 C 
ENDBRANCH  19  20
ENDBRANCH   4  19
BRANCH   6  22
HETATM   22  O3  UNK     1      32.694  -5.024  38.965  1.00  0.00    -0.357 OA
HETATM   23  H13 UNK     1      32.939  -5.492  39.781  1.00  0.00     0.218 HD
ENDBRANCH   6  22
TORSDOF 4
ENDMDL
MODEL 8
REMARK VINA RESULT:      -6.5     10.899     12.275
REMARK  4 active torsions:
REMARK  status: ('A' for Active; 'I' for Inactive)
REMARK    1  A    between atoms: C16_21  and  O1_3 
REMARK    2  A    between atoms: C8_13  and  O1_3 
REMARK    3  A    between atoms: C12_17  and  O3_5 
REMARK    4  A    between atoms: C4_9  and  C6_11 
ROOT
HETATM    1  I1  UNK     1      28.135  -8.142  38.601  1.00  0.00    -0.042 I 
HETATM    2  C4  UNK     1      28.894  -6.629  34.623  1.00  0.00    -0.031 A 
HETATM    3  C7  UNK     1      30.171  -6.094  34.667  1.00  0.00     0.051 A 
HETATM    4  C8  UNK     1      30.890  -6.143  35.861  1.00  0.00     0.103 A 
HETATM    5  C10 UNK     1      28.315  -7.210  35.739  1.00  0.00     0.032 A 
HETATM    6  C12 UNK     1      30.322  -6.725  36.994  1.00  0.00     0.115 A 
HETATM    7  C13 UNK     1      29.034  -7.257  36.934  1.00  0.00     0.043 A 
ENDROOT
BRANCH   2   8
HETATM    8  C6  UNK     1      28.135  -6.578  33.359  1.00  0.00     0.034 C 
HETATM    9  C2  UNK     1      28.282  -7.408  32.325  1.00  0.00     0.057 A 
HETATM   10  C5  UNK     1      29.266  -8.523  32.325  1.00  0.00     0.200 A 
HETATM   11  S1  UNK     1      27.377  -7.327  30.849  1.00  0.00    -0.086 SA
HETATM   12  C1  UNK     1      29.194  -9.254  31.054  1.00  0.00     0.032 A 
HETATM   13  O2  UNK     1      30.026  -8.806  33.233  1.00  0.00    -0.286 OA
HETATM   14  C9  UNK     1      29.972 -10.351  30.712  1.00  0.00     0.017 A 
HETATM   15  C3  UNK     1      28.239  -8.728  30.187  1.00  0.00     0.020 A 
HETATM   16  C14 UNK     1      29.775 -10.929  29.457  1.00  0.00     0.001 A 
HETATM   17  C15 UNK     1      28.816 -10.408  28.576  1.00  0.00     0.001 A 
HETATM   18  C11 UNK     1      28.041  -9.301  28.939  1.00  0.00     0.020 A 
ENDBRANCH   2   8
BRANCH   4  19
HETATM   19  O1  UNK     1      32.146  -5.617  35.905  1.00  0.00    -0.349 OA
BRANCH  19  20
HETATM   20  C16 UNK     1      32.327  -4.323  35.334  1.00  0.00     0.171 C 
HETATM   21  C17 UNK     1      32.084  -3.275  36.398  1.00  0.00     0.034 C 
ENDBRANCH  19  20
ENDBRANCH   4  19
BRANCH   6  22
HETATM   22  O3  UNK     1      31.048  -6.758  38.149  1.00  0.00    -0.357 OA
HETATM   23  H13 UNK     1      30.957  -5.897  38.592  1.00  0.00     0.218 HD
ENDBRANCH   6  22
TORSDOF 4
ENDMDL
MODEL 9
REMARK VINA RESULT:      -6.5     28.868     31.049
REMARK  4 active torsions:
REMARK  status: ('A' for Active; 'I' for Inactive)
REMARK    1  A    between atoms: C16_21  and  O1_3 
REMARK    2  A    between atoms: C8_13  and  O1_3 
REMARK    3  A    between atoms: C12_17  and  O3_5 
REMARK    4  A    between atoms: C4_9  and  C6_11 
ROOT
HETATM    1  I1  UNK     1      16.586  12.493   7.792  1.00  0.00    -0.042 I 
HETATM    2  C4  UNK     1      14.110   9.572   9.798  1.00  0.00    -0.031 A 
HETATM    3  C7  UNK     1      14.986   8.613  10.282  1.00  0.00     0.051 A 
HETATM    4  C8  UNK     1      16.353   8.761  10.053  1.00  0.00     0.103 A 
HETATM    5  C10 UNK     1      14.564  10.673   9.090  1.00  0.00     0.032 A 
HETATM    6  C12 UNK     1      16.826   9.864   9.343  1.00  0.00     0.115 A 
HETATM    7  C13 UNK     1      15.931  10.820   8.860  1.00  0.00     0.043 A 
ENDROOT
BRANCH   2   8
HETATM    8  C6  UNK     1      12.664   9.415  10.042  1.00  0.00     0.034 C 
HETATM    9  C2  UNK     1      11.818   8.703   9.295  1.00  0.00     0.057 A 
HETATM   10  C5  UNK     1      12.250   7.957   8.083  1.00  0.00     0.200 A 
HETATM   11  S1  UNK     1      10.121   8.534   9.602  1.00  0.00    -0.086 SA
HETATM   12  C1  UNK     1      11.100   7.277   7.476  1.00  0.00     0.032 A 
HETATM   13  O2  UNK     1      13.384   7.905   7.643  1.00  0.00    -0.286 OA
HETATM   14  C9  UNK     1      11.141   6.493   6.333  1.00  0.00     0.017 A 
HETATM   15  C3  UNK     1       9.917   7.497   8.178  1.00  0.00     0.020 A 
HETATM   16  C14 UNK     1       9.949   5.917   5.890  1.00  0.00     0.001 A 
HETATM   17  C15 UNK     1       8.752   6.132   6.588  1.00  0.00     0.001 A 
HETATM   18  C11 UNK     1       8.731   6.925   7.740  1.00  0.00     0.020 A 
ENDBRANCH   2   8
BRANCH   4  19
HETATM   19  O1  UNK     1      17.215   7.819  10.528  1.00  0.00    -0.349 OA
BRANCH  19  20
HETATM   20  C16 UNK     1      17.520   6.725   9.665  1.00  0.00     0.171 C 
HETATM   21  C17 UNK     1      16.345   5.772   9.641  1.00  0.00     0.034 C 
ENDBRANCH  19  20
ENDBRANCH   4  19
BRANCH   6  22
HETATM   22  O3  UNK     1      18.170   9.983   9.133  1.00  0.00    -0.357 OA
HETATM   23  H13 UNK     1      18.625   9.339   9.702  1.00  0.00     0.218 HD
ENDBRANCH   6  22
TORSDOF 4
ENDMDL
MODEL 10
REMARK VINA RESULT:      -6.5     12.364     14.160
REMARK  4 active torsions:
REMARK  status: ('A' for Active; 'I' for Inactive)
REMARK    1  A    between atoms: C16_21  and  O1_3 
REMARK    2  A    between atoms: C8_13  and  O1_3 
REMARK    3  A    between atoms: C12_17  and  O3_5 
REMARK    4  A    between atoms: C4_9  and  C6_11 
ROOT
HETATM    1  I1  UNK     1      36.434  -7.256  34.226  1.00  0.00    -0.042 I 
HETATM    2  C4  UNK     1      32.493  -8.926  34.834  1.00  0.00    -0.031 A 
HETATM    3  C7  UNK     1      32.134  -8.570  36.124  1.00  0.00     0.051 A 
HETATM    4  C8  UNK     1      33.021  -7.820  36.896  1.00  0.00     0.103 A 
HETATM    5  C10 UNK     1      33.714  -8.554  34.295  1.00  0.00     0.032 A 
HETATM    6  C12 UNK     1      34.254  -7.437  36.368  1.00  0.00     0.115 A 
HETATM    7  C13 UNK     1      34.601  -7.805  35.067  1.00  0.00     0.043 A 
ENDROOT
BRANCH   2   8
HETATM    8  C6  UNK     1      31.554  -9.718  34.018  1.00  0.00     0.034 C 
HETATM    9  C2  UNK     1      30.615  -9.226  33.207  1.00  0.00     0.057 A 
HETATM   10  C5  UNK     1      30.397  -7.766  33.026  1.00  0.00     0.200 A 
HETATM   11  S1  UNK     1      29.522 -10.179  32.258  1.00  0.00    -0.086 SA
HETATM   12  C1  UNK     1      29.299  -7.537  32.078  1.00  0.00     0.032 A 
HETATM   13  O2  UNK     1      31.025  -6.877  33.570  1.00  0.00    -0.286 OA
HETATM   14  C9  UNK     1      28.827  -6.296  31.679  1.00  0.00     0.017 A 
HETATM   15  C3  UNK     1      28.751  -8.725  31.598  1.00  0.00     0.020 A 
HETATM   16  C14 UNK     1      27.771  -6.258  30.767  1.00  0.00     0.001 A 
HETATM   17  C15 UNK     1      27.212  -7.447  30.276  1.00  0.00     0.001 A 
HETATM   18  C11 UNK     1      27.702  -8.690  30.691  1.00  0.00     0.020 A 
ENDBRANCH   2   8
BRANCH   4  19
HETATM   19  O1  UNK     1      32.669  -7.470  38.164  1.00  0.00    -0.349 OA
BRANCH  19  20
HETATM   20  C16 UNK     1      31.511  -6.651  38.313  1.00  0.00     0.171 C 
HETATM   21  C17 UNK     1      31.934  -5.199  38.353  1.00  0.00     0.034 C 
ENDBRANCH  19  20
ENDBRANCH   4  19
BRANCH   6  22
HETATM   22  O3  UNK     1      35.102  -6.703  37.146  1.00  0.00    -0.357 OA
HETATM   23  H13 UNK     1      35.984  -6.723  36.738  1.00  0.00     0.218 HD
ENDBRANCH   6  22
TORSDOF 4
ENDMDL
