MODEL 1
REMARK VINA RESULT:      -9.3      0.000      0.000
REMARK  3 active torsions:
REMARK  status: ('A' for Active; 'I' for Inactive)
REMARK    1  A    between atoms: C4_8  and  N1_4 
REMARK    2  A    between atoms: C1_5  and  C3_7 
REMARK    3  A    between atoms: C10_14  and  C7_11 
ROOT
HETATM    1  O2  UNK     1      20.947  -2.450  30.912  1.00  0.00    -0.275 OA
HETATM    2  O3  UNK     1      21.420  -4.027  32.496  1.00  0.00    -0.260 OA
HETATM    3  C1  UNK     1      19.383  -1.104  32.866  1.00  0.00     0.019 A 
HETATM    4  C2  UNK     1      19.513  -0.567  31.501  1.00  0.00     0.012 A 
HETATM    5  C6  UNK     1      20.288  -1.254  30.569  1.00  0.00     0.090 A 
HETATM    6  C7  UNK     1      19.043   1.085  29.776  1.00  0.00    -0.058 A 
HETATM    7  C8  UNK     1      18.887   0.617  31.086  1.00  0.00     0.022 A 
HETATM    8  C11 UNK     1      20.026  -2.248  33.159  1.00  0.00     0.098 A 
HETATM    9  C12 UNK     1      20.453  -0.799  29.259  1.00  0.00     0.039 A 
HETATM   10  C13 UNK     1      19.824   0.377  28.865  1.00  0.00     0.010 A 
HETATM   11  C16 UNK     1      20.851  -2.987  32.185  1.00  0.00     0.289 A 
ENDROOT
BRANCH   3  12
HETATM   12  C3  UNK     1      18.636  -0.522  33.911  1.00  0.00     0.114 A 
HETATM   13  O1  UNK     1      19.200   0.350  34.792  1.00  0.00    -0.307 OA
HETATM   14  C9  UNK     1      18.223   0.725  35.666  1.00  0.00     0.088 A 
HETATM   15  C15 UNK     1      18.381   1.611  36.729  1.00  0.00     0.038 A 
HETATM   16  C5  UNK     1      17.025   0.093  35.348  1.00  0.00     0.027 A 
HETATM   17  C19 UNK     1      17.246   1.858  37.506  1.00  0.00     0.003 A 
HETATM   18  C18 UNK     1      16.024   1.243  37.220  1.00  0.00     0.001 A 
HETATM   19  C14 UNK     1      15.896   0.356  36.143  1.00  0.00     0.017 A 
HETATM   20  C4  UNK     1      17.303  -0.711  34.211  1.00  0.00     0.074 A 
BRANCH  20  21
HETATM   21  N1  UNK     1      16.429  -1.506  33.555  1.00  0.00    -0.396 N 
HETATM   22  H12 UNK     1      15.424  -1.376  33.613  1.00  0.00     0.156 HD
HETATM   23  H13 UNK     1      16.724  -2.280  32.968  1.00  0.00     0.156 HD
ENDBRANCH  20  21
ENDBRANCH   3  12
BRANCH   6  24
HETATM   24  C10 UNK     1      18.368   2.347  29.354  1.00  0.00     0.034 C 
HETATM   25  C17 UNK     1      18.735   3.528  30.249  1.00  0.00     0.010 C 
ENDBRANCH   6  24
TORSDOF 3
ENDMDL
MODEL 2
REMARK VINA RESULT:      -8.8     24.384     26.220
REMARK  3 active torsions:
REMARK  status: ('A' for Active; 'I' for Inactive)
REMARK    1  A    between atoms: C4_8  and  N1_4 
REMARK    2  A    between atoms: C1_5  and  C3_7 
REMARK    3  A    between atoms: C10_14  and  C7_11 
ROOT
HETATM    1  O2  UNK     1      16.309   6.049   9.961  1.00  0.00    -0.275 OA
HETATM    2  O3  UNK     1      15.890   3.806   9.837  1.00  0.00    -0.260 OA
HETATM    3  C1  UNK     1      13.642   6.491   9.085  1.00  0.00     0.019 A 
HETATM    4  C2  UNK     1      14.540   7.622   9.374  1.00  0.00     0.012 A 
HETATM    5  C6  UNK     1      15.841   7.367   9.801  1.00  0.00     0.090 A 
HETATM    6  C7  UNK     1      15.039   9.999   9.524  1.00  0.00    -0.058 A 
HETATM    7  C8  UNK     1      14.145   8.961   9.237  1.00  0.00     0.022 A 
HETATM    8  C11 UNK     1      14.121   5.246   9.249  1.00  0.00     0.098 A 
HETATM    9  C12 UNK     1      16.743   8.393  10.091  1.00  0.00     0.039 A 
HETATM   10  C13 UNK     1      16.335   9.715   9.950  1.00  0.00     0.010 A 
HETATM   11  C16 UNK     1      15.495   4.958   9.701  1.00  0.00     0.289 A 
ENDROOT
BRANCH   3  12
HETATM   12  C3  UNK     1      12.305   6.594   8.648  1.00  0.00     0.114 A 
HETATM   13  O1  UNK     1      11.306   6.977   9.489  1.00  0.00    -0.307 OA
HETATM   14  C9  UNK     1      10.150   6.976   8.766  1.00  0.00     0.088 A 
HETATM   15  C15 UNK     1       8.887   7.309   9.252  1.00  0.00     0.038 A 
HETATM   16  C5  UNK     1      10.405   6.589   7.454  1.00  0.00     0.027 A 
HETATM   17  C19 UNK     1       7.832   7.239   8.338  1.00  0.00     0.003 A 
HETATM   18  C18 UNK     1       8.046   6.856   7.011  1.00  0.00     0.001 A 
HETATM   19  C14 UNK     1       9.328   6.527   6.552  1.00  0.00     0.017 A 
HETATM   20  C4  UNK     1      11.801   6.345   7.388  1.00  0.00     0.074 A 
BRANCH  20  21
HETATM   21  N1  UNK     1      12.498   5.946   6.300  1.00  0.00    -0.396 N 
HETATM   22  H12 UNK     1      13.383   5.452   6.371  1.00  0.00     0.156 HD
HETATM   23  H13 UNK     1      12.180   6.116   5.351  1.00  0.00     0.156 HD
ENDBRANCH  20  21
ENDBRANCH   3  12
BRANCH   6  24
HETATM   24  C10 UNK     1      14.600  11.418   9.373  1.00  0.00     0.034 C 
HETATM   25  C17 UNK     1      15.413  12.166   8.320  1.00  0.00     0.010 C 
ENDBRANCH   6  24
TORSDOF 3
ENDMDL
MODEL 3
REMARK VINA RESULT:      -8.6      4.263      6.673
REMARK  3 active torsions:
REMARK  status: ('A' for Active; 'I' for Inactive)
REMARK    1  A    between atoms: C4_8  and  N1_4 
REMARK    2  A    between atoms: C1_5  and  C3_7 
REMARK    3  A    between atoms: C10_14  and  C7_11 
ROOT
HETATM    1  O2  UNK     1      18.675   1.130  31.356  1.00  0.00    -0.275 OA
HETATM    2  O3  UNK     1      18.815   2.000  29.248  1.00  0.00    -0.260 OA
HETATM    3  C1  UNK     1      18.223   3.770  32.305  1.00  0.00     0.019 A 
HETATM    4  C2  UNK     1      18.258   2.628  33.235  1.00  0.00     0.012 A 
HETATM    5  C6  UNK     1      18.483   1.348  32.733  1.00  0.00     0.090 A 
HETATM    6  C7  UNK     1      18.118   1.648  35.458  1.00  0.00    -0.058 A 
HETATM    7  C8  UNK     1      18.074   2.767  34.618  1.00  0.00     0.022 A 
HETATM    8  C11 UNK     1      18.411   3.525  30.997  1.00  0.00     0.098 A 
HETATM    9  C12 UNK     1      18.528   0.223  33.559  1.00  0.00     0.039 A 
HETATM   10  C13 UNK     1      18.344   0.379  34.929  1.00  0.00     0.010 A 
HETATM   11  C16 UNK     1      18.649   2.177  30.450  1.00  0.00     0.289 A 
ENDROOT
BRANCH   3  12
HETATM   12  C3  UNK     1      18.007   5.116  32.665  1.00  0.00     0.114 A 
HETATM   13  O1  UNK     1      16.785   5.702  32.537  1.00  0.00    -0.307 OA
HETATM   14  C9  UNK     1      16.910   6.990  32.965  1.00  0.00     0.088 A 
HETATM   15  C15 UNK     1      15.890   7.938  32.999  1.00  0.00     0.038 A 
HETATM   16  C5  UNK     1      18.219   7.236  33.371  1.00  0.00     0.027 A 
HETATM   17  C19 UNK     1      16.236   9.207  33.476  1.00  0.00     0.003 A 
HETATM   18  C18 UNK     1      17.539   9.493  33.893  1.00  0.00     0.001 A 
HETATM   19  C14 UNK     1      18.544   8.518  33.847  1.00  0.00     0.017 A 
HETATM   20  C4  UNK     1      18.919   6.017  33.174  1.00  0.00     0.074 A 
BRANCH  20  21
HETATM   21  N1  UNK     1      20.226   5.789  33.433  1.00  0.00    -0.396 N 
HETATM   22  H12 UNK     1      20.943   6.491  33.277  1.00  0.00     0.156 HD
HETATM   23  H13 UNK     1      20.568   4.905  33.796  1.00  0.00     0.156 HD
ENDBRANCH  20  21
ENDBRANCH   3  12
BRANCH   6  24
HETATM   24  C10 UNK     1      17.920   1.817  36.928  1.00  0.00     0.034 C 
HETATM   25  C17 UNK     1      17.439   0.532  37.599  1.00  0.00     0.010 C 
ENDBRANCH   6  24
TORSDOF 3
ENDMDL
MODEL 4
REMARK VINA RESULT:      -8.5      3.067      4.885
REMARK  3 active torsions:
REMARK  status: ('A' for Active; 'I' for Inactive)
REMARK    1  A    between atoms: C4_8  and  N1_4 
REMARK    2  A    between atoms: C1_5  and  C3_7 
REMARK    3  A    between atoms: C10_14  and  C7_11 
ROOT
HETATM    1  O2  UNK     1      18.529   3.845  28.994  1.00  0.00    -0.275 OA
HETATM    2  O3  UNK     1      18.008   1.921  27.876  1.00  0.00    -0.260 OA
HETATM    3  C1  UNK     1      18.338   2.369  31.415  1.00  0.00     0.019 A 
HETATM    4  C2  UNK     1      18.675   3.803  31.428  1.00  0.00     0.012 A 
HETATM    5  C6  UNK     1      18.759   4.494  30.221  1.00  0.00     0.090 A 
HETATM    6  C7  UNK     1      19.234   5.879  32.568  1.00  0.00    -0.058 A 
HETATM    7  C8  UNK     1      18.918   4.516  32.611  1.00  0.00     0.022 A 
HETATM    8  C11 UNK     1      18.124   1.781  30.225  1.00  0.00     0.098 A 
HETATM    9  C12 UNK     1      19.074   5.853  30.164  1.00  0.00     0.039 A 
HETATM   10  C13 UNK     1      19.312   6.545  31.346  1.00  0.00     0.010 A 
HETATM   11  C16 UNK     1      18.211   2.498  28.939  1.00  0.00     0.289 A 
ENDROOT
BRANCH   3  12
HETATM   12  C3  UNK     1      18.217   1.542  32.551  1.00  0.00     0.114 A 
HETATM   13  O1  UNK     1      17.381   1.858  33.578  1.00  0.00    -0.307 OA
HETATM   14  C9  UNK     1      17.497   0.869  34.509  1.00  0.00     0.088 A 
HETATM   15  C15 UNK     1      16.809   0.807  35.719  1.00  0.00     0.038 A 
HETATM   16  C5  UNK     1      18.411  -0.089  34.080  1.00  0.00     0.027 A 
HETATM   17  C19 UNK     1      17.078  -0.299  36.530  1.00  0.00     0.003 A 
HETATM   18  C18 UNK     1      17.989  -1.283  36.136  1.00  0.00     0.001 A 
HETATM   19  C14 UNK     1      18.665  -1.193  34.912  1.00  0.00     0.017 A 
HETATM   20  C4  UNK     1      18.870   0.356  32.813  1.00  0.00     0.074 A 
BRANCH  20  21
HETATM   21  N1  UNK     1      19.773  -0.264  32.021  1.00  0.00    -0.396 N 
HETATM   22  H12 UNK     1      19.959  -1.261  32.084  1.00  0.00     0.156 HD
HETATM   23  H13 UNK     1      20.318   0.227  31.320  1.00  0.00     0.156 HD
ENDBRANCH  20  21
ENDBRANCH   3  12
BRANCH   6  24
HETATM   24  C10 UNK     1      19.489   6.621  33.837  1.00  0.00     0.034 C 
HETATM   25  C17 UNK     1      19.005   8.068  33.770  1.00  0.00     0.010 C 
ENDBRANCH   6  24
TORSDOF 3
ENDMDL
MODEL 5
REMARK VINA RESULT:      -8.4      3.158      5.273
REMARK  3 active torsions:
REMARK  status: ('A' for Active; 'I' for Inactive)
REMARK    1  A    between atoms: C4_8  and  N1_4 
REMARK    2  A    between atoms: C1_5  and  C3_7 
REMARK    3  A    between atoms: C10_14  and  C7_11 
ROOT
HETATM    1  O2  UNK     1      18.762   6.264  32.155  1.00  0.00    -0.275 OA
HETATM    2  O3  UNK     1      18.676   7.265  34.208  1.00  0.00    -0.260 OA
HETATM    3  C1  UNK     1      18.330   3.779  33.464  1.00  0.00     0.019 A 
HETATM    4  C2  UNK     1      18.485   3.846  32.000  1.00  0.00     0.012 A 
HETATM    5  C6  UNK     1      18.696   5.083  31.394  1.00  0.00     0.090 A 
HETATM    6  C7  UNK     1      18.584   2.831  29.790  1.00  0.00    -0.058 A 
HETATM    7  C8  UNK     1      18.431   2.712  31.176  1.00  0.00     0.022 A 
HETATM    8  C11 UNK     1      18.399   4.926  34.160  1.00  0.00     0.098 A 
HETATM    9  C12 UNK     1      18.850   5.216  30.012  1.00  0.00     0.039 A 
HETATM   10  C13 UNK     1      18.794   4.081  29.210  1.00  0.00     0.010 A 
HETATM   11  C16 UNK     1      18.620   6.243  33.533  1.00  0.00     0.289 A 
ENDROOT
BRANCH   3  12
HETATM   12  C3  UNK     1      18.113   2.604  34.214  1.00  0.00     0.114 A 
HETATM   13  O1  UNK     1      17.201   1.670  33.829  1.00  0.00    -0.307 OA
HETATM   14  C9  UNK     1      17.234   0.671  34.756  1.00  0.00     0.088 A 
HETATM   15  C15 UNK     1      16.452  -0.482  34.737  1.00  0.00     0.038 A 
HETATM   16  C5  UNK     1      18.170   0.963  35.743  1.00  0.00     0.027 A 
HETATM   17  C19 UNK     1      16.644  -1.381  35.790  1.00  0.00     0.003 A 
HETATM   18  C18 UNK     1      17.575  -1.124  36.801  1.00  0.00     0.001 A 
HETATM   19  C14 UNK     1      18.348   0.044  36.792  1.00  0.00     0.017 A 
HETATM   20  C4  UNK     1      18.734   2.215  35.383  1.00  0.00     0.074 A 
BRANCH  20  21
HETATM   21  N1  UNK     1      19.690   2.891  36.057  1.00  0.00    -0.396 N 
HETATM   22  H12 UNK     1      19.742   2.896  37.071  1.00  0.00     0.156 HD
HETATM   23  H13 UNK     1      20.411   3.434  35.591  1.00  0.00     0.156 HD
ENDBRANCH  20  21
ENDBRANCH   3  12
BRANCH   6  24
HETATM   24  C10 UNK     1      18.524   1.613  28.930  1.00  0.00     0.034 C 
HETATM   25  C17 UNK     1      19.601   0.594  29.292  1.00  0.00     0.010 C 
ENDBRANCH   6  24
TORSDOF 3
ENDMDL
MODEL 6
REMARK VINA RESULT:      -8.2      3.248      4.994
REMARK  3 active torsions:
REMARK  status: ('A' for Active; 'I' for Inactive)
REMARK    1  A    between atoms: C4_8  and  N1_4 
REMARK    2  A    between atoms: C1_5  and  C3_7 
REMARK    3  A    between atoms: C10_14  and  C7_11 
ROOT
HETATM    1  O2  UNK     1      18.883   3.703  29.703  1.00  0.00    -0.275 OA
HETATM    2  O3  UNK     1      19.233   1.517  29.135  1.00  0.00    -0.260 OA
HETATM    3  C1  UNK     1      18.304   2.817  32.341  1.00  0.00     0.019 A 
HETATM    4  C2  UNK     1      18.256   4.248  31.996  1.00  0.00     0.012 A 
HETATM    5  C6  UNK     1      18.546   4.645  30.693  1.00  0.00     0.090 A 
HETATM    6  C7  UNK     1      17.897   6.591  32.548  1.00  0.00    -0.058 A 
HETATM    7  C8  UNK     1      17.928   5.244  32.927  1.00  0.00     0.022 A 
HETATM    8  C11 UNK     1      18.629   1.944  31.372  1.00  0.00     0.098 A 
HETATM    9  C12 UNK     1      18.519   5.985  30.301  1.00  0.00     0.039 A 
HETATM   10  C13 UNK     1      18.192   6.960  31.237  1.00  0.00     0.010 A 
HETATM   11  C16 UNK     1      18.940   2.348  29.988  1.00  0.00     0.289 A 
ENDROOT
BRANCH   3  12
HETATM   12  C3  UNK     1      18.036   2.268  33.612  1.00  0.00     0.114 A 
HETATM   13  O1  UNK     1      17.160   1.239  33.776  1.00  0.00    -0.307 OA
HETATM   14  C9  UNK     1      17.128   0.947  35.107  1.00  0.00     0.088 A 
HETATM   15  C15 UNK     1      16.355  -0.048  35.702  1.00  0.00     0.038 A 
HETATM   16  C5  UNK     1      17.986   1.792  35.804  1.00  0.00     0.027 A 
HETATM   17  C19 UNK     1      16.472  -0.178  37.089  1.00  0.00     0.003 A 
HETATM   18  C18 UNK     1      17.323   0.650  37.826  1.00  0.00     0.001 A 
HETATM   19  C14 UNK     1      18.088   1.642  37.199  1.00  0.00     0.017 A 
HETATM   20  C4  UNK     1      18.569   2.642  34.829  1.00  0.00     0.074 A 
BRANCH  20  21
HETATM   21  N1  UNK     1      19.468   3.625  35.052  1.00  0.00    -0.396 N 
HETATM   22  H12 UNK     1      19.721   4.304  34.341  1.00  0.00     0.156 HD
HETATM   23  H13 UNK     1      19.944   3.743  35.941  1.00  0.00     0.156 HD
ENDBRANCH  20  21
ENDBRANCH   3  12
BRANCH   6  24
HETATM   24  C10 UNK     1      17.546   7.637  33.553  1.00  0.00     0.034 C 
HETATM   25  C17 UNK     1      16.713   7.078  34.704  1.00  0.00     0.010 C 
ENDBRANCH   6  24
TORSDOF 3
ENDMDL
MODEL 7
REMARK VINA RESULT:      -8.2      2.361      4.121
REMARK  3 active torsions:
REMARK  status: ('A' for Active; 'I' for Inactive)
REMARK    1  A    between atoms: C4_8  and  N1_4 
REMARK    2  A    between atoms: C1_5  and  C3_7 
REMARK    3  A    between atoms: C10_14  and  C7_11 
ROOT
HETATM    1  O2  UNK     1      19.059   2.407  29.465  1.00  0.00    -0.275 OA
HETATM    2  O3  UNK     1      18.137   4.436  29.972  1.00  0.00    -0.260 OA
HETATM    3  C1  UNK     1      18.599   1.640  32.163  1.00  0.00     0.019 A 
HETATM    4  C2  UNK     1      19.224   0.709  31.208  1.00  0.00     0.012 A 
HETATM    5  C6  UNK     1      19.433   1.120  29.893  1.00  0.00     0.090 A 
HETATM    6  C7  UNK     1      20.212  -1.434  30.614  1.00  0.00    -0.058 A 
HETATM    7  C8  UNK     1      19.623  -0.588  31.561  1.00  0.00     0.022 A 
HETATM    8  C11 UNK     1      18.254   2.861  31.720  1.00  0.00     0.098 A 
HETATM    9  C12 UNK     1      20.020   0.286  28.939  1.00  0.00     0.039 A 
HETATM   10  C13 UNK     1      20.410  -0.997  29.306  1.00  0.00     0.010 A 
HETATM   11  C16 UNK     1      18.468   3.312  30.332  1.00  0.00     0.289 A 
ENDROOT
BRANCH   3  12
HETATM   12  C3  UNK     1      18.325   1.366  33.519  1.00  0.00     0.114 A 
HETATM   13  O1  UNK     1      17.960   0.123  33.936  1.00  0.00    -0.307 OA
HETATM   14  C9  UNK     1      17.771   0.192  35.284  1.00  0.00     0.088 A 
HETATM   15  C15 UNK     1      17.389  -0.867  36.106  1.00  0.00     0.038 A 
HETATM   16  C5  UNK     1      18.014   1.484  35.738  1.00  0.00     0.027 A 
HETATM   17  C19 UNK     1      17.249  -0.577  37.467  1.00  0.00     0.003 A 
HETATM   18  C18 UNK     1      17.485   0.709  37.962  1.00  0.00     0.001 A 
HETATM   19  C14 UNK     1      17.868   1.752  37.110  1.00  0.00     0.017 A 
HETATM   20  C4  UNK     1      18.373   2.236  34.588  1.00  0.00     0.074 A 
BRANCH  20  21
HETATM   21  N1  UNK     1      18.695   3.548  34.553  1.00  0.00    -0.396 N 
HETATM   22  H12 UNK     1      18.000   4.282  34.648  1.00  0.00     0.156 HD
HETATM   23  H13 UNK     1      19.647   3.877  34.428  1.00  0.00     0.156 HD
ENDBRANCH  20  21
ENDBRANCH   3  12
BRANCH   6  24
HETATM   24  C10 UNK     1      20.631  -2.811  31.009  1.00  0.00     0.034 C 
HETATM   25  C17 UNK     1      20.994  -2.905  32.489  1.00  0.00     0.010 C 
ENDBRANCH   6  24
TORSDOF 3
ENDMDL
MODEL 8
REMARK VINA RESULT:      -8.0      4.232      6.428
REMARK  3 active torsions:
REMARK  status: ('A' for Active; 'I' for Inactive)
REMARK    1  A    between atoms: C4_8  and  N1_4 
REMARK    2  A    between atoms: C1_5  and  C3_7 
REMARK    3  A    between atoms: C10_14  and  C7_11 
ROOT
HETATM    1  O2  UNK     1      19.702  -1.292  33.194  1.00  0.00    -0.275 OA
HETATM    2  O3  UNK     1      20.846  -2.756  31.863  1.00  0.00    -0.260 OA
HETATM    3  C1  UNK     1      20.013  -3.148  35.325  1.00  0.00     0.019 A 
HETATM    4  C2  UNK     1      19.303  -1.873  35.530  1.00  0.00     0.012 A 
HETATM    5  C6  UNK     1      19.170  -0.988  34.461  1.00  0.00     0.090 A 
HETATM    6  C7  UNK     1      18.081  -0.278  36.903  1.00  0.00    -0.058 A 
HETATM    7  C8  UNK     1      18.746  -1.501  36.762  1.00  0.00     0.022 A 
HETATM    8  C11 UNK     1      20.508  -3.405  34.103  1.00  0.00     0.098 A 
HETATM    9  C12 UNK     1      18.509   0.235  34.588  1.00  0.00     0.039 A 
HETATM   10  C13 UNK     1      17.963   0.588  35.817  1.00  0.00     0.010 A 
HETATM   11  C16 UNK     1      20.377  -2.480  32.962  1.00  0.00     0.289 A 
ENDROOT
BRANCH   3  12
HETATM   12  C3  UNK     1      20.224  -4.137  36.307  1.00  0.00     0.114 A 
HETATM   13  O1  UNK     1      21.443  -4.321  36.885  1.00  0.00    -0.307 OA
HETATM   14  C9  UNK     1      21.314  -5.340  37.780  1.00  0.00     0.088 A 
HETATM   15  C15 UNK     1      22.330  -5.847  38.587  1.00  0.00     0.038 A 
HETATM   16  C5  UNK     1      20.006  -5.816  37.780  1.00  0.00     0.027 A 
HETATM   17  C19 UNK     1      21.981  -6.900  39.438  1.00  0.00     0.003 A 
HETATM   18  C18 UNK     1      20.679  -7.406  39.468  1.00  0.00     0.001 A 
HETATM   19  C14 UNK     1      19.678  -6.875  38.645  1.00  0.00     0.017 A 
HETATM   20  C4  UNK     1      19.310  -5.031  36.825  1.00  0.00     0.074 A 
BRANCH  20  21
HETATM   21  N1  UNK     1      18.005  -5.142  36.489  1.00  0.00    -0.396 N 
HETATM   22  H12 UNK     1      17.689  -5.721  35.717  1.00  0.00     0.156 HD
HETATM   23  H13 UNK     1      17.267  -4.653  36.985  1.00  0.00     0.156 HD
ENDBRANCH  20  21
ENDBRANCH   3  12
BRANCH   6  24
HETATM   24  C10 UNK     1      17.495   0.100  38.222  1.00  0.00     0.034 C 
HETATM   25  C17 UNK     1      17.513   1.608  38.453  1.00  0.00     0.010 C 
ENDBRANCH   6  24
TORSDOF 3
ENDMDL
MODEL 9
REMARK VINA RESULT:      -8.0      4.977      7.126
REMARK  3 active torsions:
REMARK  status: ('A' for Active; 'I' for Inactive)
REMARK    1  A    between atoms: C4_8  and  N1_4 
REMARK    2  A    between atoms: C1_5  and  C3_7 
REMARK    3  A    between atoms: C10_14  and  C7_11 
ROOT
HETATM    1  O2  UNK     1      21.994  -6.844  37.897  1.00  0.00    -0.275 OA
HETATM    2  O3  UNK     1      23.513  -5.425  38.847  1.00  0.00    -0.260 OA
HETATM    3  C1  UNK     1      20.468  -4.559  37.171  1.00  0.00     0.019 A 
HETATM    4  C2  UNK     1      20.009  -5.916  36.826  1.00  0.00     0.012 A 
HETATM    5  C6  UNK     1      20.784  -7.012  37.199  1.00  0.00     0.090 A 
HETATM    6  C7  UNK     1      18.425  -7.471  35.829  1.00  0.00    -0.058 A 
HETATM    7  C8  UNK     1      18.815  -6.162  36.132  1.00  0.00     0.022 A 
HETATM    8  C11 UNK     1      21.628  -4.435  37.838  1.00  0.00     0.098 A 
HETATM    9  C12 UNK     1      20.406  -8.323  36.903  1.00  0.00     0.039 A 
HETATM   10  C13 UNK     1      19.219  -8.549  36.214  1.00  0.00     0.010 A 
HETATM   11  C16 UNK     1      22.460  -5.585  38.239  1.00  0.00     0.289 A 
ENDROOT
BRANCH   3  12
HETATM   12  C3  UNK     1      19.793  -3.360  36.861  1.00  0.00     0.114 A 
HETATM   13  O1  UNK     1      19.123  -2.652  37.812  1.00  0.00    -0.307 OA
HETATM   14  C9  UNK     1      18.589  -1.560  37.196  1.00  0.00     0.088 A 
HETATM   15  C15 UNK     1      17.824  -0.572  37.813  1.00  0.00     0.038 A 
HETATM   16  C5  UNK     1      18.915  -1.563  35.843  1.00  0.00     0.027 A 
HETATM   17  C19 UNK     1      17.371   0.466  36.993  1.00  0.00     0.003 A 
HETATM   18  C18 UNK     1      17.678   0.499  35.629  1.00  0.00     0.001 A 
HETATM   19  C14 UNK     1      18.449  -0.509  35.038  1.00  0.00     0.017 A 
HETATM   20  C4  UNK     1      19.695  -2.731  35.638  1.00  0.00     0.074 A 
BRANCH  20  21
HETATM   21  N1  UNK     1      20.232  -3.145  34.468  1.00  0.00    -0.396 N 
HETATM   22  H12 UNK     1      19.759  -3.799  33.852  1.00  0.00     0.156 HD
HETATM   23  H13 UNK     1      21.139  -2.828  34.138  1.00  0.00     0.156 HD
ENDBRANCH  20  21
ENDBRANCH   3  12
BRANCH   6  24
HETATM   24  C10 UNK     1      17.151  -7.712  35.090  1.00  0.00     0.034 C 
HETATM   25  C17 UNK     1      16.037  -6.767  35.532  1.00  0.00     0.010 C 
ENDBRANCH   6  24
TORSDOF 3
ENDMDL
MODEL 10
REMARK VINA RESULT:      -8.0      9.785     12.337
REMARK  3 active torsions:
REMARK  status: ('A' for Active; 'I' for Inactive)
REMARK    1  A    between atoms: C4_8  and  N1_4 
REMARK    2  A    between atoms: C1_5  and  C3_7 
REMARK    3  A    between atoms: C10_14  and  C7_11 
ROOT
HETATM    1  O2  UNK     1      22.867 -11.633  35.715  1.00  0.00    -0.275 OA
HETATM    2  O3  UNK     1      24.588 -13.032  35.166  1.00  0.00    -0.260 OA
HETATM    3  C1  UNK     1      24.804  -9.814  36.724  1.00  0.00     0.019 A 
HETATM    4  C2  UNK     1      23.367  -9.494  36.775  1.00  0.00     0.012 A 
HETATM    5  C6  UNK     1      22.447 -10.410  36.271  1.00  0.00     0.090 A 
HETATM    6  C7  UNK     1      21.498  -8.041  37.338  1.00  0.00    -0.058 A 
HETATM    7  C8  UNK     1      22.873  -8.297  37.313  1.00  0.00     0.022 A 
HETATM    8  C11 UNK     1      25.170 -10.990  36.187  1.00  0.00     0.098 A 
HETATM    9  C12 UNK     1      21.072 -10.168  36.289  1.00  0.00     0.039 A 
HETATM   10  C13 UNK     1      20.599  -8.976  36.827  1.00  0.00     0.010 A 
HETATM   11  C16 UNK     1      24.209 -11.971  35.648  1.00  0.00     0.289 A 
ENDROOT
BRANCH   3  12
HETATM   12  C3  UNK     1      25.847  -8.989  37.193  1.00  0.00     0.114 A 
HETATM   13  O1  UNK     1      26.623  -8.265  36.341  1.00  0.00    -0.307 OA
HETATM   14  C9  UNK     1      27.526  -7.584  37.100  1.00  0.00     0.088 A 
HETATM   15  C15 UNK     1      28.509  -6.722  36.618  1.00  0.00     0.038 A 
HETATM   16  C5  UNK     1      27.332  -7.869  38.448  1.00  0.00     0.027 A 
HETATM   17  C19 UNK     1      29.335  -6.123  37.574  1.00  0.00     0.003 A 
HETATM   18  C18 UNK     1      29.172  -6.384  38.937  1.00  0.00     0.001 A 
HETATM   19  C14 UNK     1      28.175  -7.256  39.392  1.00  0.00     0.017 A 
HETATM   20  C4  UNK     1      26.244  -8.779  38.498  1.00  0.00     0.074 A 
BRANCH  20  21
HETATM   21  N1  UNK     1      25.705  -9.330  39.608  1.00  0.00    -0.396 N 
HETATM   22  H12 UNK     1      24.809  -9.809  39.599  1.00  0.00     0.156 HD
HETATM   23  H13 UNK     1      26.161  -9.297  40.514  1.00  0.00     0.156 HD
ENDBRANCH  20  21
ENDBRANCH   3  12
BRANCH   6  24
HETATM   24  C10 UNK     1      20.991  -6.762  37.915  1.00  0.00     0.034 C 
HETATM   25  C17 UNK     1      20.251  -6.973  39.233  1.00  0.00     0.010 C 
ENDBRANCH   6  24
TORSDOF 3
ENDMDL
