MODEL 1
REMARK VINA RESULT:      -9.6      0.000      0.000
REMARK  4 active torsions:
REMARK  status: ('A' for Active; 'I' for Inactive)
REMARK       I    between atoms: C10_20  and  N1_9 
REMARK    1  A    between atoms: C3_13  and  N1_9 
REMARK       I    between atoms: C13_23  and  N2_10 
REMARK    2  A    between atoms: C1_11  and  C4_14 
REMARK    3  A    between atoms: C13_23  and  C2_12 
REMARK    4  A    between atoms: C10_20  and  C6_16 
ROOT
HETATM    1  S1  UNK     1      18.014  -0.680  37.222  1.00  0.00    -0.082 SA
HETATM    2  C1  UNK     1      19.484  -2.767  36.940  1.00  0.00     0.001 A 
HETATM    3  C2  UNK     1      19.745  -1.945  35.806  1.00  0.00     0.077 A 
HETATM    4  C3  UNK     1      19.012  -0.802  35.852  1.00  0.00     0.093 A 
HETATM    5  C5  UNK     1      18.562  -2.199  37.791  1.00  0.00     0.065 A 
ENDROOT
BRANCH   4   6
HETATM    6  N1  UNK     1      18.954   0.274  34.961  1.00  0.00    -0.316 N 
HETATM    7  C10 UNK     1      17.832   0.698  34.263  1.00  0.00     0.262 C 
HETATM    8  O2  UNK     1      16.695   0.231  34.282  1.00  0.00    -0.267 OA
HETATM    9  H2  UNK     1      19.840   0.752  34.826  1.00  0.00     0.169 HD
BRANCH   7  10
HETATM   10  C6  UNK     1      18.124   1.859  33.412  1.00  0.00     0.108 A 
HETATM   11  C14 UNK     1      18.460   1.716  31.978  1.00  0.00     0.304 A 
HETATM   12  O1  UNK     1      18.719   2.890  31.277  1.00  0.00    -0.274 OA
HETATM   13  O4  UNK     1      18.511   0.620  31.429  1.00  0.00    -0.259 OA
HETATM   14  C9  UNK     1      18.663   4.154  31.897  1.00  0.00     0.089 A 
HETATM   15  C16 UNK     1      18.936   5.273  31.113  1.00  0.00     0.039 A 
HETATM   16  C7  UNK     1      18.345   4.265  33.248  1.00  0.00     0.000 A 
HETATM   17  C21 UNK     1      18.889   6.536  31.699  1.00  0.00     0.022 A 
HETATM   18  C19 UNK     1      18.571   6.668  33.053  1.00  0.00     0.011 A 
HETATM   19 Br1  UNK     1      18.511   8.385  33.841  1.00  0.00    -0.051 Br
HETATM   20  C15 UNK     1      18.300   5.536  33.827  1.00  0.00     0.033 A 
HETATM   21  C8  UNK     1      18.070   3.056  34.007  1.00  0.00     0.037 A 
ENDBRANCH   7  10
ENDBRANCH   4   6
BRANCH   3  22
HETATM   22  C13 UNK     1      20.658  -2.257  34.735  1.00  0.00     0.253 C 
HETATM   23  O3  UNK     1      21.887  -2.076  34.815  1.00  0.00    -0.268 OA
HETATM   24  N2  UNK     1      20.121  -2.807  33.574  1.00  0.00    -0.366 N 
HETATM   25  H10 UNK     1      19.125  -2.979  33.470  1.00  0.00     0.159 HD
HETATM   26  H11 UNK     1      20.714  -3.054  32.790  1.00  0.00     0.159 HD
ENDBRANCH   3  22
BRANCH   2  27
HETATM   27  C4  UNK     1      20.062  -4.050  37.249  1.00  0.00    -0.003 A 
HETATM   28  C11 UNK     1      19.356  -5.239  37.064  1.00  0.00     0.046 A 
HETATM   29 Cl1  UNK     1      17.739  -5.258  36.448  1.00  0.00    -0.083 Cl
HETATM   30  C17 UNK     1      19.952  -6.460  37.377  1.00  0.00     0.048 A 
HETATM   31  C20 UNK     1      21.255  -6.493  37.875  1.00  0.00     0.035 A 
HETATM   32  C18 UNK     1      21.961  -5.304  38.060  1.00  0.00     0.025 A 
HETATM   33 Cl2  UNK     1      21.992  -7.999  38.260  1.00  0.00    -0.084 Cl
HETATM   34  C12 UNK     1      21.364  -4.083  37.748  1.00  0.00     0.016 A 
ENDBRANCH   2  27
TORSDOF 4
ENDMDL
MODEL 2
REMARK VINA RESULT:      -9.4      8.001     10.954
REMARK  4 active torsions:
REMARK  status: ('A' for Active; 'I' for Inactive)
REMARK       I    between atoms: C10_20  and  N1_9 
REMARK    1  A    between atoms: C3_13  and  N1_9 
REMARK       I    between atoms: C13_23  and  N2_10 
REMARK    2  A    between atoms: C1_11  and  C4_14 
REMARK    3  A    between atoms: C13_23  and  C2_12 
REMARK    4  A    between atoms: C10_20  and  C6_16 
ROOT
HETATM    1  S1  UNK     1      19.618   8.461  34.144  1.00  0.00    -0.082 SA
HETATM    2  C1  UNK     1      18.730   6.711  32.487  1.00  0.00     0.001 A 
HETATM    3  C2  UNK     1      17.745   7.739  32.540  1.00  0.00     0.077 A 
HETATM    4  C3  UNK     1      18.115   8.727  33.396  1.00  0.00     0.093 A 
HETATM    5  C5  UNK     1      19.801   6.977  33.311  1.00  0.00     0.065 A 
ENDROOT
BRANCH   4   6
HETATM    6  N1  UNK     1      17.462   9.911  33.751  1.00  0.00    -0.316 N 
HETATM    7  C10 UNK     1      16.418  10.029  34.657  1.00  0.00     0.262 C 
HETATM    8  O2  UNK     1      15.868   9.148  35.313  1.00  0.00    -0.267 OA
HETATM    9  H2  UNK     1      17.801  10.736  33.264  1.00  0.00     0.169 HD
BRANCH   7  10
HETATM   10  C6  UNK     1      15.966  11.420  34.792  1.00  0.00     0.108 A 
HETATM   11  C14 UNK     1      16.919  12.548  34.904  1.00  0.00     0.304 A 
HETATM   12  O1  UNK     1      16.369  13.820  35.029  1.00  0.00    -0.274 OA
HETATM   13  O4  UNK     1      18.133  12.375  34.890  1.00  0.00    -0.259 OA
HETATM   14  C9  UNK     1      14.977  14.030  35.047  1.00  0.00     0.089 A 
HETATM   15  C16 UNK     1      14.520  15.340  35.174  1.00  0.00     0.039 A 
HETATM   16  C7  UNK     1      14.098  12.955  34.940  1.00  0.00     0.000 A 
HETATM   17  C21 UNK     1      13.147  15.579  35.195  1.00  0.00     0.022 A 
HETATM   18  C19 UNK     1      12.251  14.513  35.089  1.00  0.00     0.011 A 
HETATM   19 Br1  UNK     1      10.390  14.844  35.119  1.00  0.00    -0.051 Br
HETATM   20  C15 UNK     1      12.724  13.204  34.962  1.00  0.00     0.033 A 
HETATM   21  C8  UNK     1      14.642  11.613  34.809  1.00  0.00     0.037 A 
ENDBRANCH   7  10
ENDBRANCH   4   6
BRANCH   3  22
HETATM   22  C13 UNK     1      16.510   7.757  31.797  1.00  0.00     0.253 C 
HETATM   23  O3  UNK     1      16.329   8.475  30.796  1.00  0.00    -0.268 OA
HETATM   24  N2  UNK     1      15.492   6.909  32.226  1.00  0.00    -0.366 N 
HETATM   25  H10 UNK     1      15.600   6.302  33.033  1.00  0.00     0.159 HD
HETATM   26  H11 UNK     1      14.603   6.873  31.739  1.00  0.00     0.159 HD
ENDBRANCH   3  22
BRANCH   2  27
HETATM   27  C4  UNK     1      18.701   5.504  31.701  1.00  0.00    -0.003 A 
HETATM   28  C11 UNK     1      18.386   4.267  32.264  1.00  0.00     0.046 A 
HETATM   29 Cl1  UNK     1      18.006   4.094  33.943  1.00  0.00    -0.083 Cl
HETATM   30  C17 UNK     1      18.370   3.122  31.468  1.00  0.00     0.048 A 
HETATM   31  C20 UNK     1      18.669   3.214  30.108  1.00  0.00     0.035 A 
HETATM   32  C18 UNK     1      18.985   4.451  29.546  1.00  0.00     0.025 A 
HETATM   33 Cl2  UNK     1      18.649   1.803  29.124  1.00  0.00    -0.084 Cl
HETATM   34  C12 UNK     1      19.000   5.596  30.342  1.00  0.00     0.016 A 
ENDBRANCH   2  27
TORSDOF 4
ENDMDL
MODEL 3
REMARK VINA RESULT:      -9.3      6.574     11.508
REMARK  4 active torsions:
REMARK  status: ('A' for Active; 'I' for Inactive)
REMARK       I    between atoms: C10_20  and  N1_9 
REMARK    1  A    between atoms: C3_13  and  N1_9 
REMARK       I    between atoms: C13_23  and  N2_10 
REMARK    2  A    between atoms: C1_11  and  C4_14 
REMARK    3  A    between atoms: C13_23  and  C2_12 
REMARK    4  A    between atoms: C10_20  and  C6_16 
ROOT
HETATM    1  S1  UNK     1      15.460   7.632  31.566  1.00  0.00    -0.082 SA
HETATM    2  C1  UNK     1      15.953   9.212  33.531  1.00  0.00     0.001 A 
HETATM    3  C2  UNK     1      16.619   7.989  33.832  1.00  0.00     0.077 A 
HETATM    4  C3  UNK     1      16.422   7.071  32.850  1.00  0.00     0.093 A 
HETATM    5  C5  UNK     1      15.285   9.155  32.328  1.00  0.00     0.065 A 
ENDROOT
BRANCH   4   6
HETATM    6  N1  UNK     1      16.884   5.756  32.732  1.00  0.00    -0.316 N 
HETATM    7  C10 UNK     1      18.160   5.370  32.343  1.00  0.00     0.262 C 
HETATM    8  O2  UNK     1      19.115   6.078  32.032  1.00  0.00    -0.267 OA
HETATM    9  H2  UNK     1      16.187   5.048  32.942  1.00  0.00     0.169 HD
BRANCH   7  10
HETATM   10  C6  UNK     1      18.306   3.909  32.326  1.00  0.00     0.108 A 
HETATM   11  C14 UNK     1      18.569   3.161  31.075  1.00  0.00     0.304 A 
HETATM   12  O1  UNK     1      18.686   1.779  31.187  1.00  0.00    -0.274 OA
HETATM   13  O4  UNK     1      18.677   3.726  29.992  1.00  0.00    -0.259 OA
HETATM   14  C9  UNK     1      18.562   1.120  32.425  1.00  0.00     0.089 A 
HETATM   15  C16 UNK     1      18.696  -0.267  32.437  1.00  0.00     0.039 A 
HETATM   16  C7  UNK     1      18.315   1.842  33.589  1.00  0.00     0.000 A 
HETATM   17  C21 UNK     1      18.579  -0.947  33.648  1.00  0.00     0.022 A 
HETATM   18  C19 UNK     1      18.331  -0.239  34.826  1.00  0.00     0.011 A 
HETATM   19 Br1  UNK     1      18.171  -1.168  36.465  1.00  0.00    -0.051 Br
HETATM   20  C15 UNK     1      18.198   1.152  34.799  1.00  0.00     0.033 A 
HETATM   21  C8  UNK     1      18.187   3.288  33.505  1.00  0.00     0.037 A 
ENDBRANCH   7  10
ENDBRANCH   4   6
BRANCH   3  22
HETATM   22  C13 UNK     1      17.402   7.728  35.014  1.00  0.00     0.253 C 
HETATM   23  O3  UNK     1      18.644   7.816  35.040  1.00  0.00    -0.268 OA
HETATM   24  N2  UNK     1      16.715   7.384  36.175  1.00  0.00    -0.366 N 
HETATM   25  H10 UNK     1      15.703   7.307  36.200  1.00  0.00     0.159 HD
HETATM   26  H11 UNK     1      17.212   7.196  37.039  1.00  0.00     0.159 HD
ENDBRANCH   3  22
BRANCH   2  27
HETATM   27  C4  UNK     1      15.923  10.415  34.322  1.00  0.00    -0.003 A 
HETATM   28  C11 UNK     1      17.026  11.265  34.413  1.00  0.00     0.046 A 
HETATM   29 Cl1  UNK     1      18.507  10.935  33.582  1.00  0.00    -0.083 Cl
HETATM   30  C17 UNK     1      16.954  12.420  35.191  1.00  0.00     0.048 A 
HETATM   31  C20 UNK     1      15.779  12.726  35.878  1.00  0.00     0.035 A 
HETATM   32  C18 UNK     1      14.676  11.877  35.787  1.00  0.00     0.025 A 
HETATM   33 Cl2  UNK     1      15.689  14.152  36.837  1.00  0.00    -0.084 Cl
HETATM   34  C12 UNK     1      14.748  10.722  35.009  1.00  0.00     0.016 A 
ENDBRANCH   2  27
TORSDOF 4
ENDMDL
MODEL 4
REMARK VINA RESULT:      -9.2      7.938     10.822
REMARK  4 active torsions:
REMARK  status: ('A' for Active; 'I' for Inactive)
REMARK       I    between atoms: C10_20  and  N1_9 
REMARK    1  A    between atoms: C3_13  and  N1_9 
REMARK       I    between atoms: C13_23  and  N2_10 
REMARK    2  A    between atoms: C1_11  and  C4_14 
REMARK    3  A    between atoms: C13_23  and  C2_12 
REMARK    4  A    between atoms: C10_20  and  C6_16 
ROOT
HETATM    1  S1  UNK     1      19.791   8.343  34.112  1.00  0.00    -0.082 SA
HETATM    2  C1  UNK     1      18.809   6.637  32.460  1.00  0.00     0.001 A 
HETATM    3  C2  UNK     1      17.844   7.679  32.571  1.00  0.00     0.077 A 
HETATM    4  C3  UNK     1      18.264   8.645  33.429  1.00  0.00     0.093 A 
HETATM    5  C5  UNK     1      19.916   6.872  33.245  1.00  0.00     0.065 A 
ENDROOT
BRANCH   4   6
HETATM    6  N1  UNK     1      17.645   9.833  33.831  1.00  0.00    -0.316 N 
HETATM    7  C10 UNK     1      16.462   9.936  34.551  1.00  0.00     0.262 C 
HETATM    8  O2  UNK     1      15.738   9.035  34.970  1.00  0.00    -0.267 OA
HETATM    9  H2  UNK     1      18.127  10.676  33.533  1.00  0.00     0.169 HD
BRANCH   7  10
HETATM   10  C6  UNK     1      16.096  11.335  34.803  1.00  0.00     0.108 A 
HETATM   11  C14 UNK     1      15.037  11.708  35.767  1.00  0.00     0.304 A 
HETATM   12  O1  UNK     1      14.779  13.068  35.917  1.00  0.00    -0.274 OA
HETATM   13  O4  UNK     1      14.412  10.865  36.403  1.00  0.00    -0.259 OA
HETATM   14  C9  UNK     1      15.489  14.044  35.191  1.00  0.00     0.089 A 
HETATM   15  C16 UNK     1      15.162  15.380  35.411  1.00  0.00     0.039 A 
HETATM   16  C7  UNK     1      16.482  13.671  34.289  1.00  0.00     0.000 A 
HETATM   17  C21 UNK     1      15.848  16.368  34.707  1.00  0.00     0.022 A 
HETATM   18  C19 UNK     1      16.846  16.013  33.798  1.00  0.00     0.011 A 
HETATM   19 Br1  UNK     1      17.772  17.359  32.845  1.00  0.00    -0.051 Br
HETATM   20  C15 UNK     1      17.164  14.668  33.588  1.00  0.00     0.033 A 
HETATM   21  C8  UNK     1      16.774  12.258  34.110  1.00  0.00     0.037 A 
ENDBRANCH   7  10
ENDBRANCH   4   6
BRANCH   3  22
HETATM   22  C13 UNK     1      16.580   7.731  31.879  1.00  0.00     0.253 C 
HETATM   23  O3  UNK     1      16.419   8.330  30.800  1.00  0.00    -0.268 OA
HETATM   24  N2  UNK     1      15.508   7.052  32.453  1.00  0.00    -0.366 N 
HETATM   25  H10 UNK     1      15.597   6.544  33.328  1.00  0.00     0.159 HD
HETATM   26  H11 UNK     1      14.596   7.046  32.008  1.00  0.00     0.159 HD
ENDBRANCH   3  22
BRANCH   2  27
HETATM   27  C4  UNK     1      18.729   5.446  31.655  1.00  0.00    -0.003 A 
HETATM   28  C11 UNK     1      18.368   4.213  32.199  1.00  0.00     0.046 A 
HETATM   29 Cl1  UNK     1      17.988   4.027  33.876  1.00  0.00    -0.083 Cl
HETATM   30  C17 UNK     1      18.304   3.083  31.383  1.00  0.00     0.048 A 
HETATM   31  C20 UNK     1      18.601   3.186  30.024  1.00  0.00     0.035 A 
HETATM   32  C18 UNK     1      18.962   4.419  29.480  1.00  0.00     0.025 A 
HETATM   33 Cl2  UNK     1      18.520   1.793  29.017  1.00  0.00    -0.084 Cl
HETATM   34  C12 UNK     1      19.026   5.548  30.296  1.00  0.00     0.016 A 
ENDBRANCH   2  27
TORSDOF 4
ENDMDL
MODEL 5
REMARK VINA RESULT:      -9.0      8.096     11.104
REMARK  4 active torsions:
REMARK  status: ('A' for Active; 'I' for Inactive)
REMARK       I    between atoms: C10_20  and  N1_9 
REMARK    1  A    between atoms: C3_13  and  N1_9 
REMARK       I    between atoms: C13_23  and  N2_10 
REMARK    2  A    between atoms: C1_11  and  C4_14 
REMARK    3  A    between atoms: C13_23  and  C2_12 
REMARK    4  A    between atoms: C10_20  and  C6_16 
ROOT
HETATM    1  S1  UNK     1      19.273   8.820  34.258  1.00  0.00    -0.082 SA
HETATM    2  C1  UNK     1      18.549   7.002  32.593  1.00  0.00     0.001 A 
HETATM    3  C2  UNK     1      17.499   7.964  32.607  1.00  0.00     0.077 A 
HETATM    4  C3  UNK     1      17.779   8.981  33.463  1.00  0.00     0.093 A 
HETATM    5  C5  UNK     1      19.576   7.344  33.445  1.00  0.00     0.065 A 
ENDROOT
BRANCH   4   6
HETATM    6  N1  UNK     1      17.040  10.124  33.786  1.00  0.00    -0.316 N 
HETATM    7  C10 UNK     1      15.824  10.150  34.453  1.00  0.00     0.262 C 
HETATM    8  O2  UNK     1      15.164   9.206  34.884  1.00  0.00    -0.267 OA
HETATM    9  H2  UNK     1      17.458  10.994  33.469  1.00  0.00     0.169 HD
BRANCH   7  10
HETATM   10  C6  UNK     1      15.325  11.520  34.627  1.00  0.00     0.108 A 
HETATM   11  C14 UNK     1      14.413  12.153  33.647  1.00  0.00     0.304 A 
HETATM   12  O1  UNK     1      14.011  13.458  33.920  1.00  0.00    -0.274 OA
HETATM   13  O4  UNK     1      14.030  11.564  32.642  1.00  0.00    -0.259 OA
HETATM   14  C9  UNK     1      14.445  14.144  35.071  1.00  0.00     0.089 A 
HETATM   15  C16 UNK     1      13.987  15.446  35.260  1.00  0.00     0.039 A 
HETATM   16  C7  UNK     1      15.302  13.529  35.980  1.00  0.00     0.000 A 
HETATM   17  C21 UNK     1      14.400  16.150  36.390  1.00  0.00     0.022 A 
HETATM   18  C19 UNK     1      15.259  15.550  37.313  1.00  0.00     0.011 A 
HETATM   19 Br1  UNK     1      15.816  16.511  38.842  1.00  0.00    -0.051 Br
HETATM   20  C15 UNK     1      15.711  14.242  37.109  1.00  0.00     0.033 A 
HETATM   21  C8  UNK     1      15.741  12.167  35.721  1.00  0.00     0.037 A 
ENDBRANCH   7  10
ENDBRANCH   4   6
BRANCH   3  22
HETATM   22  C13 UNK     1      16.287   7.896  31.829  1.00  0.00     0.253 C 
HETATM   23  O3  UNK     1      16.167   8.428  30.710  1.00  0.00    -0.268 OA
HETATM   24  N2  UNK     1      15.221   7.178  32.364  1.00  0.00    -0.366 N 
HETATM   25  H10 UNK     1      15.279   6.722  33.270  1.00  0.00     0.159 HD
HETATM   26  H11 UNK     1      14.346   7.088  31.859  1.00  0.00     0.159 HD
ENDBRANCH   3  22
BRANCH   2  27
HETATM   27  C4  UNK     1      18.621   5.789  31.820  1.00  0.00    -0.003 A 
HETATM   28  C11 UNK     1      18.334   4.542  32.378  1.00  0.00     0.046 A 
HETATM   29 Cl1  UNK     1      17.868   4.365  34.035  1.00  0.00    -0.083 Cl
HETATM   30  C17 UNK     1      18.417   3.392  31.594  1.00  0.00     0.048 A 
HETATM   31  C20 UNK     1      18.787   3.487  30.252  1.00  0.00     0.035 A 
HETATM   32  C18 UNK     1      19.075   4.734  29.695  1.00  0.00     0.025 A 
HETATM   33 Cl2  UNK     1      18.889   2.069  29.283  1.00  0.00    -0.084 Cl
HETATM   34  C12 UNK     1      18.991   5.884  30.479  1.00  0.00     0.016 A 
ENDBRANCH   2  27
TORSDOF 4
ENDMDL
MODEL 6
REMARK VINA RESULT:      -9.0     10.203     13.345
REMARK  4 active torsions:
REMARK  status: ('A' for Active; 'I' for Inactive)
REMARK       I    between atoms: C10_20  and  N1_9 
REMARK    1  A    between atoms: C3_13  and  N1_9 
REMARK       I    between atoms: C13_23  and  N2_10 
REMARK    2  A    between atoms: C1_11  and  C4_14 
REMARK    3  A    between atoms: C13_23  and  C2_12 
REMARK    4  A    between atoms: C10_20  and  C6_16 
ROOT
HETATM    1  S1  UNK     1      28.447  -9.325  35.739  1.00  0.00    -0.082 SA
HETATM    2  C1  UNK     1      30.564  -7.910  36.081  1.00  0.00     0.001 A 
HETATM    3  C2  UNK     1      29.512  -7.213  36.743  1.00  0.00     0.077 A 
HETATM    4  C3  UNK     1      28.334  -7.879  36.624  1.00  0.00     0.093 A 
HETATM    5  C5  UNK     1      30.123  -9.075  35.493  1.00  0.00     0.065 A 
ENDROOT
BRANCH   4   6
HETATM    6  N1  UNK     1      27.062  -7.564  37.111  1.00  0.00    -0.316 N 
HETATM    7  C10 UNK     1      26.586  -7.830  38.388  1.00  0.00     0.262 C 
HETATM    8  O2  UNK     1      27.164  -8.381  39.323  1.00  0.00    -0.267 OA
HETATM    9  H2  UNK     1      26.454  -7.116  36.432  1.00  0.00     0.169 HD
BRANCH   7  10
HETATM   10  C6  UNK     1      25.204  -7.365  38.564  1.00  0.00     0.108 A 
HETATM   11  C14 UNK     1      24.882  -5.944  38.826  1.00  0.00     0.304 A 
HETATM   12  O1  UNK     1      23.535  -5.627  38.977  1.00  0.00    -0.274 OA
HETATM   13  O4  UNK     1      25.754  -5.086  38.909  1.00  0.00    -0.259 OA
HETATM   14  C9  UNK     1      22.526  -6.605  38.884  1.00  0.00     0.089 A 
HETATM   15  C16 UNK     1      21.206  -6.191  39.048  1.00  0.00     0.039 A 
HETATM   16  C7  UNK     1      22.851  -7.936  38.637  1.00  0.00     0.000 A 
HETATM   17  C21 UNK     1      20.185  -7.136  38.961  1.00  0.00     0.022 A 
HETATM   18  C19 UNK     1      20.493  -8.476  38.713  1.00  0.00     0.011 A 
HETATM   19 Br1  UNK     1      19.103  -9.753  38.599  1.00  0.00    -0.051 Br
HETATM   20  C15 UNK     1      21.822  -8.877  38.552  1.00  0.00     0.033 A 
HETATM   21  C8  UNK     1      24.250  -8.299  38.475  1.00  0.00     0.037 A 
ENDBRANCH   7  10
ENDBRANCH   4   6
BRANCH   3  22
HETATM   22  C13 UNK     1      29.648  -5.965  37.452  1.00  0.00     0.253 C 
HETATM   23  O3  UNK     1      29.499  -5.863  38.683  1.00  0.00    -0.268 OA
HETATM   24  N2  UNK     1      29.984  -4.838  36.706  1.00  0.00    -0.366 N 
HETATM   25  H10 UNK     1      30.122  -4.878  35.700  1.00  0.00     0.159 HD
HETATM   26  H11 UNK     1      30.101  -3.934  37.150  1.00  0.00     0.159 HD
ENDBRANCH   3  22
BRANCH   2  27
HETATM   27  C4  UNK     1      31.949  -7.527  35.982  1.00  0.00    -0.003 A 
HETATM   28  C11 UNK     1      32.824  -7.642  37.063  1.00  0.00     0.046 A 
HETATM   29 Cl1  UNK     1      32.309  -8.254  38.597  1.00  0.00    -0.083 Cl
HETATM   30  C17 UNK     1      34.157  -7.258  36.924  1.00  0.00     0.048 A 
HETATM   31  C20 UNK     1      34.616  -6.759  35.705  1.00  0.00     0.035 A 
HETATM   32  C18 UNK     1      33.741  -6.644  34.624  1.00  0.00     0.025 A 
HETATM   33 Cl2  UNK     1      36.262  -6.287  35.532  1.00  0.00    -0.084 Cl
HETATM   34  C12 UNK     1      32.408  -7.028  34.763  1.00  0.00     0.016 A 
ENDBRANCH   2  27
TORSDOF 4
ENDMDL
MODEL 7
REMARK VINA RESULT:      -8.9      7.133     11.113
REMARK  4 active torsions:
REMARK  status: ('A' for Active; 'I' for Inactive)
REMARK       I    between atoms: C10_20  and  N1_9 
REMARK    1  A    between atoms: C3_13  and  N1_9 
REMARK       I    between atoms: C13_23  and  N2_10 
REMARK    2  A    between atoms: C1_11  and  C4_14 
REMARK    3  A    between atoms: C13_23  and  C2_12 
REMARK    4  A    between atoms: C10_20  and  C6_16 
ROOT
HETATM    1  S1  UNK     1      19.633   6.477  34.205  1.00  0.00    -0.082 SA
HETATM    2  C1  UNK     1      17.710   8.154  33.901  1.00  0.00     0.001 A 
HETATM    3  C2  UNK     1      17.527   7.157  32.899  1.00  0.00     0.077 A 
HETATM    4  C3  UNK     1      18.498   6.210  32.968  1.00  0.00     0.093 A 
HETATM    5  C5  UNK     1      18.818   7.906  34.681  1.00  0.00     0.065 A 
ENDROOT
BRANCH   4   6
HETATM    6  N1  UNK     1      18.705   5.066  32.192  1.00  0.00    -0.316 N 
HETATM    7  C10 UNK     1      18.236   3.790  32.474  1.00  0.00     0.262 C 
HETATM    8  O2  UNK     1      17.564   3.414  33.432  1.00  0.00    -0.267 OA
HETATM    9  H2  UNK     1      19.272   5.221  31.363  1.00  0.00     0.169 HD
BRANCH   7  10
HETATM   10  C6  UNK     1      18.638   2.821  31.447  1.00  0.00     0.108 A 
HETATM   11  C14 UNK     1      18.583   3.139  30.002  1.00  0.00     0.304 A 
HETATM   12  O1  UNK     1      18.988   2.137  29.126  1.00  0.00    -0.274 OA
HETATM   13  O4  UNK     1      18.198   4.229  29.592  1.00  0.00    -0.259 OA
HETATM   14  C9  UNK     1      19.431   0.881  29.586  1.00  0.00     0.089 A 
HETATM   15  C16 UNK     1      19.819  -0.058  28.633  1.00  0.00     0.039 A 
HETATM   16  C7  UNK     1      19.475   0.603  30.949  1.00  0.00     0.000 A 
HETATM   17  C21 UNK     1      20.261  -1.309  29.058  1.00  0.00     0.022 A 
HETATM   18  C19 UNK     1      20.312  -1.607  30.421  1.00  0.00     0.011 A 
HETATM   19 Br1  UNK     1      20.912  -3.307  30.990  1.00  0.00    -0.051 Br
HETATM   20  C15 UNK     1      19.920  -0.654  31.366  1.00  0.00     0.033 A 
HETATM   21  C8  UNK     1      19.057   1.630  31.890  1.00  0.00     0.037 A 
ENDBRANCH   7  10
ENDBRANCH   4   6
BRANCH   3  22
HETATM   22  C13 UNK     1      16.462   7.130  31.927  1.00  0.00     0.253 C 
HETATM   23  O3  UNK     1      15.378   6.549  32.121  1.00  0.00    -0.268 OA
HETATM   24  N2  UNK     1      16.671   7.809  30.730  1.00  0.00    -0.366 N 
HETATM   25  H10 UNK     1      17.537   8.302  30.533  1.00  0.00     0.159 HD
HETATM   26  H11 UNK     1      15.956   7.832  30.011  1.00  0.00     0.159 HD
ENDBRANCH   3  22
BRANCH   2  27
HETATM   27  C4  UNK     1      16.894   9.314  34.148  1.00  0.00    -0.003 A 
HETATM   28  C11 UNK     1      17.416  10.607  34.095  1.00  0.00     0.046 A 
HETATM   29 Cl1  UNK     1      19.080  10.908  33.727  1.00  0.00    -0.083 Cl
HETATM   30  C17 UNK     1      16.591  11.703  34.341  1.00  0.00     0.048 A 
HETATM   31  C20 UNK     1      15.243  11.508  34.641  1.00  0.00     0.035 A 
HETATM   32  C18 UNK     1      14.720  10.216  34.694  1.00  0.00     0.025 A 
HETATM   33 Cl2  UNK     1      14.223  12.861  34.944  1.00  0.00    -0.084 Cl
HETATM   34  C12 UNK     1      15.545   9.119  34.447  1.00  0.00     0.016 A 
ENDBRANCH   2  27
TORSDOF 4
ENDMDL
MODEL 8
REMARK VINA RESULT:      -8.9      5.852     10.305
REMARK  4 active torsions:
REMARK  status: ('A' for Active; 'I' for Inactive)
REMARK       I    between atoms: C10_20  and  N1_9 
REMARK    1  A    between atoms: C3_13  and  N1_9 
REMARK       I    between atoms: C13_23  and  N2_10 
REMARK    2  A    between atoms: C1_11  and  C4_14 
REMARK    3  A    between atoms: C13_23  and  C2_12 
REMARK    4  A    between atoms: C10_20  and  C6_16 
ROOT
HETATM    1  S1  UNK     1      18.882   5.265  29.637  1.00  0.00    -0.082 SA
HETATM    2  C1  UNK     1      17.991   6.542  31.681  1.00  0.00     0.001 A 
HETATM    3  C2  UNK     1      18.229   5.209  32.122  1.00  0.00     0.077 A 
HETATM    4  C3  UNK     1      18.707   4.437  31.111  1.00  0.00     0.093 A 
HETATM    5  C5  UNK     1      18.304   6.711  30.350  1.00  0.00     0.065 A 
ENDROOT
BRANCH   4   6
HETATM    6  N1  UNK     1      19.073   3.088  31.096  1.00  0.00    -0.316 N 
HETATM    7  C10 UNK     1      18.450   2.079  30.374  1.00  0.00     0.262 C 
HETATM    8  O2  UNK     1      17.479   2.160  29.624  1.00  0.00    -0.267 OA
HETATM    9  H2  UNK     1      19.861   2.862  31.696  1.00  0.00     0.169 HD
BRANCH   7  10
HETATM   10  C6  UNK     1      19.092   0.776  30.589  1.00  0.00     0.108 A 
HETATM   11  C14 UNK     1      19.724   0.021  29.483  1.00  0.00     0.304 A 
HETATM   12  O1  UNK     1      20.298  -1.204  29.812  1.00  0.00    -0.274 OA
HETATM   13  O4  UNK     1      19.741   0.447  28.333  1.00  0.00    -0.259 OA
HETATM   14  C9  UNK     1      20.283  -1.702  31.129  1.00  0.00     0.089 A 
HETATM   15  C16 UNK     1      20.885  -2.937  31.361  1.00  0.00     0.039 A 
HETATM   16  C7  UNK     1      19.683  -0.975  32.154  1.00  0.00     0.000 A 
HETATM   17  C21 UNK     1      20.885  -3.456  32.655  1.00  0.00     0.022 A 
HETATM   18  C19 UNK     1      20.289  -2.741  33.695  1.00  0.00     0.011 A 
HETATM   19 Br1  UNK     1      20.291  -3.452  35.447  1.00  0.00    -0.051 Br
HETATM   20  C15 UNK     1      19.688  -1.503  33.447  1.00  0.00     0.033 A 
HETATM   21  C8  UNK     1      19.074   0.308  31.841  1.00  0.00     0.037 A 
ENDBRANCH   7  10
ENDBRANCH   4   6
BRANCH   3  22
HETATM   22  C13 UNK     1      18.003   4.713  33.457  1.00  0.00     0.253 C 
HETATM   23  O3  UNK     1      17.884   3.503  33.722  1.00  0.00    -0.268 OA
HETATM   24  N2  UNK     1      17.940   5.649  34.486  1.00  0.00    -0.366 N 
HETATM   25  H10 UNK     1      18.040   6.646  34.315  1.00  0.00     0.159 HD
HETATM   26  H11 UNK     1      17.791   5.360  35.447  1.00  0.00     0.159 HD
ENDBRANCH   3  22
BRANCH   2  27
HETATM   27  C4  UNK     1      17.487   7.648  32.453  1.00  0.00    -0.003 A 
HETATM   28  C11 UNK     1      16.122   7.922  32.543  1.00  0.00     0.046 A 
HETATM   29 Cl1  UNK     1      14.938   6.952  31.735  1.00  0.00    -0.083 Cl
HETATM   30  C17 UNK     1      15.676   9.004  33.301  1.00  0.00     0.048 A 
HETATM   31  C20 UNK     1      16.594   9.813  33.970  1.00  0.00     0.035 A 
HETATM   32  C18 UNK     1      17.960   9.539  33.881  1.00  0.00     0.025 A 
HETATM   33 Cl2  UNK     1      16.045  11.147  34.907  1.00  0.00    -0.084 Cl
HETATM   34  C12 UNK     1      18.405   8.457  33.122  1.00  0.00     0.016 A 
ENDBRANCH   2  27
TORSDOF 4
ENDMDL
MODEL 9
REMARK VINA RESULT:      -8.9      3.820      5.192
REMARK  4 active torsions:
REMARK  status: ('A' for Active; 'I' for Inactive)
REMARK       I    between atoms: C10_20  and  N1_9 
REMARK    1  A    between atoms: C3_13  and  N1_9 
REMARK       I    between atoms: C13_23  and  N2_10 
REMARK    2  A    between atoms: C1_11  and  C4_14 
REMARK    3  A    between atoms: C13_23  and  C2_12 
REMARK    4  A    between atoms: C10_20  and  C6_16 
ROOT
HETATM    1  S1  UNK     1      20.373  -3.724  37.078  1.00  0.00    -0.082 SA
HETATM    2  C1  UNK     1      20.050  -6.254  37.388  1.00  0.00     0.001 A 
HETATM    3  C2  UNK     1      19.994  -6.018  35.984  1.00  0.00     0.077 A 
HETATM    4  C3  UNK     1      20.154  -4.699  35.703  1.00  0.00     0.093 A 
HETATM    5  C5  UNK     1      20.252  -5.092  38.101  1.00  0.00     0.065 A 
ENDROOT
BRANCH   4   6
HETATM    6  N1  UNK     1      20.169  -4.029  34.476  1.00  0.00    -0.316 N 
HETATM    7  C10 UNK     1      20.752  -2.794  34.226  1.00  0.00     0.262 C 
HETATM    8  O2  UNK     1      21.354  -2.057  35.004  1.00  0.00    -0.267 OA
HETATM    9  H2  UNK     1      19.683  -4.515  33.729  1.00  0.00     0.169 HD
BRANCH   7  10
HETATM   10  C6  UNK     1      20.581  -2.383  32.826  1.00  0.00     0.108 A 
HETATM   11  C14 UNK     1      21.004  -3.244  31.699  1.00  0.00     0.304 A 
HETATM   12  O1  UNK     1      20.792  -2.743  30.417  1.00  0.00    -0.274 OA
HETATM   13  O4  UNK     1      21.519  -4.343  31.878  1.00  0.00    -0.259 OA
HETATM   14  C9  UNK     1      20.203  -1.482  30.200  1.00  0.00     0.089 A 
HETATM   15  C16 UNK     1      20.030  -1.067  28.881  1.00  0.00     0.039 A 
HETATM   16  C7  UNK     1      19.813  -0.689  31.275  1.00  0.00     0.000 A 
HETATM   17  C21 UNK     1      19.449   0.175  28.634  1.00  0.00     0.022 A 
HETATM   18  C19 UNK     1      19.051   0.985  29.700  1.00  0.00     0.011 A 
HETATM   19 Br1  UNK     1      18.266   2.671  29.358  1.00  0.00    -0.051 Br
HETATM   20  C15 UNK     1      19.232   0.555  31.018  1.00  0.00     0.033 A 
HETATM   21  C8  UNK     1      20.022  -1.184  32.626  1.00  0.00     0.037 A 
ENDBRANCH   7  10
ENDBRANCH   4   6
BRANCH   3  22
HETATM   22  C13 UNK     1      19.794  -7.025  34.972  1.00  0.00     0.253 C 
HETATM   23  O3  UNK     1      18.676  -7.304  34.502  1.00  0.00    -0.268 OA
HETATM   24  N2  UNK     1      20.922  -7.688  34.496  1.00  0.00    -0.366 N 
HETATM   25  H10 UNK     1      21.854  -7.486  34.847  1.00  0.00     0.159 HD
HETATM   26  H11 UNK     1      20.845  -8.401  33.779  1.00  0.00     0.159 HD
ENDBRANCH   3  22
BRANCH   2  27
HETATM   27  C4  UNK     1      19.922  -7.513  38.076  1.00  0.00    -0.003 A 
HETATM   28  C11 UNK     1      20.903  -7.977  38.952  1.00  0.00     0.046 A 
HETATM   29 Cl1  UNK     1      22.343  -7.074  39.277  1.00  0.00    -0.083 Cl
HETATM   30  C17 UNK     1      20.739  -9.203  39.596  1.00  0.00     0.048 A 
HETATM   31  C20 UNK     1      19.594  -9.965  39.365  1.00  0.00     0.035 A 
HETATM   32  C18 UNK     1      18.613  -9.501  38.489  1.00  0.00     0.025 A 
HETATM   33 Cl2  UNK     1      19.390 -11.477  40.161  1.00  0.00    -0.084 Cl
HETATM   34  C12 UNK     1      18.776  -8.275  37.845  1.00  0.00     0.016 A 
ENDBRANCH   2  27
TORSDOF 4
ENDMDL
MODEL 10
REMARK VINA RESULT:      -8.9     10.248     13.711
REMARK  4 active torsions:
REMARK  status: ('A' for Active; 'I' for Inactive)
REMARK       I    between atoms: C10_20  and  N1_9 
REMARK    1  A    between atoms: C3_13  and  N1_9 
REMARK       I    between atoms: C13_23  and  N2_10 
REMARK    2  A    between atoms: C1_11  and  C4_14 
REMARK    3  A    between atoms: C13_23  and  C2_12 
REMARK    4  A    between atoms: C10_20  and  C6_16 
ROOT
HETATM    1  S1  UNK     1      29.747  -9.405  38.298  1.00  0.00    -0.082 SA
HETATM    2  C1  UNK     1      31.426  -8.117  36.841  1.00  0.00     0.001 A 
HETATM    3  C2  UNK     1      30.220  -7.358  36.817  1.00  0.00     0.077 A 
HETATM    4  C3  UNK     1      29.253  -7.954  37.563  1.00  0.00     0.093 A 
HETATM    5  C5  UNK     1      31.307  -9.254  37.609  1.00  0.00     0.065 A 
ENDROOT
BRANCH   4   6
HETATM    6  N1  UNK     1      27.935  -7.563  37.817  1.00  0.00    -0.316 N 
HETATM    7  C10 UNK     1      27.250  -7.727  39.013  1.00  0.00     0.262 C 
HETATM    8  O2  UNK     1      27.645  -8.232  40.061  1.00  0.00    -0.267 OA
HETATM    9  H2  UNK     1      27.464  -7.141  37.021  1.00  0.00     0.169 HD
BRANCH   7  10
HETATM   10  C6  UNK     1      25.880  -7.204  38.934  1.00  0.00     0.108 A 
HETATM   11  C14 UNK     1      25.597  -5.752  38.865  1.00  0.00     0.304 A 
HETATM   12  O1  UNK     1      24.257  -5.380  38.795  1.00  0.00    -0.274 OA
HETATM   13  O4  UNK     1      26.493  -4.915  38.871  1.00  0.00    -0.259 OA
HETATM   14  C9  UNK     1      23.220  -6.333  38.788  1.00  0.00     0.089 A 
HETATM   15  C16 UNK     1      21.910  -5.864  38.713  1.00  0.00     0.039 A 
HETATM   16  C7  UNK     1      23.509  -7.693  38.853  1.00  0.00     0.000 A 
HETATM   17  C21 UNK     1      20.863  -6.783  38.704  1.00  0.00     0.022 A 
HETATM   18  C19 UNK     1      21.133  -8.152  38.769  1.00  0.00     0.011 A 
HETATM   19 Br1  UNK     1      19.707  -9.393  38.758  1.00  0.00    -0.051 Br
HETATM   20  C15 UNK     1      22.453  -8.608  38.843  1.00  0.00     0.033 A 
HETATM   21  C8  UNK     1      24.899  -8.114  38.927  1.00  0.00     0.037 A 
ENDBRANCH   7  10
ENDBRANCH   4   6
BRANCH   3  22
HETATM   22  C13 UNK     1      30.021  -6.120  36.105  1.00  0.00     0.253 C 
HETATM   23  O3  UNK     1      29.883  -6.061  34.869  1.00  0.00    -0.268 OA
HETATM   24  N2  UNK     1      29.961  -4.951  36.858  1.00  0.00    -0.366 N 
HETATM   25  H10 UNK     1      30.061  -4.955  37.869  1.00  0.00     0.159 HD
HETATM   26  H11 UNK     1      29.816  -4.051  36.414  1.00  0.00     0.159 HD
ENDBRANCH   3  22
BRANCH   2  27
HETATM   27  C4  UNK     1      32.668  -7.816  36.176  1.00  0.00    -0.003 A 
HETATM   28  C11 UNK     1      33.538  -6.834  36.650  1.00  0.00     0.046 A 
HETATM   29 Cl1  UNK     1      33.189  -5.908  38.070  1.00  0.00    -0.083 Cl
HETATM   30  C17 UNK     1      34.730  -6.575  35.976  1.00  0.00     0.048 A 
HETATM   31  C20 UNK     1      35.054  -7.297  34.827  1.00  0.00     0.035 A 
HETATM   32  C18 UNK     1      34.184  -8.279  34.353  1.00  0.00     0.025 A 
HETATM   33 Cl2  UNK     1      36.526  -6.979  33.995  1.00  0.00    -0.084 Cl
HETATM   34  C12 UNK     1      32.991  -8.539  35.028  1.00  0.00     0.016 A 
ENDBRANCH   2  27
TORSDOF 4
ENDMDL
