MODEL 1
REMARK VINA RESULT:      -8.6      0.000      0.000
REMARK  2 active torsions:
REMARK  status: ('A' for Active; 'I' for Inactive)
REMARK    1  A    between atoms: C11_16  and  N1_4 
REMARK       I    between atoms: C7_12  and  N1_4 
REMARK    2  A    between atoms: C3_8  and  C7_12 
ROOT
HETATM    1  O1  UNK     1      19.077   1.477  28.753  1.00  0.00    -0.274 OA
HETATM    2  O3  UNK     1      18.272   3.607  28.945  1.00  0.00    -0.259 OA
HETATM    3  C1  UNK     1      19.575   0.197  30.758  1.00  0.00    -0.001 A 
HETATM    4  C2  UNK     1      19.528   0.296  29.372  1.00  0.00     0.089 A 
HETATM    5  C3  UNK     1      18.720   2.454  30.967  1.00  0.00     0.108 A 
HETATM    6  C4  UNK     1      19.149   1.334  31.560  1.00  0.00     0.037 A 
HETATM    7  C5  UNK     1      20.028  -0.992  31.336  1.00  0.00     0.014 A 
HETATM    8  C6  UNK     1      18.663   2.582  29.493  1.00  0.00     0.304 A 
HETATM    9  C8  UNK     1      19.923  -0.757  28.548  1.00  0.00     0.038 A 
HETATM   10  C9  UNK     1      20.426  -2.057  30.521  1.00  0.00     0.001 A 
HETATM   11  C10 UNK     1      20.374  -1.939  29.130  1.00  0.00     0.003 A 
ENDROOT
BRANCH   5  12
HETATM   12  C7  UNK     1      18.313   3.546  31.860  1.00  0.00     0.262 C 
HETATM   13  O2  UNK     1      17.623   3.301  32.847  1.00  0.00    -0.267 OA
HETATM   14  N1  UNK     1      18.794   4.776  31.434  1.00  0.00    -0.323 N 
HETATM   15  H4  UNK     1      19.338   4.814  30.575  1.00  0.00     0.169 HD
BRANCH  14  16
HETATM   16  C11 UNK     1      18.596   6.039  32.045  1.00  0.00     0.037 A 
HETATM   17  C13 UNK     1      19.559   6.535  32.900  1.00  0.00     0.049 A 
HETATM   18  C15 UNK     1      19.318   7.774  33.472  1.00  0.00     0.118 A 
HETATM   19  N2  UNK     1      18.208   8.510  33.244  1.00  0.00    -0.273 NA
HETATM   20  C14 UNK     1      17.297   7.977  32.399  1.00  0.00     0.118 A 
HETATM   21  C12 UNK     1      17.443   6.748  31.776  1.00  0.00     0.049 A 
ENDBRANCH  14  16
ENDBRANCH   5  12
TORSDOF 2
ENDMDL
MODEL 2
REMARK VINA RESULT:      -8.4      1.293      2.466
REMARK  2 active torsions:
REMARK  status: ('A' for Active; 'I' for Inactive)
REMARK    1  A    between atoms: C11_16  and  N1_4 
REMARK       I    between atoms: C7_12  and  N1_4 
REMARK    2  A    between atoms: C3_8  and  C7_12 
ROOT
HETATM    1  O1  UNK     1      18.706   0.646  32.620  1.00  0.00    -0.274 OA
HETATM    2  O3  UNK     1      17.899   2.590  33.508  1.00  0.00    -0.259 OA
HETATM    3  C1  UNK     1      19.549   0.626  30.341  1.00  0.00    -0.001 A 
HETATM    4  C2  UNK     1      19.277  -0.040  31.530  1.00  0.00     0.089 A 
HETATM    5  C3  UNK     1      18.695   2.690  31.278  1.00  0.00     0.108 A 
HETATM    6  C4  UNK     1      19.237   2.043  30.239  1.00  0.00     0.037 A 
HETATM    7  C5  UNK     1      20.116  -0.088  29.282  1.00  0.00     0.014 A 
HETATM    8  C6  UNK     1      18.396   2.002  32.553  1.00  0.00     0.304 A 
HETATM    9  C8  UNK     1      19.551  -1.397  31.691  1.00  0.00     0.038 A 
HETATM   10  C9  UNK     1      20.398  -1.450  29.429  1.00  0.00     0.001 A 
HETATM   11  C10 UNK     1      20.115  -2.103  30.631  1.00  0.00     0.003 A 
ENDROOT
BRANCH   5  12
HETATM   12  C7  UNK     1      18.415   4.118  31.079  1.00  0.00     0.262 C 
HETATM   13  O2  UNK     1      18.704   4.653  30.011  1.00  0.00    -0.267 OA
HETATM   14  N1  UNK     1      17.829   4.696  32.196  1.00  0.00    -0.323 N 
HETATM   15  H4  UNK     1      17.674   4.116  33.018  1.00  0.00     0.169 HD
BRANCH  14  16
HETATM   16  C11 UNK     1      17.429   6.045  32.361  1.00  0.00     0.037 A 
HETATM   17  C13 UNK     1      16.163   6.427  31.967  1.00  0.00     0.049 A 
HETATM   18  C15 UNK     1      15.820   7.758  32.148  1.00  0.00     0.118 A 
HETATM   19  N2  UNK     1      16.645   8.687  32.679  1.00  0.00    -0.273 NA
HETATM   20  C14 UNK     1      17.873   8.258  33.047  1.00  0.00     0.118 A 
HETATM   21  C12 UNK     1      18.313   6.951  32.908  1.00  0.00     0.049 A 
ENDBRANCH  14  16
ENDBRANCH   5  12
TORSDOF 2
ENDMDL
MODEL 3
REMARK VINA RESULT:      -8.4      7.765     10.988
REMARK  2 active torsions:
REMARK  status: ('A' for Active; 'I' for Inactive)
REMARK    1  A    between atoms: C11_16  and  N1_4 
REMARK       I    between atoms: C7_12  and  N1_4 
REMARK    2  A    between atoms: C3_8  and  C7_12 
ROOT
HETATM    1  O1  UNK     1      19.506  -0.947  34.745  1.00  0.00    -0.274 OA
HETATM    2  O3  UNK     1      20.579  -2.872  34.140  1.00  0.00    -0.259 OA
HETATM    3  C1  UNK     1      18.457  -0.795  36.932  1.00  0.00    -0.001 A 
HETATM    4  C2  UNK     1      18.773  -0.223  35.705  1.00  0.00     0.089 A 
HETATM    5  C3  UNK     1      19.594  -2.837  36.295  1.00  0.00     0.108 A 
HETATM    6  C4  UNK     1      18.897  -2.153  37.210  1.00  0.00     0.037 A 
HETATM    7  C5  UNK     1      17.729  -0.045  37.859  1.00  0.00     0.014 A 
HETATM    8  C6  UNK     1      19.941  -2.249  34.982  1.00  0.00     0.304 A 
HETATM    9  C8  UNK     1      18.380   1.073  35.377  1.00  0.00     0.038 A 
HETATM   10  C9  UNK     1      17.329   1.257  37.544  1.00  0.00     0.001 A 
HETATM   11  C10 UNK     1      17.654   1.815  36.305  1.00  0.00     0.003 A 
ENDROOT
BRANCH   5  12
HETATM   12  C7  UNK     1      19.993  -4.200  36.668  1.00  0.00     0.262 C 
HETATM   13  O2  UNK     1      21.172  -4.444  36.917  1.00  0.00    -0.267 OA
HETATM   14  N1  UNK     1      18.915  -5.074  36.685  1.00  0.00    -0.323 N 
HETATM   15  H4  UNK     1      17.997  -4.716  36.431  1.00  0.00     0.169 HD
BRANCH  14  16
HETATM   16  C11 UNK     1      18.928  -6.456  36.996  1.00  0.00     0.037 A 
HETATM   17  C13 UNK     1      19.262  -6.859  38.272  1.00  0.00     0.049 A 
HETATM   18  C15 UNK     1      19.261  -8.222  38.525  1.00  0.00     0.118 A 
HETATM   19  N2  UNK     1      18.958  -9.162  37.602  1.00  0.00    -0.273 NA
HETATM   20  C14 UNK     1      18.639  -8.712  36.368  1.00  0.00     0.118 A 
HETATM   21  C12 UNK     1      18.610  -7.372  36.015  1.00  0.00     0.049 A 
ENDBRANCH  14  16
ENDBRANCH   5  12
TORSDOF 2
ENDMDL
MODEL 4
REMARK VINA RESULT:      -8.3      2.312      7.242
REMARK  2 active torsions:
REMARK  status: ('A' for Active; 'I' for Inactive)
REMARK    1  A    between atoms: C11_16  and  N1_4 
REMARK       I    between atoms: C7_12  and  N1_4 
REMARK    2  A    between atoms: C3_8  and  C7_12 
ROOT
HETATM    1  O1  UNK     1      19.286   6.598  31.362  1.00  0.00    -0.274 OA
HETATM    2  O3  UNK     1      19.794   5.126  29.690  1.00  0.00    -0.259 OA
HETATM    3  C1  UNK     1      17.858   5.886  33.196  1.00  0.00    -0.001 A 
HETATM    4  C2  UNK     1      18.620   6.869  32.573  1.00  0.00     0.089 A 
HETATM    5  C3  UNK     1      18.395   4.321  31.426  1.00  0.00     0.108 A 
HETATM    6  C4  UNK     1      17.760   4.573  32.576  1.00  0.00     0.037 A 
HETATM    7  C5  UNK     1      17.213   6.192  34.397  1.00  0.00     0.014 A 
HETATM    8  C6  UNK     1      19.211   5.352  30.745  1.00  0.00     0.304 A 
HETATM    9  C8  UNK     1      18.754   8.146  33.114  1.00  0.00     0.038 A 
HETATM   10  C9  UNK     1      17.339   7.469  34.952  1.00  0.00     0.001 A 
HETATM   11  C10 UNK     1      18.107   8.445  34.311  1.00  0.00     0.003 A 
ENDROOT
BRANCH   5  12
HETATM   12  C7  UNK     1      18.235   2.968  30.879  1.00  0.00     0.262 C 
HETATM   13  O2  UNK     1      17.117   2.566  30.564  1.00  0.00    -0.267 OA
HETATM   14  N1  UNK     1      19.444   2.293  30.793  1.00  0.00    -0.323 N 
HETATM   15  H4  UNK     1      20.286   2.762  31.119  1.00  0.00     0.169 HD
BRANCH  14  16
HETATM   16  C11 UNK     1      19.666   0.976  30.318  1.00  0.00     0.037 A 
HETATM   17  C13 UNK     1      19.548   0.715  28.969  1.00  0.00     0.049 A 
HETATM   18  C15 UNK     1      19.774  -0.588  28.555  1.00  0.00     0.118 A 
HETATM   19  N2  UNK     1      20.098  -1.601  29.389  1.00  0.00    -0.273 NA
HETATM   20  C14 UNK     1      20.200  -1.290  30.701  1.00  0.00     0.118 A 
HETATM   21  C12 UNK     1      19.994  -0.019  31.215  1.00  0.00     0.049 A 
ENDBRANCH  14  16
ENDBRANCH   5  12
TORSDOF 2
ENDMDL
MODEL 5
REMARK VINA RESULT:      -8.2     13.662     16.079
REMARK  2 active torsions:
REMARK  status: ('A' for Active; 'I' for Inactive)
REMARK    1  A    between atoms: C11_16  and  N1_4 
REMARK       I    between atoms: C7_12  and  N1_4 
REMARK    2  A    between atoms: C3_8  and  C7_12 
ROOT
HETATM    1  O1  UNK     1      19.378  -2.271  13.163  1.00  0.00    -0.274 OA
HETATM    2  O3  UNK     1      19.446  -0.251  14.230  1.00  0.00    -0.259 OA
HETATM    3  C1  UNK     1      18.417  -4.195  14.297  1.00  0.00    -0.001 A 
HETATM    4  C2  UNK     1      19.025  -3.634  13.178  1.00  0.00     0.089 A 
HETATM    5  C3  UNK     1      18.486  -2.055  15.431  1.00  0.00     0.108 A 
HETATM    6  C4  UNK     1      18.150  -3.350  15.451  1.00  0.00     0.037 A 
HETATM    7  C5  UNK     1      18.082  -5.551  14.274  1.00  0.00     0.014 A 
HETATM    8  C6  UNK     1      19.135  -1.437  14.252  1.00  0.00     0.304 A 
HETATM    9  C8  UNK     1      19.309  -4.389  12.042  1.00  0.00     0.038 A 
HETATM   10  C9  UNK     1      18.360  -6.320  13.140  1.00  0.00     0.001 A 
HETATM   11  C10 UNK     1      18.973  -5.740  12.027  1.00  0.00     0.003 A 
ENDROOT
BRANCH   5  12
HETATM   12  C7  UNK     1      18.177  -1.285  16.642  1.00  0.00     0.262 C 
HETATM   13  O2  UNK     1      17.107  -1.462  17.220  1.00  0.00    -0.267 OA
HETATM   14  N1  UNK     1      19.200  -0.412  16.982  1.00  0.00    -0.323 N 
HETATM   15  H4  UNK     1      20.021  -0.369  16.381  1.00  0.00     0.169 HD
BRANCH  14  16
HETATM   16  C11 UNK     1      19.244   0.482  18.081  1.00  0.00     0.037 A 
HETATM   17  C13 UNK     1      19.059   1.831  17.862  1.00  0.00     0.049 A 
HETATM   18  C15 UNK     1      19.111   2.663  18.970  1.00  0.00     0.118 A 
HETATM   19  N2  UNK     1      19.333   2.232  20.231  1.00  0.00    -0.273 NA
HETATM   20  C14 UNK     1      19.508   0.900  20.388  1.00  0.00     0.118 A 
HETATM   21  C12 UNK     1      19.474  -0.015  19.347  1.00  0.00     0.049 A 
ENDBRANCH  14  16
ENDBRANCH   5  12
TORSDOF 2
ENDMDL
MODEL 6
REMARK VINA RESULT:      -8.1      8.603     10.447
REMARK  2 active torsions:
REMARK  status: ('A' for Active; 'I' for Inactive)
REMARK    1  A    between atoms: C11_16  and  N1_4 
REMARK       I    between atoms: C7_12  and  N1_4 
REMARK    2  A    between atoms: C3_8  and  C7_12 
ROOT
HETATM    1  O1  UNK     1      20.013  -7.855  35.687  1.00  0.00    -0.274 OA
HETATM    2  O3  UNK     1      20.198  -5.912  34.499  1.00  0.00    -0.259 OA
HETATM    3  C1  UNK     1      19.898  -7.773  38.113  1.00  0.00    -0.001 A 
HETATM    4  C2  UNK     1      19.909  -8.506  36.931  1.00  0.00     0.089 A 
HETATM    5  C3  UNK     1      20.093  -5.710  36.858  1.00  0.00     0.108 A 
HETATM    6  C4  UNK     1      19.995  -6.323  38.043  1.00  0.00     0.037 A 
HETATM    7  C5  UNK     1      19.793  -8.454  39.329  1.00  0.00     0.014 A 
HETATM    8  C6  UNK     1      20.107  -6.469  35.588  1.00  0.00     0.304 A 
HETATM    9  C8  UNK     1      19.820  -9.896  36.930  1.00  0.00     0.038 A 
HETATM   10  C9  UNK     1      19.702  -9.849  39.342  1.00  0.00     0.001 A 
HETATM   11  C10 UNK     1      19.716 -10.569  38.145  1.00  0.00     0.003 A 
ENDROOT
BRANCH   5  12
HETATM   12  C7  UNK     1      20.186  -4.245  36.891  1.00  0.00     0.262 C 
HETATM   13  O2  UNK     1      21.270  -3.708  37.114  1.00  0.00    -0.267 OA
HETATM   14  N1  UNK     1      18.962  -3.637  36.652  1.00  0.00    -0.323 N 
HETATM   15  H4  UNK     1      18.147  -4.229  36.505  1.00  0.00     0.169 HD
BRANCH  14  16
HETATM   16  C11 UNK     1      18.680  -2.250  36.612  1.00  0.00     0.037 A 
HETATM   17  C13 UNK     1      19.016  -1.524  35.488  1.00  0.00     0.049 A 
HETATM   18  C15 UNK     1      18.719  -0.170  35.498  1.00  0.00     0.118 A 
HETATM   19  N2  UNK     1      18.130   0.468  36.533  1.00  0.00    -0.273 NA
HETATM   20  C14 UNK     1      17.823  -0.291  37.609  1.00  0.00     0.118 A 
HETATM   21  C12 UNK     1      18.077  -1.650  37.698  1.00  0.00     0.049 A 
ENDBRANCH  14  16
ENDBRANCH   5  12
TORSDOF 2
ENDMDL
MODEL 7
REMARK VINA RESULT:      -8.1      8.082     11.109
REMARK  2 active torsions:
REMARK  status: ('A' for Active; 'I' for Inactive)
REMARK    1  A    between atoms: C11_16  and  N1_4 
REMARK       I    between atoms: C7_12  and  N1_4 
REMARK    2  A    between atoms: C3_8  and  C7_12 
ROOT
HETATM    1  O1  UNK     1      19.685  -1.025  34.813  1.00  0.00    -0.274 OA
HETATM    2  O3  UNK     1      20.784  -2.896  34.096  1.00  0.00    -0.259 OA
HETATM    3  C1  UNK     1      18.510  -1.063  36.940  1.00  0.00    -0.001 A 
HETATM    4  C2  UNK     1      18.900  -0.384  35.790  1.00  0.00     0.089 A 
HETATM    5  C3  UNK     1      19.674  -3.049  36.185  1.00  0.00     0.108 A 
HETATM    6  C4  UNK     1      18.927  -2.446  37.116  1.00  0.00     0.037 A 
HETATM    7  C5  UNK     1      17.731  -0.394  37.887  1.00  0.00     0.014 A 
HETATM    8  C6  UNK     1      20.100  -2.346  34.954  1.00  0.00     0.304 A 
HETATM    9  C8  UNK     1      18.533   0.940  35.561  1.00  0.00     0.038 A 
HETATM   10  C9  UNK     1      17.356   0.935  37.671  1.00  0.00     0.001 A 
HETATM   11  C10 UNK     1      17.756   1.601  36.509  1.00  0.00     0.003 A 
ENDROOT
BRANCH   5  12
HETATM   12  C7  UNK     1      20.044  -4.445  36.453  1.00  0.00     0.262 C 
HETATM   13  O2  UNK     1      20.051  -5.261  35.533  1.00  0.00    -0.267 OA
HETATM   14  N1  UNK     1      20.350  -4.657  37.789  1.00  0.00    -0.323 N 
HETATM   15  H4  UNK     1      20.274  -3.874  38.435  1.00  0.00     0.169 HD
BRANCH  14  16
HETATM   16  C11 UNK     1      20.743  -5.872  38.403  1.00  0.00     0.037 A 
HETATM   17  C13 UNK     1      19.775  -6.766  38.814  1.00  0.00     0.049 A 
HETATM   18  C15 UNK     1      20.211  -7.939  39.409  1.00  0.00     0.118 A 
HETATM   19  N2  UNK     1      21.511  -8.249  39.608  1.00  0.00    -0.273 NA
HETATM   20  C14 UNK     1      22.417  -7.338  39.187  1.00  0.00     0.118 A 
HETATM   21  C12 UNK     1      22.085  -6.136  38.581  1.00  0.00     0.049 A 
ENDBRANCH  14  16
ENDBRANCH   5  12
TORSDOF 2
ENDMDL
MODEL 8
REMARK VINA RESULT:      -8.1     13.791     17.298
REMARK  2 active torsions:
REMARK  status: ('A' for Active; 'I' for Inactive)
REMARK    1  A    between atoms: C11_16  and  N1_4 
REMARK       I    between atoms: C7_12  and  N1_4 
REMARK    2  A    between atoms: C3_8  and  C7_12 
ROOT
HETATM    1  O1  UNK     1      19.353   1.246  15.645  1.00  0.00    -0.274 OA
HETATM    2  O3  UNK     1      19.457  -0.257  13.927  1.00  0.00    -0.259 OA
HETATM    3  C1  UNK     1      18.915   0.459  17.903  1.00  0.00    -0.001 A 
HETATM    4  C2  UNK     1      19.167   1.501  17.018  1.00  0.00     0.089 A 
HETATM    5  C3  UNK     1      19.026  -1.138  16.085  1.00  0.00     0.108 A 
HETATM    6  C4  UNK     1      18.847  -0.900  17.389  1.00  0.00     0.037 A 
HETATM    7  C5  UNK     1      18.736   0.752  19.257  1.00  0.00     0.014 A 
HETATM    8  C6  UNK     1      19.294  -0.044  15.124  1.00  0.00     0.304 A 
HETATM    9  C8  UNK     1      19.243   2.825  17.446  1.00  0.00     0.038 A 
HETATM   10  C9  UNK     1      18.811   2.076  19.702  1.00  0.00     0.001 A 
HETATM   11  C10 UNK     1      19.063   3.110  18.797  1.00  0.00     0.003 A 
ENDROOT
BRANCH   5  12
HETATM   12  C7  UNK     1      18.938  -2.541  15.663  1.00  0.00     0.262 C 
HETATM   13  O2  UNK     1      17.867  -3.139  15.751  1.00  0.00    -0.267 OA
HETATM   14  N1  UNK     1      20.153  -3.024  15.196  1.00  0.00    -0.323 N 
HETATM   15  H4  UNK     1      20.958  -2.402  15.208  1.00  0.00     0.169 HD
BRANCH  14  16
HETATM   16  C11 UNK     1      20.437  -4.325  14.713  1.00  0.00     0.037 A 
HETATM   17  C13 UNK     1      21.055  -5.235  15.545  1.00  0.00     0.049 A 
HETATM   18  C15 UNK     1      21.312  -6.494  15.025  1.00  0.00     0.118 A 
HETATM   19  N2  UNK     1      20.997  -6.871  13.767  1.00  0.00    -0.273 NA
HETATM   20  C14 UNK     1      20.394  -5.940  12.994  1.00  0.00     0.118 A 
HETATM   21  C12 UNK     1      20.093  -4.656  13.419  1.00  0.00     0.049 A 
ENDBRANCH  14  16
ENDBRANCH   5  12
TORSDOF 2
ENDMDL
MODEL 9
REMARK VINA RESULT:      -7.9      2.192      7.708
REMARK  2 active torsions:
REMARK  status: ('A' for Active; 'I' for Inactive)
REMARK    1  A    between atoms: C11_16  and  N1_4 
REMARK       I    between atoms: C7_12  and  N1_4 
REMARK    2  A    between atoms: C3_8  and  C7_12 
ROOT
HETATM    1  O1  UNK     1      17.348   6.131  34.330  1.00  0.00    -0.274 OA
HETATM    2  O3  UNK     1      18.637   4.271  34.010  1.00  0.00    -0.259 OA
HETATM    3  C1  UNK     1      16.626   7.436  32.411  1.00  0.00    -0.001 A 
HETATM    4  C2  UNK     1      16.650   7.226  33.786  1.00  0.00     0.089 A 
HETATM    5  C3  UNK     1      17.992   5.465  32.066  1.00  0.00     0.108 A 
HETATM    6  C4  UNK     1      17.331   6.505  31.544  1.00  0.00     0.037 A 
HETATM    7  C5  UNK     1      15.923   8.534  31.909  1.00  0.00     0.014 A 
HETATM    8  C6  UNK     1      18.032   5.223  33.526  1.00  0.00     0.304 A 
HETATM    9  C8  UNK     1      15.996   8.081  34.670  1.00  0.00     0.038 A 
HETATM   10  C9  UNK     1      15.261   9.400  32.784  1.00  0.00     0.001 A 
HETATM   11  C10 UNK     1      15.298   9.174  34.162  1.00  0.00     0.003 A 
ENDROOT
BRANCH   5  12
HETATM   12  C7  UNK     1      18.673   4.583  31.111  1.00  0.00     0.262 C 
HETATM   13  O2  UNK     1      19.605   5.018  30.437  1.00  0.00    -0.267 OA
HETATM   14  N1  UNK     1      18.133   3.305  31.104  1.00  0.00    -0.323 N 
HETATM   15  H4  UNK     1      17.342   3.109  31.712  1.00  0.00     0.169 HD
BRANCH  14  16
HETATM   16  C11 UNK     1      18.536   2.202  30.311  1.00  0.00     0.037 A 
HETATM   17  C13 UNK     1      19.483   1.327  30.801  1.00  0.00     0.049 A 
HETATM   18  C15 UNK     1      19.843   0.264  29.986  1.00  0.00     0.118 A 
HETATM   19  N2  UNK     1      19.327   0.044  28.757  1.00  0.00    -0.273 NA
HETATM   20  C14 UNK     1      18.403   0.933  28.326  1.00  0.00     0.118 A 
HETATM   21  C12 UNK     1      17.975   2.026  29.063  1.00  0.00     0.049 A 
ENDBRANCH  14  16
ENDBRANCH   5  12
TORSDOF 2
ENDMDL
MODEL 10
REMARK VINA RESULT:      -7.8     13.479     16.712
REMARK  2 active torsions:
REMARK  status: ('A' for Active; 'I' for Inactive)
REMARK    1  A    between atoms: C11_16  and  N1_4 
REMARK       I    between atoms: C7_12  and  N1_4 
REMARK    2  A    between atoms: C3_8  and  C7_12 
ROOT
HETATM    1  O1  UNK     1      19.425   2.044  17.382  1.00  0.00    -0.274 OA
HETATM    2  O3  UNK     1      19.226   1.509  15.169  1.00  0.00    -0.259 OA
HETATM    3  C1  UNK     1      19.223   0.299  19.062  1.00  0.00    -0.001 A 
HETATM    4  C2  UNK     1      19.426   1.634  18.729  1.00  0.00     0.089 A 
HETATM    5  C3  UNK     1      19.012  -0.273  16.717  1.00  0.00     0.108 A 
HETATM    6  C4  UNK     1      19.011  -0.668  17.996  1.00  0.00     0.037 A 
HETATM    7  C5  UNK     1      19.231  -0.070  20.409  1.00  0.00     0.014 A 
HETATM    8  C6  UNK     1      19.225   1.142  16.340  1.00  0.00     0.304 A 
HETATM    9  C8  UNK     1      19.634   2.609  19.703  1.00  0.00     0.038 A 
HETATM   10  C9  UNK     1      19.440   0.898  21.397  1.00  0.00     0.001 A 
HETATM   11  C10 UNK     1      19.640   2.235  21.044  1.00  0.00     0.003 A 
ENDROOT
BRANCH   5  12
HETATM   12  C7  UNK     1      18.789  -1.322  15.714  1.00  0.00     0.262 C 
HETATM   13  O2  UNK     1      17.913  -2.165  15.897  1.00  0.00    -0.267 OA
HETATM   14  N1  UNK     1      19.654  -1.206  14.635  1.00  0.00    -0.323 N 
HETATM   15  H4  UNK     1      20.344  -0.457  14.645  1.00  0.00     0.169 HD
BRANCH  14  16
HETATM   16  C11 UNK     1      19.725  -2.039  13.491  1.00  0.00     0.037 A 
HETATM   17  C13 UNK     1      19.255  -1.569  12.282  1.00  0.00     0.049 A 
HETATM   18  C15 UNK     1      19.347  -2.423  11.194  1.00  0.00     0.118 A 
HETATM   19  N2  UNK     1      19.861  -3.671  11.253  1.00  0.00    -0.273 NA
HETATM   20  C14 UNK     1      20.306  -4.081  12.462  1.00  0.00     0.118 A 
HETATM   21  C12 UNK     1      20.260  -3.305  13.610  1.00  0.00     0.049 A 
ENDBRANCH  14  16
ENDBRANCH   5  12
TORSDOF 2
ENDMDL
