MODEL 1
REMARK VINA RESULT:     -10.0      0.000      0.000
REMARK  5 active torsions:
REMARK  status: ('A' for Active; 'I' for Inactive)
REMARK    1  A    between atoms: C5_11  and  N1_4 
REMARK    2  A    between atoms: C6_12  and  N2_5 
REMARK    3  A    between atoms: C14_20  and  N3_6 
REMARK       I    between atoms: C8_14  and  N3_6 
REMARK    4  A    between atoms: C5_11  and  C7_13 
REMARK    5  A    between atoms: C6_12  and  C8_14 
ROOT
HETATM    1  N1  UNK     1      20.038  -4.002  36.829  1.00  0.00     0.096 N 
HETATM    2  N2  UNK     1      20.317  -6.877  36.954  1.00  0.00     0.100 N 
HETATM    3  C1  UNK     1      21.025  -4.634  37.712  1.00  0.00     0.303 C 
HETATM    4  C2  UNK     1      19.789  -4.845  35.652  1.00  0.00     0.303 C 
HETATM    5  C3  UNK     1      20.564  -6.035  38.131  1.00  0.00     0.303 C 
HETATM    6  C4  UNK     1      19.329  -6.245  36.071  1.00  0.00     0.303 C 
ENDROOT
BRANCH   1   7
HETATM    7  C5  UNK     1      20.480  -2.668  36.427  1.00  0.00     0.312 C 
BRANCH   7   8
HETATM    8  C7  UNK     1      19.493  -1.992  35.540  1.00  0.00    -0.011 A 
HETATM    9  C10 UNK     1      18.379  -1.436  36.038  1.00  0.00     0.092 A 
HETATM   10  C13 UNK     1      17.376  -0.757  35.201  1.00  0.00     0.288 A 
HETATM   11  O1  UNK     1      17.630  -0.711  33.839  1.00  0.00    -0.275 OA
HETATM   12  O3  UNK     1      16.369  -0.260  35.692  1.00  0.00    -0.260 OA
HETATM   13  C11 UNK     1      18.792  -1.286  33.286  1.00  0.00     0.090 A 
HETATM   14  C9  UNK     1      19.734  -1.926  34.092  1.00  0.00     0.006 A 
HETATM   15  C15 UNK     1      18.944  -1.179  31.902  1.00  0.00     0.045 A 
HETATM   16  C12 UNK     1      20.862  -2.472  33.466  1.00  0.00     0.015 A 
HETATM   17  C18 UNK     1      21.029  -2.373  32.079  1.00  0.00     0.007 A 
HETATM   18  C17 UNK     1      20.071  -1.728  31.299  1.00  0.00    -0.059 A 
HETATM   19  C21 UNK     1      20.255  -1.626  29.823  1.00  0.00     0.048 C 
ENDBRANCH   7   8
ENDBRANCH   1   7
BRANCH   2  20
HETATM   20  C6  UNK     1      19.877  -8.213  37.354  1.00  0.00     0.375 C 
BRANCH  20  21
HETATM   21  C8  UNK     1      21.086  -9.131  37.472  1.00  0.00     0.252 C 
HETATM   22  O2  UNK     1      21.438  -9.544  38.580  1.00  0.00    -0.271 OA
HETATM   23  N3  UNK     1      21.754  -9.416  36.259  1.00  0.00    -0.321 N 
HETATM   24  C16 UNK     1      21.286  -8.894  34.965  1.00  0.00     0.159 C 
BRANCH  23  25
HETATM   25  C14 UNK     1      23.002 -10.155  36.244  1.00  0.00     0.037 A 
HETATM   26  C19 UNK     1      24.178  -9.547  36.684  1.00  0.00     0.036 A 
HETATM   27  C22 UNK     1      25.377 -10.259  36.670  1.00  0.00    -0.060 A 
HETATM   28  C24 UNK     1      25.401 -11.577  36.216  1.00  0.00     0.007 A 
HETATM   29  C25 UNK     1      26.635  -9.609  37.139  1.00  0.00     0.048 C 
HETATM   30  C23 UNK     1      24.225 -12.185  35.777  1.00  0.00     0.003 A 
HETATM   31  C20 UNK     1      23.025 -11.474  35.791  1.00  0.00     0.030 A 
ENDBRANCH  23  25
ENDBRANCH  20  21
ENDBRANCH   2  20
TORSDOF 5
ENDMDL
MODEL 2
REMARK VINA RESULT:      -9.8      1.053      2.928
REMARK  5 active torsions:
REMARK  status: ('A' for Active; 'I' for Inactive)
REMARK    1  A    between atoms: C5_11  and  N1_4 
REMARK    2  A    between atoms: C6_12  and  N2_5 
REMARK    3  A    between atoms: C14_20  and  N3_6 
REMARK       I    between atoms: C8_14  and  N3_6 
REMARK    4  A    between atoms: C5_11  and  C7_13 
REMARK    5  A    between atoms: C6_12  and  C8_14 
ROOT
HETATM    1  N1  UNK     1      20.122  -3.855  36.465  1.00  0.00     0.096 N 
HETATM    2  N2  UNK     1      20.497  -6.694  36.869  1.00  0.00     0.100 N 
HETATM    3  C1  UNK     1      20.927  -4.367  37.581  1.00  0.00     0.303 C 
HETATM    4  C2  UNK     1      20.165  -4.788  35.332  1.00  0.00     0.303 C 
HETATM    5  C3  UNK     1      20.452  -5.762  38.002  1.00  0.00     0.303 C 
HETATM    6  C4  UNK     1      19.690  -6.183  35.754  1.00  0.00     0.303 C 
ENDROOT
BRANCH   1   7
HETATM    7  C5  UNK     1      20.578  -2.527  36.062  1.00  0.00     0.312 C 
BRANCH   7   8
HETATM    8  C7  UNK     1      19.663  -1.895  35.071  1.00  0.00    -0.011 A 
HETATM    9  C10 UNK     1      19.890  -1.996  33.753  1.00  0.00     0.092 A 
HETATM   10  C13 UNK     1      19.014  -1.389  32.738  1.00  0.00     0.288 A 
HETATM   11  O1  UNK     1      17.912  -0.689  33.205  1.00  0.00    -0.275 OA
HETATM   12  O3  UNK     1      19.253  -1.503  31.542  1.00  0.00    -0.260 OA
HETATM   13  C11 UNK     1      17.646  -0.565  34.583  1.00  0.00     0.090 A 
HETATM   14  C9  UNK     1      18.487  -1.146  35.534  1.00  0.00     0.006 A 
HETATM   15  C15 UNK     1      16.510   0.162  34.938  1.00  0.00     0.045 A 
HETATM   16  C12 UNK     1      18.154  -0.978  36.885  1.00  0.00     0.015 A 
HETATM   17  C18 UNK     1      17.017  -0.251  37.256  1.00  0.00     0.007 A 
HETATM   18  C17 UNK     1      16.196   0.318  36.284  1.00  0.00    -0.059 A 
HETATM   19  C21 UNK     1      14.987   1.091  36.686  1.00  0.00     0.048 C 
ENDBRANCH   7   8
ENDBRANCH   1   7
BRANCH   2  20
HETATM   20  C6  UNK     1      20.043  -8.024  37.272  1.00  0.00     0.375 C 
BRANCH  20  21
HETATM   21  C8  UNK     1      21.246  -8.944  37.431  1.00  0.00     0.252 C 
HETATM   22  O2  UNK     1      21.660  -9.226  38.558  1.00  0.00    -0.271 OA
HETATM   23  N3  UNK     1      21.836  -9.389  36.224  1.00  0.00    -0.321 N 
HETATM   24  C16 UNK     1      21.295  -9.020  34.906  1.00  0.00     0.159 C 
BRANCH  23  25
HETATM   25  C14 UNK     1      23.071 -10.147  36.227  1.00  0.00     0.037 A 
HETATM   26  C19 UNK     1      24.255  -9.551  36.661  1.00  0.00     0.036 A 
HETATM   27  C22 UNK     1      25.442 -10.283  36.663  1.00  0.00    -0.060 A 
HETATM   28  C24 UNK     1      25.446 -11.609  36.232  1.00  0.00     0.007 A 
HETATM   29  C25 UNK     1      26.709  -9.646  37.126  1.00  0.00     0.048 C 
HETATM   30  C23 UNK     1      24.262 -12.205  35.798  1.00  0.00     0.003 A 
HETATM   31  C20 UNK     1      23.074 -11.474  35.796  1.00  0.00     0.030 A 
ENDBRANCH  23  25
ENDBRANCH  20  21
ENDBRANCH   2  20
TORSDOF 5
ENDMDL
MODEL 3
REMARK VINA RESULT:      -9.6      3.327     10.630
REMARK  5 active torsions:
REMARK  status: ('A' for Active; 'I' for Inactive)
REMARK    1  A    between atoms: C5_11  and  N1_4 
REMARK    2  A    between atoms: C6_12  and  N2_5 
REMARK    3  A    between atoms: C14_20  and  N3_6 
REMARK       I    between atoms: C8_14  and  N3_6 
REMARK    4  A    between atoms: C5_11  and  C7_13 
REMARK    5  A    between atoms: C6_12  and  C8_14 
ROOT
HETATM    1  N1  UNK     1      19.552  -3.710  36.434  1.00  0.00     0.096 N 
HETATM    2  N2  UNK     1      18.153  -1.209  36.051  1.00  0.00     0.100 N 
HETATM    3  C1  UNK     1      18.132  -3.571  36.777  1.00  0.00     0.303 C 
HETATM    4  C2  UNK     1      19.907  -2.797  35.340  1.00  0.00     0.303 C 
HETATM    5  C3  UNK     1      17.799  -2.121  37.146  1.00  0.00     0.303 C 
HETATM    6  C4  UNK     1      19.574  -1.348  35.709  1.00  0.00     0.303 C 
ENDROOT
BRANCH   1   7
HETATM    7  C5  UNK     1      19.867  -5.093  36.079  1.00  0.00     0.312 C 
BRANCH   7   8
HETATM    8  C7  UNK     1      20.655  -5.780  37.140  1.00  0.00    -0.011 A 
HETATM    9  C10 UNK     1      21.722  -5.195  37.701  1.00  0.00     0.092 A 
HETATM   10  C13 UNK     1      22.530  -5.835  38.752  1.00  0.00     0.288 A 
HETATM   11  O1  UNK     1      22.137  -7.102  39.155  1.00  0.00    -0.275 OA
HETATM   12  O3  UNK     1      23.500  -5.268  39.243  1.00  0.00    -0.260 OA
HETATM   13  C11 UNK     1      21.020  -7.743  38.584  1.00  0.00     0.090 A 
HETATM   14  C9  UNK     1      20.264  -7.124  37.588  1.00  0.00     0.006 A 
HETATM   15  C15 UNK     1      20.717  -9.017  39.066  1.00  0.00     0.045 A 
HETATM   16  C12 UNK     1      19.168  -7.828  37.071  1.00  0.00     0.015 A 
HETATM   17  C18 UNK     1      18.851  -9.107  37.545  1.00  0.00     0.007 A 
HETATM   18  C17 UNK     1      19.625  -9.700  38.540  1.00  0.00    -0.059 A 
HETATM   19  C21 UNK     1      19.282 -11.063  39.040  1.00  0.00     0.048 C 
ENDBRANCH   7   8
ENDBRANCH   1   7
BRANCH   2  20
HETATM   20  C6  UNK     1      17.836   0.173  36.404  1.00  0.00     0.375 C 
BRANCH  20  21
HETATM   21  C8  UNK     1      17.552   0.969  35.136  1.00  0.00     0.252 C 
HETATM   22  O2  UNK     1      16.668   0.595  34.361  1.00  0.00    -0.271 OA
HETATM   23  N3  UNK     1      18.383   2.093  34.925  1.00  0.00    -0.321 N 
HETATM   24  C16 UNK     1      19.423   2.491  35.888  1.00  0.00     0.159 C 
BRANCH  23  25
HETATM   25  C14 UNK     1      18.322   2.852  33.691  1.00  0.00     0.037 A 
HETATM   26  C19 UNK     1      18.411   2.195  32.463  1.00  0.00     0.036 A 
HETATM   27  C22 UNK     1      18.351   2.926  31.277  1.00  0.00    -0.060 A 
HETATM   28  C24 UNK     1      18.202   4.312  31.317  1.00  0.00     0.007 A 
HETATM   29  C25 UNK     1      18.446   2.225  29.964  1.00  0.00     0.048 C 
HETATM   30  C23 UNK     1      18.113   4.968  32.545  1.00  0.00     0.003 A 
HETATM   31  C20 UNK     1      18.173   4.238  33.732  1.00  0.00     0.030 A 
ENDBRANCH  23  25
ENDBRANCH  20  21
ENDBRANCH   2  20
TORSDOF 5
ENDMDL
MODEL 4
REMARK VINA RESULT:      -9.5      3.260     10.373
REMARK  5 active torsions:
REMARK  status: ('A' for Active; 'I' for Inactive)
REMARK    1  A    between atoms: C5_11  and  N1_4 
REMARK    2  A    between atoms: C6_12  and  N2_5 
REMARK    3  A    between atoms: C14_20  and  N3_6 
REMARK       I    between atoms: C8_14  and  N3_6 
REMARK    4  A    between atoms: C5_11  and  C7_13 
REMARK    5  A    between atoms: C6_12  and  C8_14 
ROOT
HETATM    1  N1  UNK     1      19.422  -3.139  36.270  1.00  0.00     0.096 N 
HETATM    2  N2  UNK     1      18.294  -0.480  36.396  1.00  0.00     0.100 N 
HETATM    3  C1  UNK     1      19.602  -2.182  35.172  1.00  0.00     0.303 C 
HETATM    4  C2  UNK     1      19.278  -2.432  37.549  1.00  0.00     0.303 C 
HETATM    5  C3  UNK     1      18.436  -1.188  35.118  1.00  0.00     0.303 C 
HETATM    6  C4  UNK     1      18.113  -1.437  37.494  1.00  0.00     0.303 C 
ENDROOT
BRANCH   1   7
HETATM    7  C5  UNK     1      20.536  -4.084  36.323  1.00  0.00     0.312 C 
BRANCH   7   8
HETATM    8  C7  UNK     1      20.081  -5.474  36.605  1.00  0.00    -0.011 A 
HETATM    9  C10 UNK     1      19.046  -6.013  35.945  1.00  0.00     0.092 A 
HETATM   10  C13 UNK     1      18.562  -7.382  36.190  1.00  0.00     0.288 A 
HETATM   11  O1  UNK     1      19.234  -8.117  37.154  1.00  0.00    -0.275 OA
HETATM   12  O3  UNK     1      17.612  -7.841  35.567  1.00  0.00    -0.260 OA
HETATM   13  C11 UNK     1      20.326  -7.578  37.864  1.00  0.00     0.090 A 
HETATM   14  C9  UNK     1      20.773  -6.279  37.622  1.00  0.00     0.006 A 
HETATM   15  C15 UNK     1      20.926  -8.408  38.812  1.00  0.00     0.045 A 
HETATM   16  C12 UNK     1      21.865  -5.817  38.369  1.00  0.00     0.015 A 
HETATM   17  C18 UNK     1      22.477  -6.638  39.323  1.00  0.00     0.007 A 
HETATM   18  C17 UNK     1      22.008  -7.932  39.544  1.00  0.00    -0.059 A 
HETATM   19  C21 UNK     1      22.665  -8.801  40.562  1.00  0.00     0.048 C 
ENDBRANCH   7   8
ENDBRANCH   1   7
BRANCH   2  20
HETATM   20  C6  UNK     1      17.182   0.467  36.344  1.00  0.00     0.375 C 
BRANCH  20  21
HETATM   21  C8  UNK     1      17.117   1.099  34.959  1.00  0.00     0.252 C 
HETATM   22  O2  UNK     1      16.246   0.742  34.162  1.00  0.00    -0.271 OA
HETATM   23  N3  UNK     1      18.123   2.052  34.678  1.00  0.00    -0.321 N 
HETATM   24  C16 UNK     1      19.137   2.438  35.672  1.00  0.00     0.159 C 
BRANCH  23  25
HETATM   25  C14 UNK     1      18.269   2.621  33.353  1.00  0.00     0.037 A 
HETATM   26  C19 UNK     1      18.522   1.791  32.260  1.00  0.00     0.036 A 
HETATM   27  C22 UNK     1      18.661   2.340  30.986  1.00  0.00    -0.060 A 
HETATM   28  C24 UNK     1      18.548   3.717  30.803  1.00  0.00     0.007 A 
HETATM   29  C25 UNK     1      18.932   1.453  29.818  1.00  0.00     0.048 C 
HETATM   30  C23 UNK     1      18.294   4.547  31.895  1.00  0.00     0.003 A 
HETATM   31  C20 UNK     1      18.155   3.999  33.170  1.00  0.00     0.030 A 
ENDBRANCH  23  25
ENDBRANCH  20  21
ENDBRANCH   2  20
TORSDOF 5
ENDMDL
MODEL 5
REMARK VINA RESULT:      -9.4      3.237      9.816
REMARK  5 active torsions:
REMARK  status: ('A' for Active; 'I' for Inactive)
REMARK    1  A    between atoms: C5_11  and  N1_4 
REMARK    2  A    between atoms: C6_12  and  N2_5 
REMARK    3  A    between atoms: C14_20  and  N3_6 
REMARK       I    between atoms: C8_14  and  N3_6 
REMARK    4  A    between atoms: C5_11  and  C7_13 
REMARK    5  A    between atoms: C6_12  and  C8_14 
ROOT
HETATM    1  N1  UNK     1      19.506  -3.232  36.476  1.00  0.00     0.096 N 
HETATM    2  N2  UNK     1      18.296  -0.615  36.261  1.00  0.00     0.100 N 
HETATM    3  C1  UNK     1      20.298  -2.056  36.097  1.00  0.00     0.303 C 
HETATM    4  C2  UNK     1      18.381  -2.839  37.334  1.00  0.00     0.303 C 
HETATM    5  C3  UNK     1      19.420  -1.009  35.402  1.00  0.00     0.303 C 
HETATM    6  C4  UNK     1      17.504  -1.792  36.638  1.00  0.00     0.303 C 
ENDROOT
BRANCH   1   7
HETATM    7  C5  UNK     1      20.343  -4.228  37.143  1.00  0.00     0.312 C 
BRANCH   7   8
HETATM    8  C7  UNK     1      20.248  -5.566  36.496  1.00  0.00    -0.011 A 
HETATM    9  C10 UNK     1      20.323  -5.700  35.164  1.00  0.00     0.092 A 
HETATM   10  C13 UNK     1      20.234  -7.001  34.481  1.00  0.00     0.288 A 
HETATM   11  O1  UNK     1      20.066  -8.117  35.286  1.00  0.00    -0.275 OA
HETATM   12  O3  UNK     1      20.307  -7.085  33.260  1.00  0.00    -0.260 OA
HETATM   13  C11 UNK     1      19.984  -8.009  36.688  1.00  0.00     0.090 A 
HETATM   14  C9  UNK     1      20.069  -6.768  37.323  1.00  0.00     0.006 A 
HETATM   15  C15 UNK     1      19.815  -9.198  37.399  1.00  0.00     0.045 A 
HETATM   16  C12 UNK     1      19.979  -6.745  38.720  1.00  0.00     0.015 A 
HETATM   17  C18 UNK     1      19.810  -7.930  39.446  1.00  0.00     0.007 A 
HETATM   18  C17 UNK     1      19.727  -9.154  38.786  1.00  0.00    -0.059 A 
HETATM   19  C21 UNK     1      19.546 -10.412  39.565  1.00  0.00     0.048 C 
ENDBRANCH   7   8
ENDBRANCH   1   7
BRANCH   2  20
HETATM   20  C6  UNK     1      17.460   0.383  35.597  1.00  0.00     0.375 C 
BRANCH  20  21
HETATM   21  C8  UNK     1      17.651   0.283  34.089  1.00  0.00     0.252 C 
HETATM   22  O2  UNK     1      17.357  -0.761  33.500  1.00  0.00    -0.271 OA
HETATM   23  N3  UNK     1      18.204   1.426  33.468  1.00  0.00    -0.321 N 
HETATM   24  C16 UNK     1      18.534   2.646  34.224  1.00  0.00     0.159 C 
BRANCH  23  25
HETATM   25  C14 UNK     1      18.575   1.416  32.067  1.00  0.00     0.037 A 
HETATM   26  C19 UNK     1      19.342   0.368  31.556  1.00  0.00     0.036 A 
HETATM   27  C22 UNK     1      19.697   0.359  30.208  1.00  0.00    -0.060 A 
HETATM   28  C24 UNK     1      19.287   1.395  29.370  1.00  0.00     0.007 A 
HETATM   29  C25 UNK     1      20.518  -0.760  29.661  1.00  0.00     0.048 C 
HETATM   30  C23 UNK     1      18.520   2.443  29.881  1.00  0.00     0.003 A 
HETATM   31  C20 UNK     1      18.164   2.453  31.230  1.00  0.00     0.030 A 
ENDBRANCH  23  25
ENDBRANCH  20  21
ENDBRANCH   2  20
TORSDOF 5
ENDMDL
MODEL 6
REMARK VINA RESULT:      -9.4      4.491     11.395
REMARK  5 active torsions:
REMARK  status: ('A' for Active; 'I' for Inactive)
REMARK    1  A    between atoms: C5_11  and  N1_4 
REMARK    2  A    between atoms: C6_12  and  N2_5 
REMARK    3  A    between atoms: C14_20  and  N3_6 
REMARK       I    between atoms: C8_14  and  N3_6 
REMARK    4  A    between atoms: C5_11  and  C7_13 
REMARK    5  A    between atoms: C6_12  and  C8_14 
ROOT
HETATM    1  N1  UNK     1      19.429  -2.479  35.759  1.00  0.00     0.096 N 
HETATM    2  N2  UNK     1      18.671   0.006  34.491  1.00  0.00     0.100 N 
HETATM    3  C1  UNK     1      20.019  -2.065  34.480  1.00  0.00     0.303 C 
HETATM    4  C2  UNK     1      19.046  -1.304  36.552  1.00  0.00     0.303 C 
HETATM    5  C3  UNK     1      19.052  -1.169  33.698  1.00  0.00     0.303 C 
HETATM    6  C4  UNK     1      18.080  -0.409  35.769  1.00  0.00     0.303 C 
ENDROOT
BRANCH   1   7
HETATM    7  C5  UNK     1      20.354  -3.330  36.506  1.00  0.00     0.312 C 
BRANCH   7   8
HETATM    8  C7  UNK     1      19.741  -4.636  36.877  1.00  0.00    -0.011 A 
HETATM    9  C10 UNK     1      18.510  -4.968  36.463  1.00  0.00     0.092 A 
HETATM   10  C13 UNK     1      17.864  -6.246  36.804  1.00  0.00     0.288 A 
HETATM   11  O1  UNK     1      18.595  -7.121  37.593  1.00  0.00    -0.275 OA
HETATM   12  O3  UNK     1      16.737  -6.515  36.407  1.00  0.00    -0.260 OA
HETATM   13  C11 UNK     1      19.891  -6.801  38.044  1.00  0.00     0.090 A 
HETATM   14  C9  UNK     1      20.490  -5.585  37.712  1.00  0.00     0.006 A 
HETATM   15  C15 UNK     1      20.533  -7.758  38.831  1.00  0.00     0.045 A 
HETATM   16  C12 UNK     1      21.781  -5.342  38.199  1.00  0.00     0.015 A 
HETATM   17  C18 UNK     1      22.438  -6.292  38.991  1.00  0.00     0.007 A 
HETATM   18  C17 UNK     1      21.814  -7.498  39.306  1.00  0.00    -0.059 A 
HETATM   19  C21 UNK     1      22.519  -8.505  40.149  1.00  0.00     0.048 C 
ENDBRANCH   7   8
ENDBRANCH   1   7
BRANCH   2  20
HETATM   20  C6  UNK     1      17.748   0.859  33.744  1.00  0.00     0.375 C 
BRANCH  20  21
HETATM   21  C8  UNK     1      18.066   2.322  34.029  1.00  0.00     0.252 C 
HETATM   22  O2  UNK     1      18.128   2.721  35.194  1.00  0.00    -0.271 OA
HETATM   23  N3  UNK     1      18.233   3.141  32.889  1.00  0.00    -0.321 N 
HETATM   24  C16 UNK     1      18.148   2.606  31.520  1.00  0.00     0.159 C 
BRANCH  23  25
HETATM   25  C14 UNK     1      18.393   4.576  33.012  1.00  0.00     0.037 A 
HETATM   26  C19 UNK     1      17.515   5.436  32.350  1.00  0.00     0.036 A 
HETATM   27  C22 UNK     1      17.669   6.816  32.470  1.00  0.00    -0.060 A 
HETATM   28  C24 UNK     1      18.699   7.338  33.251  1.00  0.00     0.007 A 
HETATM   29  C25 UNK     1      16.731   7.735  31.763  1.00  0.00     0.048 C 
HETATM   30  C23 UNK     1      19.577   6.479  33.912  1.00  0.00     0.003 A 
HETATM   31  C20 UNK     1      19.424   5.098  33.793  1.00  0.00     0.030 A 
ENDBRANCH  23  25
ENDBRANCH  20  21
ENDBRANCH   2  20
TORSDOF 5
ENDMDL
MODEL 7
REMARK VINA RESULT:      -9.4      5.053      9.795
REMARK  5 active torsions:
REMARK  status: ('A' for Active; 'I' for Inactive)
REMARK    1  A    between atoms: C5_11  and  N1_4 
REMARK    2  A    between atoms: C6_12  and  N2_5 
REMARK    3  A    between atoms: C14_20  and  N3_6 
REMARK       I    between atoms: C8_14  and  N3_6 
REMARK    4  A    between atoms: C5_11  and  C7_13 
REMARK    5  A    between atoms: C6_12  and  C8_14 
ROOT
HETATM    1  N1  UNK     1      29.320  -9.042  37.871  1.00  0.00     0.096 N 
HETATM    2  N2  UNK     1      26.545  -9.390  37.136  1.00  0.00     0.100 N 
HETATM    3  C1  UNK     1      28.759  -8.391  36.680  1.00  0.00     0.303 C 
HETATM    4  C2  UNK     1      28.279  -9.233  38.889  1.00  0.00     0.303 C 
HETATM    5  C3  UNK     1      27.586  -9.202  36.118  1.00  0.00     0.303 C 
HETATM    6  C4  UNK     1      27.106 -10.042  38.325  1.00  0.00     0.303 C 
ENDROOT
BRANCH   1   7
HETATM    7  C5  UNK     1      30.436  -8.267  38.409  1.00  0.00     0.312 C 
BRANCH   7   8
HETATM    8  C7  UNK     1      30.252  -6.803  38.207  1.00  0.00    -0.011 A 
HETATM    9  C10 UNK     1      29.201  -6.157  38.732  1.00  0.00     0.092 A 
HETATM   10  C13 UNK     1      28.979  -4.712  38.559  1.00  0.00     0.288 A 
HETATM   11  O1  UNK     1      29.922  -4.021  37.815  1.00  0.00    -0.275 OA
HETATM   12  O3  UNK     1      28.005  -4.155  39.054  1.00  0.00    -0.260 OA
HETATM   13  C11 UNK     1      31.037  -4.671  37.251  1.00  0.00     0.090 A 
HETATM   14  C9  UNK     1      31.235  -6.043  37.422  1.00  0.00     0.006 A 
HETATM   15  C15 UNK     1      31.922  -3.877  36.521  1.00  0.00     0.045 A 
HETATM   16  C12 UNK     1      32.369  -6.615  36.831  1.00  0.00     0.015 A 
HETATM   17  C18 UNK     1      33.265  -5.830  36.095  1.00  0.00     0.007 A 
HETATM   18  C17 UNK     1      33.041  -4.463  35.940  1.00  0.00    -0.059 A 
HETATM   19  C21 UNK     1      34.000  -3.634  35.156  1.00  0.00     0.048 C 
ENDBRANCH   7   8
ENDBRANCH   1   7
BRANCH   2  20
HETATM   20  C6  UNK     1      25.427 -10.163  36.599  1.00  0.00     0.375 C 
BRANCH  20  21
HETATM   21  C8  UNK     1      24.128  -9.401  36.824  1.00  0.00     0.252 C 
HETATM   22  O2  UNK     1      24.143  -8.327  37.432  1.00  0.00    -0.271 OA
HETATM   23  N3  UNK     1      22.960 -10.029  36.332  1.00  0.00    -0.321 N 
HETATM   24  C16 UNK     1      23.005 -11.312  35.612  1.00  0.00     0.159 C 
BRANCH  23  25
HETATM   25  C14 UNK     1      21.644  -9.488  36.606  1.00  0.00     0.037 A 
HETATM   26  C19 UNK     1      21.088  -8.537  35.749  1.00  0.00     0.036 A 
HETATM   27  C22 UNK     1      19.821  -8.018  36.014  1.00  0.00    -0.060 A 
HETATM   28  C24 UNK     1      19.110  -8.448  37.133  1.00  0.00     0.007 A 
HETATM   29  C25 UNK     1      19.227  -7.001  35.099  1.00  0.00     0.048 C 
HETATM   30  C23 UNK     1      19.666  -9.399  37.989  1.00  0.00     0.003 A 
HETATM   31  C20 UNK     1      20.933  -9.919  37.726  1.00  0.00     0.030 A 
ENDBRANCH  23  25
ENDBRANCH  20  21
ENDBRANCH   2  20
TORSDOF 5
ENDMDL
MODEL 8
REMARK VINA RESULT:      -9.4     10.374     14.817
REMARK  5 active torsions:
REMARK  status: ('A' for Active; 'I' for Inactive)
REMARK    1  A    between atoms: C5_11  and  N1_4 
REMARK    2  A    between atoms: C6_12  and  N2_5 
REMARK    3  A    between atoms: C14_20  and  N3_6 
REMARK       I    between atoms: C8_14  and  N3_6 
REMARK    4  A    between atoms: C5_11  and  C7_13 
REMARK    5  A    between atoms: C6_12  and  C8_14 
ROOT
HETATM    1  N1  UNK     1      15.894   8.462  33.143  1.00  0.00     0.096 N 
HETATM    2  N2  UNK     1      17.313   5.966  32.809  1.00  0.00     0.100 N 
HETATM    3  C1  UNK     1      16.210   7.938  31.809  1.00  0.00     0.303 C 
HETATM    4  C2  UNK     1      15.737   7.362  34.103  1.00  0.00     0.303 C 
HETATM    5  C3  UNK     1      17.471   7.067  31.851  1.00  0.00     0.303 C 
HETATM    6  C4  UNK     1      16.998   6.490  34.143  1.00  0.00     0.303 C 
ENDROOT
BRANCH   1   7
HETATM    7  C5  UNK     1      14.690   9.290  33.103  1.00  0.00     0.312 C 
BRANCH   7   8
HETATM    8  C7  UNK     1      14.941  10.672  33.598  1.00  0.00    -0.011 A 
HETATM    9  C10 UNK     1      16.142  11.032  34.072  1.00  0.00     0.092 A 
HETATM   10  C13 UNK     1      16.437  12.385  34.571  1.00  0.00     0.288 A 
HETATM   11  O1  UNK     1      15.399  13.303  34.532  1.00  0.00    -0.275 OA
HETATM   12  O3  UNK     1      17.548  12.678  34.997  1.00  0.00    -0.260 OA
HETATM   13  C11 UNK     1      14.125  12.955  34.040  1.00  0.00     0.090 A 
HETATM   14  C9  UNK     1      13.860  11.668  33.570  1.00  0.00     0.006 A 
HETATM   15  C15 UNK     1      13.156  13.959  34.048  1.00  0.00     0.045 A 
HETATM   16  C12 UNK     1      12.569  11.401  33.096  1.00  0.00     0.015 A 
HETATM   17  C18 UNK     1      11.586  12.399  33.099  1.00  0.00     0.007 A 
HETATM   18  C17 UNK     1      11.880  13.675  33.574  1.00  0.00    -0.059 A 
HETATM   19  C21 UNK     1      10.828  14.732  33.574  1.00  0.00     0.048 C 
ENDBRANCH   7   8
ENDBRANCH   1   7
BRANCH   2  20
HETATM   20  C6  UNK     1      18.515   5.135  32.848  1.00  0.00     0.375 C 
BRANCH  20  21
HETATM   21  C8  UNK     1      18.271   3.850  32.068  1.00  0.00     0.252 C 
HETATM   22  O2  UNK     1      17.652   2.921  32.593  1.00  0.00    -0.271 OA
HETATM   23  N3  UNK     1      18.826   3.812  30.768  1.00  0.00    -0.321 N 
HETATM   24  C16 UNK     1      19.554   4.955  30.194  1.00  0.00     0.159 C 
BRANCH  23  25
HETATM   25  C14 UNK     1      18.796   2.601  29.973  1.00  0.00     0.037 A 
HETATM   26  C19 UNK     1      19.686   1.562  30.249  1.00  0.00     0.036 A 
HETATM   27  C22 UNK     1      19.655   0.397  29.484  1.00  0.00    -0.060 A 
HETATM   28  C24 UNK     1      18.736   0.269  28.444  1.00  0.00     0.007 A 
HETATM   29  C25 UNK     1      20.607  -0.713  29.779  1.00  0.00     0.048 C 
HETATM   30  C23 UNK     1      17.846   1.307  28.168  1.00  0.00     0.003 A 
HETATM   31  C20 UNK     1      17.876   2.473  28.932  1.00  0.00     0.030 A 
ENDBRANCH  23  25
ENDBRANCH  20  21
ENDBRANCH   2  20
TORSDOF 5
ENDMDL
MODEL 9
REMARK VINA RESULT:      -9.2      8.730     11.995
REMARK  5 active torsions:
REMARK  status: ('A' for Active; 'I' for Inactive)
REMARK    1  A    between atoms: C5_11  and  N1_4 
REMARK    2  A    between atoms: C6_12  and  N2_5 
REMARK    3  A    between atoms: C14_20  and  N3_6 
REMARK       I    between atoms: C8_14  and  N3_6 
REMARK    4  A    between atoms: C5_11  and  C7_13 
REMARK    5  A    between atoms: C6_12  and  C8_14 
ROOT
HETATM    1  N1  UNK     1      32.345  -6.838  36.332  1.00  0.00     0.096 N 
HETATM    2  N2  UNK     1      33.337  -7.264  33.650  1.00  0.00     0.100 N 
HETATM    3  C1  UNK     1      33.447  -7.770  36.066  1.00  0.00     0.303 C 
HETATM    4  C2  UNK     1      32.332  -5.760  35.334  1.00  0.00     0.303 C 
HETATM    5  C3  UNK     1      33.347  -8.341  34.647  1.00  0.00     0.303 C 
HETATM    6  C4  UNK     1      32.234  -6.332  33.916  1.00  0.00     0.303 C 
ENDROOT
BRANCH   1   7
HETATM    7  C5  UNK     1      32.443  -6.291  37.684  1.00  0.00     0.312 C 
BRANCH   7   8
HETATM    8  C7  UNK     1      31.105  -6.018  38.279  1.00  0.00    -0.011 A 
HETATM    9  C10 UNK     1      30.747  -4.778  38.644  1.00  0.00     0.092 A 
HETATM   10  C13 UNK     1      29.436  -4.461  39.234  1.00  0.00     0.288 A 
HETATM   11  O1  UNK     1      28.558  -5.520  39.404  1.00  0.00    -0.275 OA
HETATM   12  O3  UNK     1      29.144  -3.315  39.556  1.00  0.00    -0.260 OA
HETATM   13  C11 UNK     1      28.904  -6.833  39.030  1.00  0.00     0.090 A 
HETATM   14  C9  UNK     1      30.151  -7.119  38.472  1.00  0.00     0.006 A 
HETATM   15  C15 UNK     1      27.942  -7.820  39.248  1.00  0.00     0.045 A 
HETATM   16  C12 UNK     1      30.420  -8.450  38.127  1.00  0.00     0.015 A 
HETATM   17  C18 UNK     1      29.464  -9.451  38.339  1.00  0.00     0.007 A 
HETATM   18  C17 UNK     1      28.227  -9.136  38.899  1.00  0.00    -0.059 A 
HETATM   19  C21 UNK     1      27.213 -10.206  39.122  1.00  0.00     0.048 C 
ENDBRANCH   7   8
ENDBRANCH   1   7
BRANCH   2  20
HETATM   20  C6  UNK     1      33.241  -7.810  32.297  1.00  0.00     0.375 C 
BRANCH  20  21
HETATM   21  C8  UNK     1      31.795  -8.188  32.003  1.00  0.00     0.252 C 
HETATM   22  O2  UNK     1      31.175  -8.905  32.793  1.00  0.00    -0.271 OA
HETATM   23  N3  UNK     1      31.274  -7.699  30.783  1.00  0.00    -0.321 N 
HETATM   24  C16 UNK     1      32.064  -6.846  29.880  1.00  0.00     0.159 C 
BRANCH  23  25
HETATM   25  C14 UNK     1      29.966  -8.103  30.309  1.00  0.00     0.037 A 
HETATM   26  C19 UNK     1      28.840  -7.349  30.641  1.00  0.00     0.036 A 
HETATM   27  C22 UNK     1      27.581  -7.738  30.184  1.00  0.00    -0.060 A 
HETATM   28  C24 UNK     1      27.447  -8.880  29.396  1.00  0.00     0.007 A 
HETATM   29  C25 UNK     1      26.377  -6.932  30.540  1.00  0.00     0.048 C 
HETATM   30  C23 UNK     1      28.573  -9.634  29.064  1.00  0.00     0.003 A 
HETATM   31  C20 UNK     1      29.832  -9.246  29.521  1.00  0.00     0.030 A 
ENDBRANCH  23  25
ENDBRANCH  20  21
ENDBRANCH   2  20
TORSDOF 5
ENDMDL
MODEL 10
REMARK VINA RESULT:      -9.0      6.154     10.355
REMARK  5 active torsions:
REMARK  status: ('A' for Active; 'I' for Inactive)
REMARK    1  A    between atoms: C5_11  and  N1_4 
REMARK    2  A    between atoms: C6_12  and  N2_5 
REMARK    3  A    between atoms: C14_20  and  N3_6 
REMARK       I    between atoms: C8_14  and  N3_6 
REMARK    4  A    between atoms: C5_11  and  C7_13 
REMARK    5  A    between atoms: C6_12  and  C8_14 
ROOT
HETATM    1  N1  UNK     1      26.782  -9.438  37.514  1.00  0.00     0.096 N 
HETATM    2  N2  UNK     1      29.655  -9.173  37.711  1.00  0.00     0.100 N 
HETATM    3  C1  UNK     1      27.442  -9.239  38.810  1.00  0.00     0.303 C 
HETATM    4  C2  UNK     1      27.567  -8.818  36.438  1.00  0.00     0.303 C 
HETATM    5  C3  UNK     1      28.871  -9.795  38.785  1.00  0.00     0.303 C 
HETATM    6  C4  UNK     1      28.995  -9.374  36.415  1.00  0.00     0.303 C 
ENDROOT
BRANCH   1   7
HETATM    7  C5  UNK     1      25.422  -8.905  37.537  1.00  0.00     0.312 C 
BRANCH   7   8
HETATM    8  C7  UNK     1      24.452  -9.807  36.856  1.00  0.00    -0.011 A 
HETATM    9  C10 UNK     1      24.853 -10.952  36.285  1.00  0.00     0.092 A 
HETATM   10  C13 UNK     1      23.931 -11.875  35.602  1.00  0.00     0.288 A 
HETATM   11  O1  UNK     1      22.595 -11.509  35.568  1.00  0.00    -0.275 OA
HETATM   12  O3  UNK     1      24.334 -12.914  35.091  1.00  0.00    -0.260 OA
HETATM   13  C11 UNK     1      22.143 -10.312  36.159  1.00  0.00     0.090 A 
HETATM   14  C9  UNK     1      23.028  -9.446  36.803  1.00  0.00     0.006 A 
HETATM   15  C15 UNK     1      20.776 -10.045  36.064  1.00  0.00     0.045 A 
HETATM   16  C12 UNK     1      22.501  -8.277  37.366  1.00  0.00     0.015 A 
HETATM   17  C18 UNK     1      21.132  -7.996  37.279  1.00  0.00     0.007 A 
HETATM   18  C17 UNK     1      20.272  -8.878  36.629  1.00  0.00    -0.059 A 
HETATM   19  C21 UNK     1      18.815  -8.572  36.540  1.00  0.00     0.048 C 
ENDBRANCH   7   8
ENDBRANCH   1   7
BRANCH   2  20
HETATM   20  C6  UNK     1      31.017  -9.704  37.688  1.00  0.00     0.375 C 
BRANCH  20  21
HETATM   21  C8  UNK     1      32.010  -8.551  37.615  1.00  0.00     0.252 C 
HETATM   22  O2  UNK     1      32.257  -7.888  38.625  1.00  0.00    -0.271 OA
HETATM   23  N3  UNK     1      32.560  -8.303  36.336  1.00  0.00    -0.321 N 
HETATM   24  C16 UNK     1      32.227  -9.130  35.166  1.00  0.00     0.159 C 
BRANCH  23  25
HETATM   25  C14 UNK     1      33.403  -7.149  36.093  1.00  0.00     0.037 A 
HETATM   26  C19 UNK     1      32.843  -5.871  36.052  1.00  0.00     0.036 A 
HETATM   27  C22 UNK     1      33.655  -4.762  35.818  1.00  0.00    -0.060 A 
HETATM   28  C24 UNK     1      35.025  -4.929  35.625  1.00  0.00     0.007 A 
HETATM   29  C25 UNK     1      33.056  -3.397  35.774  1.00  0.00     0.048 C 
HETATM   30  C23 UNK     1      35.586  -6.206  35.666  1.00  0.00     0.003 A 
HETATM   31  C20 UNK     1      34.774  -7.316  35.900  1.00  0.00     0.030 A 
ENDBRANCH  23  25
ENDBRANCH  20  21
ENDBRANCH   2  20
TORSDOF 5
ENDMDL
