MODEL 1
REMARK VINA RESULT:      -9.4      0.000      0.000
REMARK  3 active torsions:
REMARK  status: ('A' for Active; 'I' for Inactive)
REMARK    1  A    between atoms: C12_16  and  O3_4 
REMARK    2  A    between atoms: C14_18  and  O3_4 
REMARK    3  A    between atoms: C14_18  and  C15_19 
ROOT
HETATM    1  O1  UNK     1      18.569   0.908  33.261  1.00  0.00    -0.274 OA
HETATM    2  O2  UNK     1      19.036  -1.302  33.522  1.00  0.00    -0.259 OA
HETATM    3  C1  UNK     1      19.679   0.600  29.079  1.00  0.00     0.040 C 
HETATM    4  C2  UNK     1      19.823  -0.828  28.550  1.00  0.00     0.005 C 
HETATM    5  C3  UNK     1      20.590  -1.696  29.533  1.00  0.00     0.005 C 
HETATM    6  C4  UNK     1      19.325   0.685  30.548  1.00  0.00    -0.033 A 
HETATM    7  C5  UNK     1      19.871  -1.742  30.880  1.00  0.00     0.045 C 
HETATM    8  C6  UNK     1      19.391  -0.391  31.355  1.00  0.00     0.025 A 
HETATM    9  C7  UNK     1      18.900   1.983  31.099  1.00  0.00     0.005 A 
HETATM   10  C8  UNK     1      18.530   2.050  32.441  1.00  0.00     0.092 A 
HETATM   11  C9  UNK     1      18.997  -0.321  32.787  1.00  0.00     0.295 A 
HETATM   12  C10 UNK     1      18.851   3.172  30.358  1.00  0.00     0.017 A 
HETATM   13  C11 UNK     1      18.111   3.237  33.045  1.00  0.00     0.075 A 
HETATM   14  C12 UNK     1      18.064   4.404  32.290  1.00  0.00     0.071 A 
HETATM   15  C13 UNK     1      18.435   4.372  30.948  1.00  0.00     0.038 A 
ENDROOT
BRANCH  14  16
HETATM   16  O3  UNK     1      17.661   5.571  32.859  1.00  0.00    -0.347 OA
BRANCH  16  17
HETATM   17  C14 UNK     1      18.396   6.029  33.994  1.00  0.00     0.214 C 
BRANCH  17  18
HETATM   18  C15 UNK     1      18.415   7.530  33.992  1.00  0.00    -0.034 A 
HETATM   19  C16 UNK     1      17.256   8.233  33.682  1.00  0.00     0.011 A 
HETATM   20  C18 UNK     1      17.273   9.627  33.680  1.00  0.00     0.024 A 
HETATM   21  C20 UNK     1      18.450  10.310  33.987  1.00  0.00     0.034 A 
HETATM   22  C19 UNK     1      19.609   9.599  34.295  1.00  0.00     0.024 A 
HETATM   23 Cl1  UNK     1      18.472  12.031  33.985  1.00  0.00    -0.084 Cl
HETATM   24  C17 UNK     1      19.592   8.203  34.297  1.00  0.00     0.011 A 
ENDBRANCH  17  18
ENDBRANCH  16  17
ENDBRANCH  14  16
TORSDOF 3
ENDMDL
MODEL 2
REMARK VINA RESULT:      -9.2      1.616      1.869
REMARK  3 active torsions:
REMARK  status: ('A' for Active; 'I' for Inactive)
REMARK    1  A    between atoms: C12_16  and  O3_4 
REMARK    2  A    between atoms: C14_18  and  O3_4 
REMARK    3  A    between atoms: C14_18  and  C15_19 
ROOT
HETATM    1  O1  UNK     1      18.477   1.241  33.189  1.00  0.00    -0.274 OA
HETATM    2  O2  UNK     1      18.870  -0.936  33.718  1.00  0.00    -0.259 OA
HETATM    3  C1  UNK     1      19.753   0.433  29.123  1.00  0.00     0.040 C 
HETATM    4  C2  UNK     1      19.878  -1.049  28.765  1.00  0.00     0.005 C 
HETATM    5  C3  UNK     1      20.578  -1.818  29.874  1.00  0.00     0.005 C 
HETATM    6  C4  UNK     1      19.340   0.693  30.556  1.00  0.00    -0.033 A 
HETATM    7  C5  UNK     1      19.802  -1.693  31.183  1.00  0.00     0.045 C 
HETATM    8  C6  UNK     1      19.341  -0.286  31.481  1.00  0.00     0.025 A 
HETATM    9  C7  UNK     1      18.930   2.054  30.938  1.00  0.00     0.005 A 
HETATM   10  C8  UNK     1      18.506   2.283  32.245  1.00  0.00     0.092 A 
HETATM   11  C9  UNK     1      18.889  -0.044  32.876  1.00  0.00     0.295 A 
HETATM   12  C10 UNK     1      18.946   3.153  30.065  1.00  0.00     0.017 A 
HETATM   13  C11 UNK     1      18.097   3.541  32.693  1.00  0.00     0.075 A 
HETATM   14  C12 UNK     1      18.114   4.615  31.809  1.00  0.00     0.071 A 
HETATM   15  C13 UNK     1      18.540   4.421  30.498  1.00  0.00     0.038 A 
ENDROOT
BRANCH  14  16
HETATM   16  O3  UNK     1      17.722   5.848  32.224  1.00  0.00    -0.347 OA
BRANCH  16  17
HETATM   17  C14 UNK     1      17.403   5.999  33.607  1.00  0.00     0.214 C 
BRANCH  17  18
HETATM   18  C15 UNK     1      16.477   7.167  33.772  1.00  0.00    -0.034 A 
HETATM   19  C16 UNK     1      15.330   7.253  32.988  1.00  0.00     0.011 A 
HETATM   20  C18 UNK     1      14.469   8.339  33.141  1.00  0.00     0.024 A 
HETATM   21  C20 UNK     1      14.759   9.333  34.075  1.00  0.00     0.034 A 
HETATM   22  C19 UNK     1      15.910   9.241  34.857  1.00  0.00     0.024 A 
HETATM   23 Cl1  UNK     1      13.696  10.673  34.265  1.00  0.00    -0.084 Cl
HETATM   24  C17 UNK     1      16.773   8.154  34.705  1.00  0.00     0.011 A 
ENDBRANCH  17  18
ENDBRANCH  16  17
ENDBRANCH  14  16
TORSDOF 3
ENDMDL
MODEL 3
REMARK VINA RESULT:      -9.1     23.227     25.181
REMARK  3 active torsions:
REMARK  status: ('A' for Active; 'I' for Inactive)
REMARK    1  A    between atoms: C12_16  and  O3_4 
REMARK    2  A    between atoms: C14_18  and  O3_4 
REMARK    3  A    between atoms: C14_18  and  C15_19 
ROOT
HETATM    1  O1  UNK     1      13.930   4.777   8.786  1.00  0.00    -0.274 OA
HETATM    2  O2  UNK     1      15.902   4.281   9.806  1.00  0.00    -0.259 OA
HETATM    3  C1  UNK     1      14.842   8.998   9.182  1.00  0.00     0.040 C 
HETATM    4  C2  UNK     1      16.289   9.316   9.568  1.00  0.00     0.005 C 
HETATM    5  C3  UNK     1      16.768   8.399  10.681  1.00  0.00     0.005 C 
HETATM    6  C4  UNK     1      14.537   7.520   9.083  1.00  0.00    -0.033 A 
HETATM    7  C5  UNK     1      16.686   6.939  10.243  1.00  0.00     0.045 C 
HETATM    8  C6  UNK     1      15.393   6.588   9.545  1.00  0.00     0.025 A 
HETATM    9  C7  UNK     1      13.269   7.099   8.465  1.00  0.00     0.005 A 
HETATM   10  C8  UNK     1      13.009   5.737   8.332  1.00  0.00     0.092 A 
HETATM   11  C9  UNK     1      15.118   5.134   9.405  1.00  0.00     0.295 A 
HETATM   12  C10 UNK     1      12.288   7.989   8.003  1.00  0.00     0.017 A 
HETATM   13  C11 UNK     1      11.834   5.249   7.755  1.00  0.00     0.075 A 
HETATM   14  C12 UNK     1      10.877   6.150   7.298  1.00  0.00     0.071 A 
HETATM   15  C13 UNK     1      11.104   7.518   7.424  1.00  0.00     0.038 A 
ENDROOT
BRANCH  14  16
HETATM   16  O3  UNK     1       9.726   5.697   6.736  1.00  0.00    -0.347 OA
BRANCH  16  17
HETATM   17  C14 UNK     1       8.574   6.533   6.849  1.00  0.00     0.214 C 
BRANCH  17  18
HETATM   18  C15 UNK     1       7.989   6.377   8.222  1.00  0.00    -0.034 A 
HETATM   19  C16 UNK     1       7.710   7.507   8.984  1.00  0.00     0.011 A 
HETATM   20  C18 UNK     1       7.166   7.363  10.260  1.00  0.00     0.024 A 
HETATM   21  C20 UNK     1       6.905   6.090  10.766  1.00  0.00     0.034 A 
HETATM   22  C19 UNK     1       7.187   4.961   9.997  1.00  0.00     0.024 A 
HETATM   23 Cl1  UNK     1       6.233   5.911  12.341  1.00  0.00    -0.084 Cl
HETATM   24  C17 UNK     1       7.732   5.105   8.720  1.00  0.00     0.011 A 
ENDBRANCH  17  18
ENDBRANCH  16  17
ENDBRANCH  14  16
TORSDOF 3
ENDMDL
MODEL 4
REMARK VINA RESULT:      -8.8      6.236     10.007
REMARK  3 active torsions:
REMARK  status: ('A' for Active; 'I' for Inactive)
REMARK    1  A    between atoms: C12_16  and  O3_4 
REMARK    2  A    between atoms: C14_18  and  O3_4 
REMARK    3  A    between atoms: C14_18  and  C15_19 
ROOT
HETATM    1  O1  UNK     1      18.462   0.659  33.467  1.00  0.00    -0.274 OA
HETATM    2  O2  UNK     1      17.881   2.289  31.990  1.00  0.00    -0.259 OA
HETATM    3  C1  UNK     1      20.492  -1.452  30.268  1.00  0.00     0.040 C 
HETATM    4  C2  UNK     1      20.707  -0.639  28.989  1.00  0.00     0.005 C 
HETATM    5  C3  UNK     1      19.452   0.133  28.619  1.00  0.00     0.005 C 
HETATM    6  C4  UNK     1      19.751  -0.708  31.358  1.00  0.00    -0.033 A 
HETATM    7  C5  UNK     1      19.059   1.086  29.745  1.00  0.00     0.045 C 
HETATM    8  C6  UNK     1      19.124   0.459  31.118  1.00  0.00     0.025 A 
HETATM    9  C7  UNK     1      19.722  -1.284  32.713  1.00  0.00     0.005 A 
HETATM   10  C8  UNK     1      19.081  -0.576  33.727  1.00  0.00     0.092 A 
HETATM   11  C9  UNK     1      18.438   1.216  32.199  1.00  0.00     0.295 A 
HETATM   12  C10 UNK     1      20.297  -2.518  33.054  1.00  0.00     0.017 A 
HETATM   13  C11 UNK     1      19.008  -1.046  35.040  1.00  0.00     0.075 A 
HETATM   14  C12 UNK     1      19.589  -2.268  35.358  1.00  0.00     0.071 A 
HETATM   15  C13 UNK     1      20.232  -3.004  34.365  1.00  0.00     0.038 A 
ENDROOT
BRANCH  14  16
HETATM   16  O3  UNK     1      19.528  -2.745  36.629  1.00  0.00    -0.347 OA
BRANCH  16  17
HETATM   17  C14 UNK     1      20.648  -3.497  37.097  1.00  0.00     0.214 C 
BRANCH  17  18
HETATM   18  C15 UNK     1      20.204  -4.896  37.408  1.00  0.00    -0.034 A 
HETATM   19  C16 UNK     1      19.083  -5.420  36.771  1.00  0.00     0.011 A 
HETATM   20  C18 UNK     1      18.670  -6.720  37.060  1.00  0.00     0.024 A 
HETATM   21  C20 UNK     1      19.379  -7.488  37.983  1.00  0.00     0.034 A 
HETATM   22  C19 UNK     1      20.502  -6.956  38.618  1.00  0.00     0.024 A 
HETATM   23 Cl1  UNK     1      18.870  -9.093  38.340  1.00  0.00    -0.084 Cl
HETATM   24  C17 UNK     1      20.915  -5.655  38.330  1.00  0.00     0.011 A 
ENDBRANCH  17  18
ENDBRANCH  16  17
ENDBRANCH  14  16
TORSDOF 3
ENDMDL
MODEL 5
REMARK VINA RESULT:      -8.7     16.357     19.264
REMARK  3 active torsions:
REMARK  status: ('A' for Active; 'I' for Inactive)
REMARK    1  A    between atoms: C12_16  and  O3_4 
REMARK    2  A    between atoms: C14_18  and  O3_4 
REMARK    3  A    between atoms: C14_18  and  C15_19 
ROOT
HETATM    1  O1  UNK     1      30.533  -4.931  38.405  1.00  0.00    -0.274 OA
HETATM    2  O2  UNK     1      28.426  -4.452  39.116  1.00  0.00    -0.259 OA
HETATM    3  C1  UNK     1      29.513  -9.146  38.370  1.00  0.00     0.040 C 
HETATM    4  C2  UNK     1      28.019  -9.453  38.490  1.00  0.00     0.005 C 
HETATM    5  C3  UNK     1      27.374  -8.596  39.566  1.00  0.00     0.005 C 
HETATM    6  C4  UNK     1      29.850  -7.671  38.419  1.00  0.00    -0.033 A 
HETATM    7  C5  UNK     1      27.546  -7.113  39.244  1.00  0.00     0.045 C 
HETATM    8  C6  UNK     1      28.941  -6.751  38.793  1.00  0.00     0.025 A 
HETATM    9  C7  UNK     1      31.208  -7.243  38.047  1.00  0.00     0.005 A 
HETATM   10  C8  UNK     1      31.504  -5.882  38.047  1.00  0.00     0.092 A 
HETATM   11  C9  UNK     1      29.255  -5.297  38.795  1.00  0.00     0.295 A 
HETATM   12  C10 UNK     1      32.241  -8.126  37.696  1.00  0.00     0.017 A 
HETATM   13  C11 UNK     1      32.765  -5.387  37.705  1.00  0.00     0.075 A 
HETATM   14  C12 UNK     1      33.772  -6.280  37.355  1.00  0.00     0.071 A 
HETATM   15  C13 UNK     1      33.511  -7.648  37.352  1.00  0.00     0.038 A 
ENDROOT
BRANCH  14  16
HETATM   16  O3  UNK     1      35.007  -5.820  37.020  1.00  0.00    -0.347 OA
BRANCH  16  17
HETATM   17  C14 UNK     1      35.146  -5.199  35.743  1.00  0.00     0.214 C 
BRANCH  17  18
HETATM   18  C15 UNK     1      35.549  -6.235  34.735  1.00  0.00    -0.034 A 
HETATM   19  C16 UNK     1      36.715  -6.969  34.930  1.00  0.00     0.011 A 
HETATM   20  C18 UNK     1      37.089  -7.932  33.994  1.00  0.00     0.024 A 
HETATM   21  C20 UNK     1      36.296  -8.156  32.869  1.00  0.00     0.034 A 
HETATM   22  C19 UNK     1      35.129  -7.417  32.679  1.00  0.00     0.024 A 
HETATM   23 Cl1  UNK     1      36.758  -9.346  31.713  1.00  0.00    -0.084 Cl
HETATM   24  C17 UNK     1      34.754  -6.453  33.616  1.00  0.00     0.011 A 
ENDBRANCH  17  18
ENDBRANCH  16  17
ENDBRANCH  14  16
TORSDOF 3
ENDMDL
MODEL 6
REMARK VINA RESULT:      -8.6     15.328     19.869
REMARK  3 active torsions:
REMARK  status: ('A' for Active; 'I' for Inactive)
REMARK    1  A    between atoms: C12_16  and  O3_4 
REMARK    2  A    between atoms: C14_18  and  O3_4 
REMARK    3  A    between atoms: C14_18  and  C15_19 
ROOT
HETATM    1  O1  UNK     1      19.319   1.325  15.148  1.00  0.00    -0.274 OA
HETATM    2  O2  UNK     1      19.493   3.441  15.964  1.00  0.00    -0.259 OA
HETATM    3  C1  UNK     1      18.729  -0.134  19.190  1.00  0.00     0.040 C 
HETATM    4  C2  UNK     1      18.438   0.946  20.233  1.00  0.00     0.005 C 
HETATM    5  C3  UNK     1      19.368   2.135  20.058  1.00  0.00     0.005 C 
HETATM    6  C4  UNK     1      18.966   0.399  17.794  1.00  0.00    -0.033 A 
HETATM    7  C5  UNK     1      19.204   2.741  18.665  1.00  0.00     0.045 C 
HETATM    8  C6  UNK     1      19.156   1.712  17.560  1.00  0.00     0.025 A 
HETATM    9  C7  UNK     1      18.987  -0.550  16.668  1.00  0.00     0.005 A 
HETATM   10  C8  UNK     1      19.159  -0.053  15.378  1.00  0.00     0.092 A 
HETATM   11  C9  UNK     1      19.339   2.244  16.184  1.00  0.00     0.295 A 
HETATM   12  C10 UNK     1      18.855  -1.939  16.811  1.00  0.00     0.017 A 
HETATM   13  C11 UNK     1      19.189  -0.880  14.253  1.00  0.00     0.075 A 
HETATM   14  C12 UNK     1      19.049  -2.254  14.416  1.00  0.00     0.071 A 
HETATM   15  C13 UNK     1      18.884  -2.783  15.694  1.00  0.00     0.038 A 
ENDROOT
BRANCH  14  16
HETATM   16  O3  UNK     1      19.078  -3.078  13.335  1.00  0.00    -0.347 OA
BRANCH  16  17
HETATM   17  C14 UNK     1      19.827  -4.287  13.457  1.00  0.00     0.214 C 
BRANCH  17  18
HETATM   18  C15 UNK     1      18.910  -5.455  13.247  1.00  0.00    -0.034 A 
HETATM   19  C16 UNK     1      18.037  -5.837  14.261  1.00  0.00     0.011 A 
HETATM   20  C18 UNK     1      17.185  -6.923  14.066  1.00  0.00     0.024 A 
HETATM   21  C20 UNK     1      17.211  -7.621  12.859  1.00  0.00     0.034 A 
HETATM   22  C19 UNK     1      18.089  -7.234  11.847  1.00  0.00     0.024 A 
HETATM   23 Cl1  UNK     1      16.158  -8.962  12.618  1.00  0.00    -0.084 Cl
HETATM   24  C17 UNK     1      18.942  -6.147  12.042  1.00  0.00     0.011 A 
ENDBRANCH  17  18
ENDBRANCH  16  17
ENDBRANCH  14  16
TORSDOF 3
ENDMDL
MODEL 7
REMARK VINA RESULT:      -8.6     13.385     15.856
REMARK  3 active torsions:
REMARK  status: ('A' for Active; 'I' for Inactive)
REMARK    1  A    between atoms: C12_16  and  O3_4 
REMARK    2  A    between atoms: C14_18  and  O3_4 
REMARK    3  A    between atoms: C14_18  and  C15_19 
ROOT
HETATM    1  O1  UNK     1      28.051  -5.280  39.187  1.00  0.00    -0.274 OA
HETATM    2  O2  UNK     1      29.659  -3.760  39.717  1.00  0.00    -0.259 OA
HETATM    3  C1  UNK     1      31.115  -7.886  37.566  1.00  0.00     0.040 C 
HETATM    4  C2  UNK     1      32.552  -7.500  37.923  1.00  0.00     0.005 C 
HETATM    5  C3  UNK     1      32.766  -6.003  37.768  1.00  0.00     0.005 C 
HETATM    6  C4  UNK     1      30.065  -6.944  38.112  1.00  0.00    -0.033 A 
HETATM    7  C5  UNK     1      31.810  -5.230  38.672  1.00  0.00     0.045 C 
HETATM    8  C6  UNK     1      30.391  -5.748  38.637  1.00  0.00     0.025 A 
HETATM    9  C7  UNK     1      28.652  -7.356  38.063  1.00  0.00     0.005 A 
HETATM   10  C8  UNK     1      27.690  -6.509  38.608  1.00  0.00     0.092 A 
HETATM   11  C9  UNK     1      29.366  -4.843  39.220  1.00  0.00     0.295 A 
HETATM   12  C10 UNK     1      28.203  -8.555  37.488  1.00  0.00     0.017 A 
HETATM   13  C11 UNK     1      26.328  -6.821  38.608  1.00  0.00     0.075 A 
HETATM   14  C12 UNK     1      25.905  -8.017  38.039  1.00  0.00     0.071 A 
HETATM   15  C13 UNK     1      26.842  -8.882  37.478  1.00  0.00     0.038 A 
ENDROOT
BRANCH  14  16
HETATM   16  O3  UNK     1      24.585  -8.340  38.026  1.00  0.00    -0.347 OA
BRANCH  16  17
HETATM   17  C14 UNK     1      23.793  -7.884  39.123  1.00  0.00     0.214 C 
BRANCH  17  18
HETATM   18  C15 UNK     1      22.394  -7.630  38.644  1.00  0.00    -0.034 A 
HETATM   19  C16 UNK     1      21.469  -7.041  39.500  1.00  0.00     0.011 A 
HETATM   20  C18 UNK     1      20.169  -6.804  39.056  1.00  0.00     0.024 A 
HETATM   21  C20 UNK     1      19.801  -7.158  37.758  1.00  0.00     0.034 A 
HETATM   22  C19 UNK     1      20.732  -7.749  36.905  1.00  0.00     0.024 A 
HETATM   23 Cl1  UNK     1      18.196  -6.866  37.209  1.00  0.00    -0.084 Cl
HETATM   24  C17 UNK     1      22.034  -7.987  37.350  1.00  0.00     0.011 A 
ENDBRANCH  17  18
ENDBRANCH  16  17
ENDBRANCH  14  16
TORSDOF 3
ENDMDL
MODEL 8
REMARK VINA RESULT:      -8.6      3.463      9.246
REMARK  3 active torsions:
REMARK  status: ('A' for Active; 'I' for Inactive)
REMARK    1  A    between atoms: C12_16  and  O3_4 
REMARK    2  A    between atoms: C14_18  and  O3_4 
REMARK    3  A    between atoms: C14_18  and  C15_19 
ROOT
HETATM    1  O1  UNK     1      15.685   7.481  33.593  1.00  0.00    -0.274 OA
HETATM    2  O2  UNK     1      14.253   9.146  34.186  1.00  0.00    -0.259 OA
HETATM    3  C1  UNK     1      18.987  10.275  33.909  1.00  0.00     0.040 C 
HETATM    4  C2  UNK     1      18.656  11.596  34.607  1.00  0.00     0.005 C 
HETATM    5  C3  UNK     1      17.327  12.149  34.119  1.00  0.00     0.005 C 
HETATM    6  C4  UNK     1      17.813   9.330  33.779  1.00  0.00    -0.033 A 
HETATM    7  C5  UNK     1      16.201  11.154  34.389  1.00  0.00     0.045 C 
HETATM    8  C6  UNK     1      16.551   9.731  34.024  1.00  0.00     0.025 A 
HETATM    9  C7  UNK     1      18.068   7.938  33.372  1.00  0.00     0.005 A 
HETATM   10  C8  UNK     1      16.992   7.056  33.298  1.00  0.00     0.092 A 
HETATM   11  C9  UNK     1      15.402   8.791  33.945  1.00  0.00     0.295 A 
HETATM   12  C10 UNK     1      19.336   7.436  33.042  1.00  0.00     0.017 A 
HETATM   13  C11 UNK     1      17.142   5.718  32.925  1.00  0.00     0.075 A 
HETATM   14  C12 UNK     1      18.409   5.240  32.607  1.00  0.00     0.071 A 
HETATM   15  C13 UNK     1      19.504   6.099  32.664  1.00  0.00     0.038 A 
ENDROOT
BRANCH  14  16
HETATM   16  O3  UNK     1      18.578   3.942  32.239  1.00  0.00    -0.347 OA
BRANCH  16  17
HETATM   17  C14 UNK     1      18.160   3.579  30.924  1.00  0.00     0.214 C 
BRANCH  17  18
HETATM   18  C15 UNK     1      18.706   2.221  30.594  1.00  0.00    -0.034 A 
HETATM   19  C16 UNK     1      18.848   1.841  29.263  1.00  0.00     0.011 A 
HETATM   20  C18 UNK     1      19.356   0.579  28.956  1.00  0.00     0.024 A 
HETATM   21  C20 UNK     1      19.718  -0.295  29.981  1.00  0.00     0.034 A 
HETATM   22  C19 UNK     1      19.573   0.092  31.313  1.00  0.00     0.024 A 
HETATM   23 Cl1  UNK     1      20.345  -1.853  29.602  1.00  0.00    -0.084 Cl
HETATM   24  C17 UNK     1      19.064   1.355  31.620  1.00  0.00     0.011 A 
ENDBRANCH  17  18
ENDBRANCH  16  17
ENDBRANCH  14  16
TORSDOF 3
ENDMDL
MODEL 9
REMARK VINA RESULT:      -8.5      2.013      3.010
REMARK  3 active torsions:
REMARK  status: ('A' for Active; 'I' for Inactive)
REMARK    1  A    between atoms: C12_16  and  O3_4 
REMARK    2  A    between atoms: C14_18  and  O3_4 
REMARK    3  A    between atoms: C14_18  and  C15_19 
ROOT
HETATM    1  O1  UNK     1      19.400   1.073  29.350  1.00  0.00    -0.274 OA
HETATM    2  O2  UNK     1      20.337  -0.525  28.030  1.00  0.00    -0.259 OA
HETATM    3  C1  UNK     1      20.058  -1.463  32.806  1.00  0.00     0.040 C 
HETATM    4  C2  UNK     1      20.991  -2.653  32.570  1.00  0.00     0.005 C 
HETATM    5  C3  UNK     1      20.665  -3.346  31.257  1.00  0.00     0.005 C 
HETATM    6  C4  UNK     1      19.815  -0.612  31.579  1.00  0.00    -0.033 A 
HETATM    7  C5  UNK     1      20.805  -2.372  30.089  1.00  0.00     0.045 C 
HETATM    8  C6  UNK     1      20.181  -1.021  30.350  1.00  0.00     0.025 A 
HETATM    9  C7  UNK     1      19.160   0.696  31.744  1.00  0.00     0.005 A 
HETATM   10  C8  UNK     1      18.978   1.500  30.621  1.00  0.00     0.092 A 
HETATM   11  C9  UNK     1      19.988  -0.166  29.149  1.00  0.00     0.295 A 
HETATM   12  C10 UNK     1      18.691   1.190  32.971  1.00  0.00     0.017 A 
HETATM   13  C11 UNK     1      18.370   2.755  30.686  1.00  0.00     0.075 A 
HETATM   14  C12 UNK     1      17.919   3.228  31.914  1.00  0.00     0.071 A 
HETATM   15  C13 UNK     1      18.078   2.446  33.055  1.00  0.00     0.038 A 
ENDROOT
BRANCH  14  16
HETATM   16  O3  UNK     1      17.322   4.447  32.000  1.00  0.00    -0.347 OA
BRANCH  16  17
HETATM   17  C14 UNK     1      17.878   5.501  31.215  1.00  0.00     0.214 C 
BRANCH  17  18
HETATM   18  C15 UNK     1      18.548   6.488  32.125  1.00  0.00    -0.034 A 
HETATM   19  C16 UNK     1      19.891   6.324  32.450  1.00  0.00     0.011 A 
HETATM   20  C18 UNK     1      20.513   7.242  33.296  1.00  0.00     0.024 A 
HETATM   21  C20 UNK     1      19.790   8.316  33.812  1.00  0.00     0.034 A 
HETATM   22  C19 UNK     1      18.444   8.475  33.483  1.00  0.00     0.024 A 
HETATM   23 Cl1  UNK     1      20.559   9.449  34.855  1.00  0.00    -0.084 Cl
HETATM   24  C17 UNK     1      17.820   7.556  32.637  1.00  0.00     0.011 A 
ENDBRANCH  17  18
ENDBRANCH  16  17
ENDBRANCH  14  16
TORSDOF 3
ENDMDL
MODEL 10
REMARK VINA RESULT:      -8.3      3.671      9.571
REMARK  3 active torsions:
REMARK  status: ('A' for Active; 'I' for Inactive)
REMARK    1  A    between atoms: C12_16  and  O3_4 
REMARK    2  A    between atoms: C14_18  and  O3_4 
REMARK    3  A    between atoms: C14_18  and  C15_19 
ROOT
HETATM    1  O1  UNK     1      18.574   9.522  33.458  1.00  0.00    -0.274 OA
HETATM    2  O2  UNK     1      18.697  11.603  34.369  1.00  0.00    -0.259 OA
HETATM    3  C1  UNK     1      14.277   9.572  34.044  1.00  0.00     0.040 C 
HETATM    4  C2  UNK     1      13.685  10.941  34.387  1.00  0.00     0.005 C 
HETATM    5  C3  UNK     1      14.532  11.653  35.429  1.00  0.00     0.005 C 
HETATM    6  C4  UNK     1      15.781   9.571  33.878  1.00  0.00    -0.033 A 
HETATM    7  C5  UNK     1      15.957  11.849  34.916  1.00  0.00     0.045 C 
HETATM    8  C6  UNK     1      16.536  10.621  34.254  1.00  0.00     0.025 A 
HETATM    9  C7  UNK     1      16.426   8.385  33.290  1.00  0.00     0.005 A 
HETATM   10  C8  UNK     1      17.806   8.402  33.094  1.00  0.00     0.092 A 
HETATM   11  C9  UNK     1      18.007  10.642  34.046  1.00  0.00     0.295 A 
HETATM   12  C10 UNK     1      15.738   7.221  32.917  1.00  0.00     0.017 A 
HETATM   13  C11 UNK     1      18.499   7.324  32.540  1.00  0.00     0.075 A 
HETATM   14  C12 UNK     1      17.797   6.182  32.172  1.00  0.00     0.071 A 
HETATM   15  C13 UNK     1      16.418   6.130  32.362  1.00  0.00     0.038 A 
ENDROOT
BRANCH  14  16
HETATM   16  O3  UNK     1      18.452   5.120  31.633  1.00  0.00    -0.347 OA
BRANCH  16  17
HETATM   17  C14 UNK     1      18.178   3.835  32.191  1.00  0.00     0.214 C 
BRANCH  17  18
HETATM   18  C15 UNK     1      18.447   2.783  31.155  1.00  0.00    -0.034 A 
HETATM   19  C16 UNK     1      19.048   1.586  31.529  1.00  0.00     0.011 A 
HETATM   20  C18 UNK     1      19.298   0.608  30.566  1.00  0.00     0.024 A 
HETATM   21  C20 UNK     1      18.947   0.835  29.236  1.00  0.00     0.034 A 
HETATM   22  C19 UNK     1      18.347   2.038  28.867  1.00  0.00     0.024 A 
HETATM   23 Cl1  UNK     1      19.256  -0.371  28.047  1.00  0.00    -0.084 Cl
HETATM   24  C17 UNK     1      18.096   3.017  29.830  1.00  0.00     0.011 A 
ENDBRANCH  17  18
ENDBRANCH  16  17
ENDBRANCH  14  16
TORSDOF 3
ENDMDL
