MODEL 1
REMARK VINA RESULT:      -8.1      0.000      0.000
REMARK  4 active torsions:
REMARK  status: ('A' for Active; 'I' for Inactive)
REMARK    1  A    between atoms: C16_22  and  O2_4 
REMARK    2  A    between atoms: C19_25  and  O3_5 
REMARK    3  A    between atoms: C22_28  and  O4_6 
REMARK    4  A    between atoms: C12_18  and  C3_9 
ROOT
HETATM    1 Cl1  UNK     1      33.050  -8.109  37.433  1.00  0.00    -0.081 Cl
HETATM    2  O1  UNK     1      31.760  -6.598  31.910  1.00  0.00    -0.334 OA
HETATM    3  C1  UNK     1      29.659  -8.015  33.414  1.00  0.00    -0.004 C 
HETATM    4  C2  UNK     1      29.318  -6.982  32.317  1.00  0.00     0.039 C 
HETATM    5  C3  UNK     1      30.462  -6.726  31.300  1.00  0.00     0.102 C 
HETATM    6  C4  UNK     1      28.987  -5.574  32.838  1.00  0.00     0.009 C 
HETATM    7  C5  UNK     1      28.503  -8.105  34.443  1.00  0.00     0.015 C 
HETATM    8  C6  UNK     1      29.684  -9.454  32.847  1.00  0.00     0.015 C 
HETATM    9  C7  UNK     1      30.162  -5.300  30.743  1.00  0.00     0.044 C 
HETATM   10  C8  UNK     1      29.008  -4.737  31.571  1.00  0.00     0.004 C 
HETATM   11  C9  UNK     1      31.023  -7.664  33.992  1.00  0.00    -0.014 A 
HETATM   12  C10 UNK     1      28.391  -9.569  34.883  1.00  0.00     0.001 C 
HETATM   13  C11 UNK     1      29.373 -10.359  34.031  1.00  0.00     0.001 C 
HETATM   14  C13 UNK     1      31.969  -7.010  33.193  1.00  0.00     0.080 A 
HETATM   15  C14 UNK     1      31.394  -7.988  35.310  1.00  0.00     0.037 A 
HETATM   16  C15 UNK     1      33.244  -6.708  33.693  1.00  0.00     0.075 A 
HETATM   17  C18 UNK     1      32.662  -7.682  35.807  1.00  0.00     0.067 A 
HETATM   18  C19 UNK     1      33.591  -7.044  34.997  1.00  0.00     0.090 A 
ENDROOT
BRANCH   5  19
HETATM   19  C12 UNK     1      30.516  -7.742  30.156  1.00  0.00     0.012 A 
HETATM   20  C16 UNK     1      31.720  -8.026  29.504  1.00  0.00     0.077 A 
HETATM   21  C20 UNK     1      31.752  -8.955  28.464  1.00  0.00     0.075 A 
HETATM   22  C22 UNK     1      30.581  -9.605  28.072  1.00  0.00     0.090 A 
HETATM   23  C21 UNK     1      29.377  -9.325  28.721  1.00  0.00     0.068 A 
HETATM   24  C17 UNK     1      29.345  -8.396  29.761  1.00  0.00     0.039 A 
HETATM   25 Cl2  UNK     1      27.915 -10.114  28.257  1.00  0.00    -0.081 Cl
BRANCH  20  26
HETATM   26  O2  UNK     1      32.873  -7.401  29.873  1.00  0.00    -0.360 OA
HETATM   27  H20 UNK     1      33.562  -8.070  30.027  1.00  0.00     0.217 HD
ENDBRANCH  20  26
BRANCH  22  28
HETATM   28  O4  UNK     1      30.641 -10.508  27.053  1.00  0.00    -0.359 OA
HETATM   29  H22 UNK     1      30.065 -11.263  27.261  1.00  0.00     0.217 HD
ENDBRANCH  22  28
ENDBRANCH   5  19
BRANCH  18  30
HETATM   30  O3  UNK     1      34.836  -6.730  35.449  1.00  0.00    -0.359 OA
HETATM   31  H21 UNK     1      35.185  -6.005  34.903  1.00  0.00     0.217 HD
ENDBRANCH  18  30
TORSDOF 4
ENDMDL
MODEL 2
REMARK VINA RESULT:      -8.1     20.849     23.326
REMARK  4 active torsions:
REMARK  status: ('A' for Active; 'I' for Inactive)
REMARK    1  A    between atoms: C16_22  and  O2_4 
REMARK    2  A    between atoms: C19_25  and  O3_5 
REMARK    3  A    between atoms: C22_28  and  O4_6 
REMARK    4  A    between atoms: C12_18  and  C3_9 
ROOT
HETATM    1 Cl1  UNK     1      15.328  -5.742  17.457  1.00  0.00    -0.081 Cl
HETATM    2  O1  UNK     1      18.319  -6.865  12.533  1.00  0.00    -0.334 OA
HETATM    3  C1  UNK     1      19.453  -4.821  14.327  1.00  0.00    -0.004 C 
HETATM    4  C2  UNK     1      20.350  -5.711  13.437  1.00  0.00     0.039 C 
HETATM    5  C3  UNK     1      19.621  -6.339  12.219  1.00  0.00     0.102 C 
HETATM    6  C4  UNK     1      20.960  -6.928  14.151  1.00  0.00     0.009 C 
HETATM    7  C5  UNK     1      20.239  -4.345  15.575  1.00  0.00     0.015 C 
HETATM    8  C6  UNK     1      19.126  -3.476  13.634  1.00  0.00     0.015 C 
HETATM    9  C7  UNK     1      20.470  -7.604  11.882  1.00  0.00     0.044 C 
HETATM   10  C8  UNK     1      21.504  -7.751  12.997  1.00  0.00     0.004 C 
HETATM   11  C9  UNK     1      18.165  -5.579  14.616  1.00  0.00    -0.014 A 
HETATM   12  C10 UNK     1      19.787  -2.914  15.887  1.00  0.00     0.001 C 
HETATM   13  C11 UNK     1      18.847  -2.497  14.766  1.00  0.00     0.001 C 
HETATM   14  C13 UNK     1      17.689  -6.518  13.691  1.00  0.00     0.080 A 
HETATM   15  C14 UNK     1      17.405  -5.366  15.780  1.00  0.00     0.037 A 
HETATM   16  C15 UNK     1      16.487  -7.203  13.919  1.00  0.00     0.075 A 
HETATM   17  C18 UNK     1      16.210  -6.053  16.007  1.00  0.00     0.067 A 
HETATM   18  C19 UNK     1      15.748  -6.971  15.075  1.00  0.00     0.090 A 
ENDROOT
BRANCH   5  19
HETATM   19  C12 UNK     1      19.538  -5.416  11.000  1.00  0.00     0.012 A 
HETATM   20  C16 UNK     1      18.450  -5.481  10.125  1.00  0.00     0.077 A 
HETATM   21  C20 UNK     1      18.388  -4.631   9.020  1.00  0.00     0.075 A 
HETATM   22  C22 UNK     1      19.413  -3.715   8.786  1.00  0.00     0.090 A 
HETATM   23  C21 UNK     1      20.501  -3.646   9.658  1.00  0.00     0.068 A 
HETATM   24  C17 UNK     1      20.562  -4.495  10.763  1.00  0.00     0.039 A 
HETATM   25 Cl2  UNK     1      21.781  -2.521   9.393  1.00  0.00    -0.081 Cl
BRANCH  20  26
HETATM   26  O2  UNK     1      17.440  -6.370  10.338  1.00  0.00    -0.360 OA
HETATM   27  H20 UNK     1      17.241  -6.403  11.288  1.00  0.00     0.217 HD
ENDBRANCH  20  26
BRANCH  22  28
HETATM   28  O4  UNK     1      19.327  -2.898   7.698  1.00  0.00    -0.359 OA
HETATM   29  H22 UNK     1      18.477  -2.425   7.720  1.00  0.00     0.217 HD
ENDBRANCH  22  28
ENDBRANCH   5  19
BRANCH  18  30
HETATM   30  O3  UNK     1      14.588  -7.659  15.265  1.00  0.00    -0.359 OA
HETATM   31  H21 UNK     1      13.875  -7.015  15.421  1.00  0.00     0.217 HD
ENDBRANCH  18  30
TORSDOF 4
ENDMDL
MODEL 3
REMARK VINA RESULT:      -8.0      3.239      5.019
REMARK  4 active torsions:
REMARK  status: ('A' for Active; 'I' for Inactive)
REMARK    1  A    between atoms: C16_22  and  O2_4 
REMARK    2  A    between atoms: C19_25  and  O3_5 
REMARK    3  A    between atoms: C22_28  and  O4_6 
REMARK    4  A    between atoms: C12_18  and  C3_9 
ROOT
HETATM    1 Cl1  UNK     1      29.522  -3.757  39.679  1.00  0.00    -0.081 Cl
HETATM    2  O1  UNK     1      29.063  -7.911  35.556  1.00  0.00    -0.334 OA
HETATM    3  C1  UNK     1      31.646  -6.501  35.726  1.00  0.00    -0.004 C 
HETATM    4  C2  UNK     1      31.551  -7.972  35.263  1.00  0.00     0.039 C 
HETATM    5  C3  UNK     1      30.149  -8.391  34.743  1.00  0.00     0.102 C 
HETATM    6  C4  UNK     1      31.846  -9.012  36.356  1.00  0.00     0.009 C 
HETATM    7  C5  UNK     1      33.042  -6.221  36.339  1.00  0.00     0.015 C 
HETATM    8  C6  UNK     1      31.633  -5.528  34.523  1.00  0.00     0.015 C 
HETATM    9  C7  UNK     1      30.118  -9.938  34.942  1.00  0.00     0.044 C 
HETATM   10  C8  UNK     1      31.382 -10.308  35.717  1.00  0.00     0.004 C 
HETATM   11  C9  UNK     1      30.462  -6.210  36.638  1.00  0.00    -0.014 A 
HETATM   12  C10 UNK     1      33.439  -4.793  35.947  1.00  0.00     0.001 C 
HETATM   13  C11 UNK     1      32.359  -4.280  35.006  1.00  0.00     0.001 C 
HETATM   14  C13 UNK     1      29.264  -6.915  36.467  1.00  0.00     0.080 A 
HETATM   15  C14 UNK     1      30.507  -5.235  37.651  1.00  0.00     0.037 A 
HETATM   16  C15 UNK     1      28.149  -6.640  37.271  1.00  0.00     0.075 A 
HETATM   17  C18 UNK     1      29.397  -4.966  38.454  1.00  0.00     0.067 A 
HETATM   18  C19 UNK     1      28.214  -5.667  38.263  1.00  0.00     0.090 A 
ENDROOT
BRANCH   5  19
HETATM   19  C12 UNK     1      29.902  -8.040  33.273  1.00  0.00     0.012 A 
HETATM   20  C16 UNK     1      30.921  -8.164  32.324  1.00  0.00     0.077 A 
HETATM   21  C20 UNK     1      30.679  -7.841  30.989  1.00  0.00     0.075 A 
HETATM   22  C22 UNK     1      29.418  -7.393  30.597  1.00  0.00     0.090 A 
HETATM   23  C21 UNK     1      28.397  -7.268  31.541  1.00  0.00     0.068 A 
HETATM   24  C17 UNK     1      28.639  -7.592  32.875  1.00  0.00     0.039 A 
HETATM   25 Cl2  UNK     1      26.828  -6.718  31.083  1.00  0.00    -0.081 Cl
BRANCH  20  26
HETATM   26  O2  UNK     1      32.159  -8.600  32.689  1.00  0.00    -0.360 OA
HETATM   27  H20 UNK     1      32.436  -8.134  33.496  1.00  0.00     0.217 HD
ENDBRANCH  20  26
BRANCH  22  28
HETATM   28  O4  UNK     1      29.209  -7.084  29.286  1.00  0.00    -0.359 OA
HETATM   29  H22 UNK     1      28.253  -7.053  29.112  1.00  0.00     0.217 HD
ENDBRANCH  22  28
ENDBRANCH   5  19
BRANCH  18  30
HETATM   30  O3  UNK     1      27.113  -5.430  39.028  1.00  0.00    -0.359 OA
HETATM   31  H21 UNK     1      27.031  -6.151  39.676  1.00  0.00     0.217 HD
ENDBRANCH  18  30
TORSDOF 4
ENDMDL
MODEL 4
REMARK VINA RESULT:      -7.9      3.111      6.673
REMARK  4 active torsions:
REMARK  status: ('A' for Active; 'I' for Inactive)
REMARK    1  A    between atoms: C16_22  and  O2_4 
REMARK    2  A    between atoms: C19_25  and  O3_5 
REMARK    3  A    between atoms: C22_28  and  O4_6 
REMARK    4  A    between atoms: C12_18  and  C3_9 
ROOT
HETATM    1 Cl1  UNK     1      31.370  -6.696  29.105  1.00  0.00    -0.081 Cl
HETATM    2  O1  UNK     1      29.700  -5.883  34.674  1.00  0.00    -0.334 OA
HETATM    3  C1  UNK     1      32.132  -7.491  34.248  1.00  0.00    -0.004 C 
HETATM    4  C2  UNK     1      31.942  -6.623  35.512  1.00  0.00     0.039 C 
HETATM    5  C3  UNK     1      30.464  -6.271  35.831  1.00  0.00     0.102 C 
HETATM    6  C4  UNK     1      32.629  -5.249  35.460  1.00  0.00     0.009 C 
HETATM    7  C5  UNK     1      33.642  -7.682  33.951  1.00  0.00     0.015 C 
HETATM    8  C6  UNK     1      31.677  -8.950  34.491  1.00  0.00     0.015 C 
HETATM    9  C7  UNK     1      30.561  -4.964  36.678  1.00  0.00     0.044 C 
HETATM   10  C8  UNK     1      32.025  -4.530  36.652  1.00  0.00     0.004 C 
HETATM   11  C9  UNK     1      31.317  -6.876  33.120  1.00  0.00    -0.014 A 
HETATM   12  C10 UNK     1      33.829  -9.103  33.407  1.00  0.00     0.001 C 
HETATM   13  C11 UNK     1      32.476  -9.791  33.505  1.00  0.00     0.001 C 
HETATM   14  C13 UNK     1      30.159  -6.146  33.417  1.00  0.00     0.080 A 
HETATM   15  C14 UNK     1      31.665  -7.025  31.765  1.00  0.00     0.037 A 
HETATM   16  C15 UNK     1      29.373  -5.600  32.393  1.00  0.00     0.075 A 
HETATM   17  C18 UNK     1      30.883  -6.475  30.746  1.00  0.00     0.067 A 
HETATM   18  C19 UNK     1      29.733  -5.765  31.060  1.00  0.00     0.090 A 
ENDROOT
BRANCH   5  19
HETATM   19  C12 UNK     1      29.721  -7.357  36.613  1.00  0.00     0.012 A 
HETATM   20  C16 UNK     1      28.325  -7.432  36.588  1.00  0.00     0.077 A 
HETATM   21  C20 UNK     1      27.663  -8.428  37.305  1.00  0.00     0.075 A 
HETATM   22  C22 UNK     1      28.394  -9.354  38.051  1.00  0.00     0.090 A 
HETATM   23  C21 UNK     1      29.787  -9.284  38.078  1.00  0.00     0.068 A 
HETATM   24  C17 UNK     1      30.449  -8.288  37.360  1.00  0.00     0.039 A 
HETATM   25 Cl2  UNK     1      30.715 -10.416  38.990  1.00  0.00    -0.081 Cl
BRANCH  20  26
HETATM   26  O2  UNK     1      27.596  -6.536  35.865  1.00  0.00    -0.360 OA
HETATM   27  H20 UNK     1      27.240  -6.978  35.076  1.00  0.00     0.217 HD
ENDBRANCH  20  26
BRANCH  22  28
HETATM   28  O4  UNK     1      27.721 -10.316  38.742  1.00  0.00    -0.359 OA
HETATM   29  H22 UNK     1      26.945 -10.597  38.227  1.00  0.00     0.217 HD
ENDBRANCH  22  28
ENDBRANCH   5  19
BRANCH  18  30
HETATM   30  O3  UNK     1      28.948  -5.216  30.092  1.00  0.00    -0.359 OA
HETATM   31  H21 UNK     1      29.425  -4.464  29.702  1.00  0.00     0.217 HD
ENDBRANCH  18  30
TORSDOF 4
ENDMDL
MODEL 5
REMARK VINA RESULT:      -7.8     17.829     21.333
REMARK  4 active torsions:
REMARK  status: ('A' for Active; 'I' for Inactive)
REMARK    1  A    between atoms: C16_22  and  O2_4 
REMARK    2  A    between atoms: C19_25  and  O3_5 
REMARK    3  A    between atoms: C22_28  and  O4_6 
REMARK    4  A    between atoms: C12_18  and  C3_9 
ROOT
HETATM    1 Cl1  UNK     1      23.796  -2.656  17.051  1.00  0.00    -0.081 Cl
HETATM    2  O1  UNK     1      19.969  -6.568  14.927  1.00  0.00    -0.334 OA
HETATM    3  C1  UNK     1      19.371  -3.728  14.417  1.00  0.00    -0.004 C 
HETATM    4  C2  UNK     1      18.948  -4.838  13.430  1.00  0.00     0.039 C 
HETATM    5  C3  UNK     1      18.866  -6.256  14.057  1.00  0.00     0.102 C 
HETATM    6  C4  UNK     1      19.896  -5.035  12.236  1.00  0.00     0.009 C 
HETATM    7  C5  UNK     1      19.542  -2.381  13.669  1.00  0.00     0.015 C 
HETATM    8  C6  UNK     1      18.233  -3.390  15.410  1.00  0.00     0.015 C 
HETATM    9  C7  UNK     1      19.055  -7.219  12.843  1.00  0.00     0.044 C 
HETATM   10  C8  UNK     1      19.415  -6.346  11.642  1.00  0.00     0.004 C 
HETATM   11  C9  UNK     1      20.596  -4.211  15.181  1.00  0.00    -0.014 A 
HETATM   12  C10 UNK     1      19.059  -1.268  14.606  1.00  0.00     0.001 C 
HETATM   13  C11 UNK     1      18.486  -1.952  15.839  1.00  0.00     0.001 C 
HETATM   14  C13 UNK     1      20.786  -5.581  15.396  1.00  0.00     0.080 A 
HETATM   15  C14 UNK     1      21.556  -3.328  15.709  1.00  0.00     0.037 A 
HETATM   16  C15 UNK     1      21.888  -6.047  16.127  1.00  0.00     0.075 A 
HETATM   17  C18 UNK     1      22.656  -3.795  16.432  1.00  0.00     0.067 A 
HETATM   18  C19 UNK     1      22.821  -5.156  16.645  1.00  0.00     0.090 A 
ENDROOT
BRANCH   5  19
HETATM   19  C12 UNK     1      17.539  -6.547  14.764  1.00  0.00     0.012 A 
HETATM   20  C16 UNK     1      16.402  -6.907  14.035  1.00  0.00     0.077 A 
HETATM   21  C20 UNK     1      15.201  -7.171  14.694  1.00  0.00     0.075 A 
HETATM   22  C22 UNK     1      15.132  -7.075  16.085  1.00  0.00     0.090 A 
HETATM   23  C21 UNK     1      16.266  -6.717  16.816  1.00  0.00     0.068 A 
HETATM   24  C17 UNK     1      17.466  -6.454  16.157  1.00  0.00     0.039 A 
HETATM   25 Cl2  UNK     1      16.209  -6.592  18.535  1.00  0.00    -0.081 Cl
BRANCH  20  26
HETATM   26  O2  UNK     1      16.450  -7.006  12.677  1.00  0.00    -0.360 OA
HETATM   27  H20 UNK     1      16.661  -7.922  12.432  1.00  0.00     0.217 HD
ENDBRANCH  20  26
BRANCH  22  28
HETATM   28  O4  UNK     1      13.946  -7.338  16.702  1.00  0.00    -0.359 OA
HETATM   29  H22 UNK     1      13.358  -7.801  16.082  1.00  0.00     0.217 HD
ENDBRANCH  22  28
ENDBRANCH   5  19
BRANCH  18  30
HETATM   30  O3  UNK     1      23.882  -5.645  17.346  1.00  0.00    -0.359 OA
HETATM   31  H21 UNK     1      24.622  -5.773  16.728  1.00  0.00     0.217 HD
ENDBRANCH  18  30
TORSDOF 4
ENDMDL
MODEL 6
REMARK VINA RESULT:      -7.8      3.117      5.018
REMARK  4 active torsions:
REMARK  status: ('A' for Active; 'I' for Inactive)
REMARK    1  A    between atoms: C16_22  and  O2_4 
REMARK    2  A    between atoms: C19_25  and  O3_5 
REMARK    3  A    between atoms: C22_28  and  O4_6 
REMARK    4  A    between atoms: C12_18  and  C3_9 
ROOT
HETATM    1 Cl1  UNK     1      29.621  -3.970  39.297  1.00  0.00    -0.081 Cl
HETATM    2  O1  UNK     1      29.553  -7.946  34.979  1.00  0.00    -0.334 OA
HETATM    3  C1  UNK     1      32.107  -6.552  35.448  1.00  0.00    -0.004 C 
HETATM    4  C2  UNK     1      32.057  -8.002  34.917  1.00  0.00     0.039 C 
HETATM    5  C3  UNK     1      30.711  -8.394  34.251  1.00  0.00     0.102 C 
HETATM    6  C4  UNK     1      32.251  -9.088  35.988  1.00  0.00     0.009 C 
HETATM    7  C5  UNK     1      33.440  -6.301  36.200  1.00  0.00     0.015 C 
HETATM    8  C6  UNK     1      32.206  -5.529  34.291  1.00  0.00     0.015 C 
HETATM    9  C7  UNK     1      30.663  -9.949  34.381  1.00  0.00     0.044 C 
HETATM   10  C8  UNK     1      31.850 -10.354  35.254  1.00  0.00     0.004 C 
HETATM   11  C9  UNK     1      30.843  -6.296  36.257  1.00  0.00    -0.014 A 
HETATM   12  C10 UNK     1      33.870  -4.860  35.907  1.00  0.00     0.001 C 
HETATM   13  C11 UNK     1      32.882  -4.305  34.892  1.00  0.00     0.001 C 
HETATM   14  C13 UNK     1      29.667  -6.990  35.945  1.00  0.00     0.080 A 
HETATM   15  C14 UNK     1      30.792  -5.364  37.309  1.00  0.00     0.037 A 
HETATM   16  C15 UNK     1      28.481  -6.746  36.653  1.00  0.00     0.075 A 
HETATM   17  C18 UNK     1      29.611  -5.127  38.017  1.00  0.00     0.067 A 
HETATM   18  C19 UNK     1      28.453  -5.815  37.686  1.00  0.00     0.090 A 
ENDROOT
BRANCH   5  19
HETATM   19  C12 UNK     1      30.602  -7.981  32.781  1.00  0.00     0.012 A 
HETATM   20  C16 UNK     1      29.354  -7.779  32.183  1.00  0.00     0.077 A 
HETATM   21  C20 UNK     1      29.271  -7.402  30.843  1.00  0.00     0.075 A 
HETATM   22  C22 UNK     1      30.436  -7.226  30.094  1.00  0.00     0.090 A 
HETATM   23  C21 UNK     1      31.683  -7.426  30.687  1.00  0.00     0.068 A 
HETATM   24  C17 UNK     1      31.766  -7.802  32.027  1.00  0.00     0.039 A 
HETATM   25 Cl2  UNK     1      33.138  -7.213  29.785  1.00  0.00    -0.081 Cl
BRANCH  20  26
HETATM   26  O2  UNK     1      28.207  -7.947  32.899  1.00  0.00    -0.360 OA
HETATM   27  H20 UNK     1      28.032  -7.141  33.413  1.00  0.00     0.217 HD
ENDBRANCH  20  26
BRANCH  22  28
HETATM   28  O4  UNK     1      30.325  -6.857  28.787  1.00  0.00    -0.359 OA
HETATM   29  H22 UNK     1      31.178  -6.999  28.341  1.00  0.00     0.217 HD
ENDBRANCH  22  28
ENDBRANCH   5  19
BRANCH  18  30
HETATM   30  O3  UNK     1      27.285  -5.608  38.355  1.00  0.00    -0.359 OA
HETATM   31  H21 UNK     1      27.461  -5.689  39.308  1.00  0.00     0.217 HD
ENDBRANCH  18  30
TORSDOF 4
ENDMDL
MODEL 7
REMARK VINA RESULT:      -7.8      4.101      7.135
REMARK  4 active torsions:
REMARK  status: ('A' for Active; 'I' for Inactive)
REMARK    1  A    between atoms: C16_22  and  O2_4 
REMARK    2  A    between atoms: C19_25  and  O3_5 
REMARK    3  A    between atoms: C22_28  and  O4_6 
REMARK    4  A    between atoms: C12_18  and  C3_9 
ROOT
HETATM    1 Cl1  UNK     1      35.997  -6.860  32.356  1.00  0.00    -0.081 Cl
HETATM    2  O1  UNK     1      32.852  -7.504  37.271  1.00  0.00    -0.334 OA
HETATM    3  C1  UNK     1      31.363  -7.605  34.730  1.00  0.00    -0.004 C 
HETATM    4  C2  UNK     1      30.905  -8.400  35.973  1.00  0.00     0.039 C 
HETATM    5  C3  UNK     1      31.457  -7.858  37.319  1.00  0.00     0.102 C 
HETATM    6  C4  UNK     1      31.331  -9.878  35.987  1.00  0.00     0.009 C 
HETATM    7  C5  UNK     1      30.860  -8.297  33.437  1.00  0.00     0.015 C 
HETATM    8  C6  UNK     1      30.653  -6.233  34.644  1.00  0.00     0.015 C 
HETATM    9  C7  UNK     1      31.412  -9.093  38.272  1.00  0.00     0.044 C 
HETATM   10  C8  UNK     1      31.029 -10.298  37.414  1.00  0.00     0.004 C 
HETATM   11  C9  UNK     1      32.869  -7.404  34.821  1.00  0.00    -0.014 A 
HETATM   12  C10 UNK     1      30.499  -7.195  32.435  1.00  0.00     0.001 C 
HETATM   13  C11 UNK     1      30.656  -5.870  33.166  1.00  0.00     0.001 C 
HETATM   14  C13 UNK     1      33.488  -7.345  36.075  1.00  0.00     0.080 A 
HETATM   15  C14 UNK     1      33.683  -7.252  33.683  1.00  0.00     0.037 A 
HETATM   16  C15 UNK     1      34.868  -7.124  36.184  1.00  0.00     0.075 A 
HETATM   17  C18 UNK     1      35.058  -7.038  33.794  1.00  0.00     0.067 A 
HETATM   18  C19 UNK     1      35.653  -6.971  35.046  1.00  0.00     0.090 A 
ENDROOT
BRANCH   5  19
HETATM   19  C12 UNK     1      30.641  -6.704  37.907  1.00  0.00     0.012 A 
HETATM   20  C16 UNK     1      31.263  -5.522  38.321  1.00  0.00     0.077 A 
HETATM   21  C20 UNK     1      30.504  -4.480  38.853  1.00  0.00     0.075 A 
HETATM   22  C22 UNK     1      29.120  -4.615  38.974  1.00  0.00     0.090 A 
HETATM   23  C21 UNK     1      28.495  -5.792  38.561  1.00  0.00     0.068 A 
HETATM   24  C17 UNK     1      29.254  -6.834  38.028  1.00  0.00     0.039 A 
HETATM   25 Cl2  UNK     1      26.787  -5.985  38.698  1.00  0.00    -0.081 Cl
BRANCH  20  26
HETATM   26  O2  UNK     1      32.612  -5.374  38.210  1.00  0.00    -0.360 OA
HETATM   27  H20 UNK     1      32.984  -5.179  39.087  1.00  0.00     0.217 HD
ENDBRANCH  20  26
BRANCH  22  28
HETATM   28  O4  UNK     1      28.404  -3.581  39.497  1.00  0.00    -0.359 OA
HETATM   29  H22 UNK     1      28.513  -3.573  40.464  1.00  0.00     0.217 HD
ENDBRANCH  22  28
ENDBRANCH   5  19
BRANCH  18  30
HETATM   30  O3  UNK     1      36.991  -6.763  35.190  1.00  0.00    -0.359 OA
HETATM   31  H21 UNK     1      37.460  -7.532  34.824  1.00  0.00     0.217 HD
ENDBRANCH  18  30
TORSDOF 4
ENDMDL
MODEL 8
REMARK VINA RESULT:      -7.7      2.351      6.648
REMARK  4 active torsions:
REMARK  status: ('A' for Active; 'I' for Inactive)
REMARK    1  A    between atoms: C16_22  and  O2_4 
REMARK    2  A    between atoms: C19_25  and  O3_5 
REMARK    3  A    between atoms: C22_28  and  O4_6 
REMARK    4  A    between atoms: C12_18  and  C3_9 
ROOT
HETATM    1 Cl1  UNK     1      28.080  -8.990  30.130  1.00  0.00    -0.081 Cl
HETATM    2  O1  UNK     1      32.474  -6.279  32.923  1.00  0.00    -0.334 OA
HETATM    3  C1  UNK     1      32.055  -9.123  33.572  1.00  0.00    -0.004 C 
HETATM    4  C2  UNK     1      33.456  -8.475  33.624  1.00  0.00     0.039 C 
HETATM    5  C3  UNK     1      33.442  -6.929  33.767  1.00  0.00     0.102 C 
HETATM    6  C4  UNK     1      34.320  -8.706  32.374  1.00  0.00     0.009 C 
HETATM    7  C5  UNK     1      32.178 -10.646  33.305  1.00  0.00     0.015 C 
HETATM    8  C6  UNK     1      31.371  -9.105  34.960  1.00  0.00     0.015 C 
HETATM    9  C7  UNK     1      34.818  -6.482  33.181  1.00  0.00     0.044 C 
HETATM   10  C8  UNK     1      35.463  -7.727  32.574  1.00  0.00     0.004 C 
HETATM   11  C9  UNK     1      31.209  -8.350  32.569  1.00  0.00    -0.014 A 
HETATM   12  C10 UNK     1      31.075 -11.345  34.108  1.00  0.00     0.001 C 
HETATM   13  C11 UNK     1      30.393 -10.271  34.943  1.00  0.00     0.001 C 
HETATM   14  C13 UNK     1      31.467  -6.993  32.343  1.00  0.00     0.080 A 
HETATM   15  C14 UNK     1      30.147  -8.940  31.860  1.00  0.00     0.037 A 
HETATM   16  C15 UNK     1      30.678  -6.252  31.451  1.00  0.00     0.075 A 
HETATM   17  C18 UNK     1      29.367  -8.202  30.967  1.00  0.00     0.067 A 
HETATM   18  C19 UNK     1      29.630  -6.855  30.764  1.00  0.00     0.090 A 
ENDROOT
BRANCH   5  19
HETATM   19  C12 UNK     1      33.296  -6.440  35.211  1.00  0.00     0.012 A 
HETATM   20  C16 UNK     1      34.162  -6.889  36.212  1.00  0.00     0.077 A 
HETATM   21  C20 UNK     1      34.016  -6.433  37.522  1.00  0.00     0.075 A 
HETATM   22  C22 UNK     1      33.003  -5.526  37.836  1.00  0.00     0.090 A 
HETATM   23  C21 UNK     1      32.137  -5.074  36.839  1.00  0.00     0.068 A 
HETATM   24  C17 UNK     1      32.284  -5.530  35.530  1.00  0.00     0.039 A 
HETATM   25 Cl2  UNK     1      30.878  -3.952  37.200  1.00  0.00    -0.081 Cl
BRANCH  20  26
HETATM   26  O2  UNK     1      35.156  -7.775  35.923  1.00  0.00    -0.360 OA
HETATM   27  H20 UNK     1      36.015  -7.333  36.025  1.00  0.00     0.217 HD
ENDBRANCH  20  26
BRANCH  22  28
HETATM   28  O4  UNK     1      32.883  -5.097  39.124  1.00  0.00    -0.359 OA
HETATM   29  H22 UNK     1      31.985  -4.749  39.263  1.00  0.00     0.217 HD
ENDBRANCH  22  28
ENDBRANCH   5  19
BRANCH  18  30
HETATM   30  O3  UNK     1      28.889  -6.105  29.902  1.00  0.00    -0.359 OA
HETATM   31  H21 UNK     1      28.673  -6.655  29.129  1.00  0.00     0.217 HD
ENDBRANCH  18  30
TORSDOF 4
ENDMDL
MODEL 9
REMARK VINA RESULT:      -7.7      2.995      4.945
REMARK  4 active torsions:
REMARK  status: ('A' for Active; 'I' for Inactive)
REMARK    1  A    between atoms: C16_22  and  O2_4 
REMARK    2  A    between atoms: C19_25  and  O3_5 
REMARK    3  A    between atoms: C22_28  and  O4_6 
REMARK    4  A    between atoms: C12_18  and  C3_9 
ROOT
HETATM    1 Cl1  UNK     1      27.676  -8.160  39.694  1.00  0.00    -0.081 Cl
HETATM    2  O1  UNK     1      28.709 -10.120  34.258  1.00  0.00    -0.334 OA
HETATM    3  C1  UNK     1      30.874  -8.585  35.540  1.00  0.00    -0.004 C 
HETATM    4  C2  UNK     1      31.166  -9.705  34.516  1.00  0.00     0.039 C 
HETATM    5  C3  UNK     1      29.976 -10.043  33.578  1.00  0.00     0.102 C 
HETATM    6  C4  UNK     1      31.526 -11.066  35.134  1.00  0.00     0.009 C 
HETATM    7  C5  UNK     1      32.077  -8.411  36.502  1.00  0.00     0.015 C 
HETATM    8  C6  UNK     1      30.817  -7.197  34.858  1.00  0.00     0.015 C 
HETATM    9  C7  UNK     1      30.254 -11.510  33.127  1.00  0.00     0.044 C 
HETATM   10  C8  UNK     1      31.448 -12.003  33.943  1.00  0.00     0.004 C 
HETATM   11  C9  UNK     1      29.540  -8.887  36.208  1.00  0.00    -0.014 A 
HETATM   12  C10 UNK     1      32.204  -6.916  36.815  1.00  0.00     0.001 C 
HETATM   13  C11 UNK     1      31.181  -6.199  35.948  1.00  0.00     0.001 C 
HETATM   14  C13 UNK     1      28.560  -9.604  35.511  1.00  0.00     0.080 A 
HETATM   15  C14 UNK     1      29.231  -8.455  37.511  1.00  0.00     0.037 A 
HETATM   16  C15 UNK     1      27.311  -9.863  36.094  1.00  0.00     0.075 A 
HETATM   17  C18 UNK     1      27.988  -8.719  38.091  1.00  0.00     0.067 A 
HETATM   18  C19 UNK     1      27.025  -9.422  37.381  1.00  0.00     0.090 A 
ENDROOT
BRANCH   5  19
HETATM   19  C12 UNK     1      29.865  -9.124  32.359  1.00  0.00     0.012 A 
HETATM   20  C16 UNK     1      30.992  -8.808  31.594  1.00  0.00     0.077 A 
HETATM   21  C20 UNK     1      30.873  -7.970  30.485  1.00  0.00     0.075 A 
HETATM   22  C22 UNK     1      29.628  -7.445  30.136  1.00  0.00     0.090 A 
HETATM   23  C21 UNK     1      28.501  -7.759  30.897  1.00  0.00     0.068 A 
HETATM   24  C17 UNK     1      28.619  -8.597  32.005  1.00  0.00     0.039 A 
HETATM   25 Cl2  UNK     1      26.950  -7.124  30.488  1.00  0.00    -0.081 Cl
BRANCH  20  26
HETATM   26  O2  UNK     1      32.215  -9.311  31.919  1.00  0.00    -0.360 OA
HETATM   27  H20 UNK     1      32.371  -9.179  32.870  1.00  0.00     0.217 HD
ENDBRANCH  20  26
BRANCH  22  28
HETATM   28  O4  UNK     1      29.542  -6.629  29.048  1.00  0.00    -0.359 OA
HETATM   29  H22 UNK     1      29.320  -5.728  29.341  1.00  0.00     0.217 HD
ENDBRANCH  22  28
ENDBRANCH   5  19
BRANCH  18  30
HETATM   30  O3  UNK     1      25.803  -9.696  37.916  1.00  0.00    -0.359 OA
HETATM   31  H21 UNK     1      25.925  -9.919  38.855  1.00  0.00     0.217 HD
ENDBRANCH  18  30
TORSDOF 4
ENDMDL
MODEL 10
REMARK VINA RESULT:      -7.7      1.910      6.353
REMARK  4 active torsions:
REMARK  status: ('A' for Active; 'I' for Inactive)
REMARK    1  A    between atoms: C16_22  and  O2_4 
REMARK    2  A    between atoms: C19_25  and  O3_5 
REMARK    3  A    between atoms: C22_28  and  O4_6 
REMARK    4  A    between atoms: C12_18  and  C3_9 
ROOT
HETATM    1 Cl1  UNK     1      29.917  -9.960  27.767  1.00  0.00    -0.081 Cl
HETATM    2  O1  UNK     1      31.675  -9.616  33.357  1.00  0.00    -0.334 OA
HETATM    3  C1  UNK     1      29.771  -7.560  32.444  1.00  0.00    -0.004 C 
HETATM    4  C2  UNK     1      29.797  -8.052  33.909  1.00  0.00     0.039 C 
HETATM    5  C3  UNK     1      31.134  -8.713  34.339  1.00  0.00     0.102 C 
HETATM    6  C4  UNK     1      28.748  -9.125  34.247  1.00  0.00     0.009 C 
HETATM    7  C5  UNK     1      28.359  -7.032  32.081  1.00  0.00     0.015 C 
HETATM    8  C6  UNK     1      30.635  -6.290  32.260  1.00  0.00     0.015 C 
HETATM    9  C7  UNK     1      30.733  -9.641  35.528  1.00  0.00     0.044 C 
HETATM   10  C8  UNK     1      29.207  -9.621  35.606  1.00  0.00     0.004 C 
HETATM   11  C9  UNK     1      30.299  -8.678  31.556  1.00  0.00    -0.014 A 
HETATM   12  C10 UNK     1      28.542  -5.833  31.145  1.00  0.00     0.001 C 
HETATM   13  C11 UNK     1      30.038  -5.567  31.060  1.00  0.00     0.001 C 
HETATM   14  C13 UNK     1      31.222  -9.597  32.071  1.00  0.00     0.080 A 
HETATM   15  C14 UNK     1      29.913  -8.824  30.211  1.00  0.00     0.037 A 
HETATM   16  C15 UNK     1      31.749 -10.613  31.261  1.00  0.00     0.075 A 
HETATM   17  C18 UNK     1      30.435  -9.840  29.408  1.00  0.00     0.067 A 
HETATM   18  C19 UNK     1      31.358 -10.735  29.932  1.00  0.00     0.090 A 
ENDROOT
BRANCH   5  19
HETATM   19  C12 UNK     1      32.206  -7.714  34.783  1.00  0.00     0.012 A 
HETATM   20  C16 UNK     1      33.561  -8.060  34.767  1.00  0.00     0.077 A 
HETATM   21  C20 UNK     1      34.525  -7.138  35.174  1.00  0.00     0.075 A 
HETATM   22  C22 UNK     1      34.139  -5.867  35.599  1.00  0.00     0.090 A 
HETATM   23  C21 UNK     1      32.788  -5.517  35.616  1.00  0.00     0.068 A 
HETATM   24  C17 UNK     1      31.824  -6.438  35.209  1.00  0.00     0.039 A 
HETATM   25 Cl2  UNK     1      32.284  -3.951  36.136  1.00  0.00    -0.081 Cl
BRANCH  20  26
HETATM   26  O2  UNK     1      33.955  -9.297  34.354  1.00  0.00    -0.360 OA
HETATM   27  H20 UNK     1      34.462  -9.211  33.529  1.00  0.00     0.217 HD
ENDBRANCH  20  26
BRANCH  22  28
HETATM   28  O4  UNK     1      35.102  -4.986  35.992  1.00  0.00    -0.359 OA
HETATM   29  H22 UNK     1      34.807  -4.080  35.796  1.00  0.00     0.217 HD
ENDBRANCH  22  28
ENDBRANCH   5  19
BRANCH  18  30
HETATM   30  O3  UNK     1      31.887 -11.737  29.178  1.00  0.00    -0.359 OA
HETATM   31  H21 UNK     1      32.082 -11.382  28.293  1.00  0.00     0.217 HD
ENDBRANCH  18  30
TORSDOF 4
ENDMDL
