MODEL 1
REMARK VINA RESULT:      -9.6      0.000      0.000
REMARK  5 active torsions:
REMARK  status: ('A' for Active; 'I' for Inactive)
REMARK    1  A    between atoms: C12_19  and  O1_2 
REMARK    2  A    between atoms: C8_15  and  O1_2 
REMARK    3  A    between atoms: C7_14  and  N1_7 
REMARK       I    between atoms: C9_16  and  N1_7 
REMARK    4  A    between atoms: C6_13  and  C8_15 
REMARK    5  A    between atoms: C10_17  and  C9_16 
ROOT
HETATM    1  O4  UNK     1      21.318  -3.860  37.216  1.00  0.00    -0.267 OA
HETATM    2  N1  UNK     1      19.059  -3.755  36.546  1.00  0.00    -0.316 N 
HETATM    3  C9  UNK     1      20.249  -4.376  36.896  1.00  0.00     0.262 C 
HETATM    4  H7  UNK     1      18.245  -4.324  36.324  1.00  0.00     0.169 HD
ENDROOT
BRANCH   2   5
HETATM    5  C7  UNK     1      18.836  -2.395  36.485  1.00  0.00     0.094 A 
HETATM    6  C6  UNK     1      19.139  -1.462  35.507  1.00  0.00     0.080 A 
HETATM    7  C3  UNK     1      18.710  -0.178  35.901  1.00  0.00    -0.026 A 
HETATM    8  C1  UNK     1      18.740   1.189  35.325  1.00  0.00     0.041 C 
HETATM    9  C5  UNK     1      18.113  -0.184  37.131  1.00  0.00    -0.008 A 
HETATM   10  C2  UNK     1      17.750   1.960  36.255  1.00  0.00     0.010 C 
HETATM   11  C4  UNK     1      17.649   1.147  37.584  1.00  0.00     0.047 C 
HETATM   12  S1  UNK     1      18.043  -1.691  37.853  1.00  0.00    -0.075 SA
BRANCH   6  13
HETATM   13  C8  UNK     1      19.803  -1.792  34.271  1.00  0.00     0.296 C 
HETATM   14  O2  UNK     1      20.886  -2.388  34.161  1.00  0.00    -0.259 OA
BRANCH  13  15
HETATM   15  O1  UNK     1      19.088  -1.359  33.177  1.00  0.00    -0.318 OA
BRANCH  15  16
HETATM   16  C12 UNK     1      19.677  -1.577  31.889  1.00  0.00     0.174 C 
HETATM   17  C17 UNK     1      19.774  -0.254  31.160  1.00  0.00     0.034 C 
ENDBRANCH  15  16
ENDBRANCH  13  15
ENDBRANCH   6  13
ENDBRANCH   2   5
BRANCH   3  18
HETATM   18  C10 UNK     1      20.136  -5.838  36.856  1.00  0.00     0.108 A 
HETATM   19  C11 UNK     1      20.008  -6.455  38.038  1.00  0.00     0.037 A 
HETATM   20  C13 UNK     1      19.890  -7.903  38.101  1.00  0.00    -0.001 A 
HETATM   21  C14 UNK     1      19.913  -8.632  36.915  1.00  0.00     0.089 A 
HETATM   22  C16 UNK     1      19.754  -8.588  39.310  1.00  0.00     0.014 A 
HETATM   23  O3  UNK     1      20.047  -7.978  35.676  1.00  0.00    -0.274 OA
HETATM   24  C18 UNK     1      19.805 -10.022  36.907  1.00  0.00     0.038 A 
HETATM   25  C15 UNK     1      20.163  -6.594  35.583  1.00  0.00     0.304 A 
HETATM   26  O5  UNK     1      20.281  -6.033  34.500  1.00  0.00    -0.259 OA
HETATM   27  C20 UNK     1      19.670 -10.696  38.118  1.00  0.00     0.003 A 
HETATM   28  C19 UNK     1      19.645  -9.982  39.317  1.00  0.00     0.001 A 
ENDBRANCH   3  18
TORSDOF 5
ENDMDL
MODEL 2
REMARK VINA RESULT:      -9.4      1.769      7.701
REMARK  5 active torsions:
REMARK  status: ('A' for Active; 'I' for Inactive)
REMARK    1  A    between atoms: C12_19  and  O1_2 
REMARK    2  A    between atoms: C8_15  and  O1_2 
REMARK    3  A    between atoms: C7_14  and  N1_7 
REMARK       I    between atoms: C9_16  and  N1_7 
REMARK    4  A    between atoms: C6_13  and  C8_15 
REMARK    5  A    between atoms: C10_17  and  C9_16 
ROOT
HETATM    1  O4  UNK     1      21.353  -4.393  36.884  1.00  0.00    -0.267 OA
HETATM    2  N1  UNK     1      19.082  -5.009  37.046  1.00  0.00    -0.316 N 
HETATM    3  C9  UNK     1      20.149  -4.153  36.816  1.00  0.00     0.262 C 
HETATM    4  H7  UNK     1      18.131  -4.665  36.928  1.00  0.00     0.169 HD
ENDROOT
BRANCH   2   5
HETATM    5  C7  UNK     1      19.166  -6.337  37.408  1.00  0.00     0.094 A 
HETATM    6  C6  UNK     1      18.785  -7.492  36.745  1.00  0.00     0.080 A 
HETATM    7  C3  UNK     1      19.076  -8.629  37.527  1.00  0.00    -0.026 A 
HETATM    8  C1  UNK     1      18.917 -10.097  37.390  1.00  0.00     0.041 C 
HETATM    9  C5  UNK     1      19.652  -8.303  38.724  1.00  0.00    -0.008 A 
HETATM   10  C2  UNK     1      19.809 -10.635  38.552  1.00  0.00     0.010 C 
HETATM   11  C4  UNK     1      19.972  -9.469  39.577  1.00  0.00     0.047 C 
HETATM   12  S1  UNK     1      19.863  -6.660  38.959  1.00  0.00    -0.075 SA
BRANCH   6  13
HETATM   13  C8  UNK     1      18.177  -7.495  35.438  1.00  0.00     0.296 C 
HETATM   14  O2  UNK     1      17.040  -7.909  35.163  1.00  0.00    -0.259 OA
BRANCH  13  15
HETATM   15  O1  UNK     1      19.020  -6.974  34.482  1.00  0.00    -0.318 OA
BRANCH  15  16
HETATM   16  C12 UNK     1      20.374  -7.442  34.488  1.00  0.00     0.174 C 
HETATM   17  C17 UNK     1      20.996  -7.170  33.135  1.00  0.00     0.034 C 
ENDBRANCH  15  16
ENDBRANCH  13  15
ENDBRANCH   6  13
ENDBRANCH   2   5
BRANCH   3  18
HETATM   18  C10 UNK     1      19.701  -2.805  36.449  1.00  0.00     0.108 A 
HETATM   19  C11 UNK     1      18.980  -2.150  37.367  1.00  0.00     0.037 A 
HETATM   20  C13 UNK     1      18.491  -0.808  37.095  1.00  0.00    -0.001 A 
HETATM   21  C14 UNK     1      18.785  -0.221  35.867  1.00  0.00     0.089 A 
HETATM   22  C16 UNK     1      17.736  -0.087  38.023  1.00  0.00     0.014 A 
HETATM   23  O3  UNK     1      19.543  -0.914  34.906  1.00  0.00    -0.274 OA
HETATM   24  C18 UNK     1      18.345   1.062  35.544  1.00  0.00     0.038 A 
HETATM   25  C15 UNK     1      20.025  -2.200  35.136  1.00  0.00     0.304 A 
HETATM   26  O5  UNK     1      20.684  -2.797  34.293  1.00  0.00    -0.259 OA
HETATM   27  C20 UNK     1      17.592   1.773  36.477  1.00  0.00     0.003 A 
HETATM   28  C19 UNK     1      17.289   1.201  37.712  1.00  0.00     0.001 A 
ENDBRANCH   3  18
TORSDOF 5
ENDMDL
MODEL 3
REMARK VINA RESULT:      -9.1      8.024     10.404
REMARK  5 active torsions:
REMARK  status: ('A' for Active; 'I' for Inactive)
REMARK    1  A    between atoms: C12_19  and  O1_2 
REMARK    2  A    between atoms: C8_15  and  O1_2 
REMARK    3  A    between atoms: C7_14  and  N1_7 
REMARK       I    between atoms: C9_16  and  N1_7 
REMARK    4  A    between atoms: C6_13  and  C8_15 
REMARK    5  A    between atoms: C10_17  and  C9_16 
ROOT
HETATM    1  O4  UNK     1      17.568   3.680  32.691  1.00  0.00    -0.267 OA
HETATM    2  N1  UNK     1      19.200   4.953  31.561  1.00  0.00    -0.316 N 
HETATM    3  C9  UNK     1      18.430   3.831  31.828  1.00  0.00     0.262 C 
HETATM    4  H7  UNK     1      19.865   4.932  30.791  1.00  0.00     0.169 HD
ENDROOT
BRANCH   2   5
HETATM    5  C7  UNK     1      19.147   6.156  32.234  1.00  0.00     0.094 A 
HETATM    6  C6  UNK     1      18.177   7.145  32.266  1.00  0.00     0.080 A 
HETATM    7  C3  UNK     1      18.577   8.202  33.108  1.00  0.00    -0.026 A 
HETATM    8  C1  UNK     1      18.011   9.501  33.545  1.00  0.00     0.041 C 
HETATM    9  C5  UNK     1      19.805   7.982  33.670  1.00  0.00    -0.008 A 
HETATM   10  C2  UNK     1      18.940   9.880  34.741  1.00  0.00     0.010 C 
HETATM   11  C4  UNK     1      20.263   9.072  34.561  1.00  0.00     0.047 C 
HETATM   12  S1  UNK     1      20.516   6.537  33.223  1.00  0.00    -0.075 SA
BRANCH   6  13
HETATM   13  C8  UNK     1      16.942   7.070  31.527  1.00  0.00     0.296 C 
HETATM   14  O2  UNK     1      16.760   7.474  30.368  1.00  0.00    -0.259 OA
BRANCH  13  15
HETATM   15  O1  UNK     1      15.939   6.485  32.267  1.00  0.00    -0.318 OA
BRANCH  15  16
HETATM   16  C12 UNK     1      14.717   7.221  32.399  1.00  0.00     0.174 C 
HETATM   17  C17 UNK     1      14.569   7.677  33.835  1.00  0.00     0.034 C 
ENDBRANCH  15  16
ENDBRANCH  13  15
ENDBRANCH   6  13
ENDBRANCH   2   5
BRANCH   3  18
HETATM   18  C10 UNK     1      18.745   2.722  30.920  1.00  0.00     0.108 A 
HETATM   19  C11 UNK     1      19.168   1.588  31.493  1.00  0.00     0.037 A 
HETATM   20  C13 UNK     1      19.504   0.434  30.676  1.00  0.00    -0.001 A 
HETATM   21  C14 UNK     1      19.380   0.529  29.293  1.00  0.00     0.089 A 
HETATM   22  C16 UNK     1      19.949  -0.768  31.231  1.00  0.00     0.014 A 
HETATM   23  O3  UNK     1      18.935   1.724  28.695  1.00  0.00    -0.274 OA
HETATM   24  C18 UNK     1      19.687  -0.540  28.453  1.00  0.00     0.038 A 
HETATM   25  C15 UNK     1      18.605   2.846  29.450  1.00  0.00     0.304 A 
HETATM   26  O5  UNK     1      18.219   3.882  28.922  1.00  0.00    -0.259 OA
HETATM   27  C20 UNK     1      20.130  -1.735  29.016  1.00  0.00     0.003 A 
HETATM   28  C19 UNK     1      20.260  -1.849  30.401  1.00  0.00     0.001 A 
ENDBRANCH   3  18
TORSDOF 5
ENDMDL
MODEL 4
REMARK VINA RESULT:      -8.9      2.204      8.278
REMARK  5 active torsions:
REMARK  status: ('A' for Active; 'I' for Inactive)
REMARK    1  A    between atoms: C12_19  and  O1_2 
REMARK    2  A    between atoms: C8_15  and  O1_2 
REMARK    3  A    between atoms: C7_14  and  N1_7 
REMARK       I    between atoms: C9_16  and  N1_7 
REMARK    4  A    between atoms: C6_13  and  C8_15 
REMARK    5  A    between atoms: C10_17  and  C9_16 
ROOT
HETATM    1  O4  UNK     1      21.265  -4.497  37.272  1.00  0.00    -0.267 OA
HETATM    2  N1  UNK     1      19.828  -5.504  35.695  1.00  0.00    -0.316 N 
HETATM    3  C9  UNK     1      20.387  -4.456  36.412  1.00  0.00     0.262 C 
HETATM    4  H7  UNK     1      19.117  -5.306  34.995  1.00  0.00     0.169 HD
ENDROOT
BRANCH   2   5
HETATM    5  C7  UNK     1      20.158  -6.838  35.811  1.00  0.00     0.094 A 
HETATM    6  C6  UNK     1      19.907  -7.759  36.814  1.00  0.00     0.080 A 
HETATM    7  C3  UNK     1      20.450  -9.016  36.478  1.00  0.00    -0.026 A 
HETATM    8  C1  UNK     1      20.521 -10.358  37.105  1.00  0.00     0.041 C 
HETATM    9  C5  UNK     1      21.077  -9.002  35.263  1.00  0.00    -0.008 A 
HETATM   10  C2  UNK     1      20.992 -11.253  35.915  1.00  0.00     0.010 C 
HETATM   11  C4  UNK     1      21.663 -10.304  34.872  1.00  0.00     0.047 C 
HETATM   12  S1  UNK     1      21.046  -7.519  34.490  1.00  0.00    -0.075 SA
BRANCH   6  13
HETATM   13  C8  UNK     1      19.188  -7.441  38.022  1.00  0.00     0.296 C 
HETATM   14  O2  UNK     1      18.087  -6.872  38.088  1.00  0.00    -0.259 OA
BRANCH  13  15
HETATM   15  O1  UNK     1      19.873  -7.845  39.146  1.00  0.00    -0.318 OA
BRANCH  15  16
HETATM   16  C12 UNK     1      21.065  -7.121  39.473  1.00  0.00     0.174 C 
HETATM   17  C17 UNK     1      22.167  -8.106  39.802  1.00  0.00     0.034 C 
ENDBRANCH  15  16
ENDBRANCH  13  15
ENDBRANCH   6  13
ENDBRANCH   2   5
BRANCH   3  18
HETATM   18  C10 UNK     1      19.801  -3.163  36.040  1.00  0.00     0.108 A 
HETATM   19  C11 UNK     1      19.056  -2.559  36.974  1.00  0.00     0.037 A 
HETATM   20  C13 UNK     1      18.433  -1.274  36.699  1.00  0.00    -0.001 A 
HETATM   21  C14 UNK     1      18.624  -0.688  35.451  1.00  0.00     0.089 A 
HETATM   22  C16 UNK     1      17.649  -0.609  37.643  1.00  0.00     0.014 A 
HETATM   23  O3  UNK     1      19.408  -1.327  34.473  1.00  0.00    -0.274 OA
HETATM   24  C18 UNK     1      18.054   0.542  35.124  1.00  0.00     0.038 A 
HETATM   25  C15 UNK     1      20.017  -2.557  34.706  1.00  0.00     0.304 A 
HETATM   26  O5  UNK     1      20.698  -3.107  33.848  1.00  0.00    -0.259 OA
HETATM   27  C20 UNK     1      17.274   1.198  36.072  1.00  0.00     0.003 A 
HETATM   28  C19 UNK     1      17.071   0.625  37.329  1.00  0.00     0.001 A 
ENDBRANCH   3  18
TORSDOF 5
ENDMDL
MODEL 5
REMARK VINA RESULT:      -8.8     17.614     21.841
REMARK  5 active torsions:
REMARK  status: ('A' for Active; 'I' for Inactive)
REMARK    1  A    between atoms: C12_19  and  O1_2 
REMARK    2  A    between atoms: C8_15  and  O1_2 
REMARK    3  A    between atoms: C7_14  and  N1_7 
REMARK       I    between atoms: C9_16  and  N1_7 
REMARK    4  A    between atoms: C6_13  and  C8_15 
REMARK    5  A    between atoms: C10_17  and  C9_16 
ROOT
HETATM    1  O4  UNK     1      17.881  -2.161  15.854  1.00  0.00    -0.267 OA
HETATM    2  N1  UNK     1      19.754  -1.325  14.689  1.00  0.00    -0.316 N 
HETATM    3  C9  UNK     1      18.815  -1.375  15.709  1.00  0.00     0.262 C 
HETATM    4  H7  UNK     1      20.487  -0.621  14.719  1.00  0.00     0.169 HD
ENDROOT
BRANCH   2   5
HETATM    5  C7  UNK     1      19.823  -2.173  13.603  1.00  0.00     0.094 A 
HETATM    6  C6  UNK     1      20.274  -3.478  13.489  1.00  0.00     0.080 A 
HETATM    7  C3  UNK     1      20.145  -3.930  12.160  1.00  0.00    -0.026 A 
HETATM    8  C1  UNK     1      20.439  -5.180  11.417  1.00  0.00     0.041 C 
HETATM    9  C5  UNK     1      19.614  -2.977  11.336  1.00  0.00    -0.008 A 
HETATM   10  C2  UNK     1      19.677  -4.951  10.074  1.00  0.00     0.010 C 
HETATM   11  C4  UNK     1      19.463  -3.412   9.929  1.00  0.00     0.047 C 
HETATM   12  S1  UNK     1      19.257  -1.532  12.098  1.00  0.00    -0.075 SA
BRANCH   6  13
HETATM   13  C8  UNK     1      20.798  -4.237  14.597  1.00  0.00     0.296 C 
HETATM   14  O2  UNK     1      20.291  -5.258  15.086  1.00  0.00    -0.259 OA
BRANCH  13  15
HETATM   15  O1  UNK     1      21.965  -3.691  15.083  1.00  0.00    -0.318 OA
BRANCH  15  16
HETATM   16  C12 UNK     1      22.449  -4.202  16.331  1.00  0.00     0.174 C 
HETATM   17  C17 UNK     1      21.966  -3.307  17.452  1.00  0.00     0.034 C 
ENDBRANCH  15  16
ENDBRANCH  13  15
ENDBRANCH   6  13
ENDBRANCH   2   5
BRANCH   3  18
HETATM   18  C10 UNK     1      19.033  -0.321  16.706  1.00  0.00     0.108 A 
HETATM   19  C11 UNK     1      19.022  -0.706  17.988  1.00  0.00     0.037 A 
HETATM   20  C13 UNK     1      19.229   0.267  19.049  1.00  0.00    -0.001 A 
HETATM   21  C14 UNK     1      19.436   1.600  18.707  1.00  0.00     0.089 A 
HETATM   22  C16 UNK     1      19.226  -0.090  20.399  1.00  0.00     0.014 A 
HETATM   23  O3  UNK     1      19.447   2.000  17.358  1.00  0.00    -0.274 OA
HETATM   24  C18 UNK     1      19.640   2.582  19.676  1.00  0.00     0.038 A 
HETATM   25  C15 UNK     1      19.252   1.092  16.320  1.00  0.00     0.304 A 
HETATM   26  O5  UNK     1      19.261   1.450  15.148  1.00  0.00    -0.259 OA
HETATM   27  C20 UNK     1      19.636   2.216  21.020  1.00  0.00     0.003 A 
HETATM   28  C19 UNK     1      19.429   0.884  21.381  1.00  0.00     0.001 A 
ENDBRANCH   3  18
TORSDOF 5
ENDMDL
MODEL 6
REMARK VINA RESULT:      -8.7      7.115     12.594
REMARK  5 active torsions:
REMARK  status: ('A' for Active; 'I' for Inactive)
REMARK    1  A    between atoms: C12_19  and  O1_2 
REMARK    2  A    between atoms: C8_15  and  O1_2 
REMARK    3  A    between atoms: C7_14  and  N1_7 
REMARK       I    between atoms: C9_16  and  N1_7 
REMARK    4  A    between atoms: C6_13  and  C8_15 
REMARK    5  A    between atoms: C10_17  and  C9_16 
ROOT
HETATM    1  O4  UNK     1      19.296   5.525  32.878  1.00  0.00    -0.267 OA
HETATM    2  N1  UNK     1      17.614   4.441  31.629  1.00  0.00    -0.316 N 
HETATM    3  C9  UNK     1      18.196   5.486  32.331  1.00  0.00     0.262 C 
HETATM    4  H7  UNK     1      16.696   4.569  31.211  1.00  0.00     0.169 HD
ENDROOT
BRANCH   2   5
HETATM    5  C7  UNK     1      18.175   3.201  31.401  1.00  0.00     0.094 A 
HETATM    6  C6  UNK     1      18.357   2.112  32.238  1.00  0.00     0.080 A 
HETATM    7  C3  UNK     1      18.984   1.056  31.545  1.00  0.00    -0.026 A 
HETATM    8  C1  UNK     1      19.438  -0.319  31.864  1.00  0.00     0.041 C 
HETATM    9  C5  UNK     1      19.249   1.376  30.241  1.00  0.00    -0.008 A 
HETATM   10  C2  UNK     1      19.708  -0.914  30.446  1.00  0.00     0.010 C 
HETATM   11  C4  UNK     1      19.910   0.294  29.478  1.00  0.00     0.047 C 
HETATM   12  S1  UNK     1      18.771   2.917  29.802  1.00  0.00    -0.075 SA
BRANCH   6  13
HETATM   13  C8  UNK     1      17.949   2.095  33.620  1.00  0.00     0.296 C 
HETATM   14  O2  UNK     1      18.428   2.789  34.531  1.00  0.00    -0.259 OA
BRANCH  13  15
HETATM   15  O1  UNK     1      16.936   1.190  33.843  1.00  0.00    -0.318 OA
BRANCH  15  16
HETATM   16  C12 UNK     1      17.086   0.310  34.964  1.00  0.00     0.174 C 
HETATM   17  C17 UNK     1      15.777   0.250  35.722  1.00  0.00     0.034 C 
ENDBRANCH  15  16
ENDBRANCH  13  15
ENDBRANCH   6  13
ENDBRANCH   2   5
BRANCH   3  18
HETATM   18  C10 UNK     1      17.322   6.664  32.383  1.00  0.00     0.108 A 
HETATM   19  C11 UNK     1      16.905   7.038  33.599  1.00  0.00     0.037 A 
HETATM   20  C13 UNK     1      16.035   8.194  33.753  1.00  0.00    -0.001 A 
HETATM   21  C14 UNK     1      15.646   8.898  32.618  1.00  0.00     0.089 A 
HETATM   22  C16 UNK     1      15.576   8.620  35.001  1.00  0.00     0.014 A 
HETATM   23  O3  UNK     1      16.087   8.500  31.342  1.00  0.00    -0.274 OA
HETATM   24  C18 UNK     1      14.813  10.014  32.697  1.00  0.00     0.038 A 
HETATM   25  C15 UNK     1      16.920   7.399  31.162  1.00  0.00     0.304 A 
HETATM   26  O5  UNK     1      17.299   7.059  30.047  1.00  0.00    -0.259 OA
HETATM   27  C20 UNK     1      14.360  10.432  33.946  1.00  0.00     0.003 A 
HETATM   28  C19 UNK     1      14.741   9.737  35.095  1.00  0.00     0.001 A 
ENDBRANCH   3  18
TORSDOF 5
ENDMDL
MODEL 7
REMARK VINA RESULT:      -8.7      1.854      2.395
REMARK  5 active torsions:
REMARK  status: ('A' for Active; 'I' for Inactive)
REMARK    1  A    between atoms: C12_19  and  O1_2 
REMARK    2  A    between atoms: C8_15  and  O1_2 
REMARK    3  A    between atoms: C7_14  and  N1_7 
REMARK       I    between atoms: C9_16  and  N1_7 
REMARK    4  A    between atoms: C6_13  and  C8_15 
REMARK    5  A    between atoms: C10_17  and  C9_16 
ROOT
HETATM    1  O4  UNK     1      18.354  -5.379  36.464  1.00  0.00    -0.267 OA
HETATM    2  N1  UNK     1      20.172  -3.885  36.296  1.00  0.00    -0.316 N 
HETATM    3  C9  UNK     1      19.555  -5.118  36.452  1.00  0.00     0.262 C 
HETATM    4  H7  UNK     1      21.187  -3.832  36.288  1.00  0.00     0.169 HD
ENDROOT
BRANCH   2   5
HETATM    5  C7  UNK     1      19.537  -2.674  36.118  1.00  0.00     0.094 A 
HETATM    6  C6  UNK     1      19.487  -1.818  35.029  1.00  0.00     0.080 A 
HETATM    7  C3  UNK     1      18.701  -0.686  35.326  1.00  0.00    -0.026 A 
HETATM    8  C1  UNK     1      18.278   0.545  34.616  1.00  0.00     0.041 C 
HETATM    9  C5  UNK     1      18.196  -0.724  36.597  1.00  0.00    -0.008 A 
HETATM   10  C2  UNK     1      17.144   1.087  35.543  1.00  0.00     0.010 C 
HETATM   11  C4  UNK     1      17.365   0.449  36.951  1.00  0.00     0.047 C 
HETATM   12  S1  UNK     1      18.632  -2.082  37.469  1.00  0.00    -0.075 SA
BRANCH   6  13
HETATM   13  C8  UNK     1      20.159  -2.080  33.781  1.00  0.00     0.296 C 
HETATM   14  O2  UNK     1      21.338  -2.445  33.650  1.00  0.00    -0.259 OA
BRANCH  13  15
HETATM   15  O1  UNK     1      19.330  -1.873  32.702  1.00  0.00    -0.318 OA
BRANCH  15  16
HETATM   16  C12 UNK     1      19.877  -1.148  31.594  1.00  0.00     0.174 C 
HETATM   17  C17 UNK     1      20.184  -2.118  30.473  1.00  0.00     0.034 C 
ENDBRANCH  15  16
ENDBRANCH  13  15
ENDBRANCH   6  13
ENDBRANCH   2   5
BRANCH   3  18
HETATM   18  C10 UNK     1      20.531  -6.201  36.621  1.00  0.00     0.108 A 
HETATM   19  C11 UNK     1      20.410  -7.242  35.788  1.00  0.00     0.037 A 
HETATM   20  C13 UNK     1      21.331  -8.364  35.878  1.00  0.00    -0.001 A 
HETATM   21  C14 UNK     1      22.335  -8.335  36.842  1.00  0.00     0.089 A 
HETATM   22  C16 UNK     1      21.243  -9.471  35.031  1.00  0.00     0.014 A 
HETATM   23  O3  UNK     1      22.457  -7.238  37.715  1.00  0.00    -0.274 OA
HETATM   24  C18 UNK     1      23.249  -9.379  36.981  1.00  0.00     0.038 A 
HETATM   25  C15 UNK     1      21.592  -6.149  37.654  1.00  0.00     0.304 A 
HETATM   26  O5  UNK     1      21.705  -5.198  38.418  1.00  0.00    -0.259 OA
HETATM   27  C20 UNK     1      23.153 -10.479  36.131  1.00  0.00     0.003 A 
HETATM   28  C19 UNK     1      22.152 -10.525  35.158  1.00  0.00     0.001 A 
ENDBRANCH   3  18
TORSDOF 5
ENDMDL
MODEL 8
REMARK VINA RESULT:      -8.5      6.545     11.678
REMARK  5 active torsions:
REMARK  status: ('A' for Active; 'I' for Inactive)
REMARK    1  A    between atoms: C12_19  and  O1_2 
REMARK    2  A    between atoms: C8_15  and  O1_2 
REMARK    3  A    between atoms: C7_14  and  N1_7 
REMARK       I    between atoms: C9_16  and  N1_7 
REMARK    4  A    between atoms: C6_13  and  C8_15 
REMARK    5  A    between atoms: C10_17  and  C9_16 
ROOT
HETATM    1  O4  UNK     1      19.350   4.656  30.757  1.00  0.00    -0.267 OA
HETATM    2  N1  UNK     1      18.235   3.016  32.036  1.00  0.00    -0.316 N 
HETATM    3  C9  UNK     1      18.565   4.303  31.635  1.00  0.00     0.262 C 
HETATM    4  H7  UNK     1      17.545   2.883  32.771  1.00  0.00     0.169 HD
ENDROOT
BRANCH   2   5
HETATM    5  C7  UNK     1      18.740   1.845  31.510  1.00  0.00     0.094 A 
HETATM    6  C6  UNK     1      18.925   0.594  32.075  1.00  0.00     0.080 A 
HETATM    7  C3  UNK     1      19.480  -0.296  31.133  1.00  0.00    -0.026 A 
HETATM    8  C1  UNK     1      19.900  -1.718  31.115  1.00  0.00     0.041 C 
HETATM    9  C5  UNK     1      19.690   0.298  29.918  1.00  0.00    -0.008 A 
HETATM   10  C2  UNK     1      20.079  -1.990  29.588  1.00  0.00     0.010 C 
HETATM   11  C4  UNK     1      20.274  -0.603  28.899  1.00  0.00     0.047 C 
HETATM   12  S1  UNK     1      19.244   1.908  29.856  1.00  0.00    -0.075 SA
BRANCH   6  13
HETATM   13  C8  UNK     1      18.586   0.281  33.441  1.00  0.00     0.296 C 
HETATM   14  O2  UNK     1      19.242  -0.442  34.207  1.00  0.00    -0.259 OA
BRANCH  13  15
HETATM   15  O1  UNK     1      17.411   0.885  33.826  1.00  0.00    -0.318 OA
BRANCH  15  16
HETATM   16  C12 UNK     1      17.117   0.896  35.229  1.00  0.00     0.174 C 
HETATM   17  C17 UNK     1      15.847   0.110  35.474  1.00  0.00     0.034 C 
ENDBRANCH  15  16
ENDBRANCH  13  15
ENDBRANCH   6  13
ENDBRANCH   2   5
BRANCH   3  18
HETATM   18  C10 UNK     1      17.841   5.319  32.408  1.00  0.00     0.108 A 
HETATM   19  C11 UNK     1      16.700   5.769  31.872  1.00  0.00     0.037 A 
HETATM   20  C13 UNK     1      15.912   6.778  32.564  1.00  0.00    -0.001 A 
HETATM   21  C14 UNK     1      16.366   7.263  33.787  1.00  0.00     0.089 A 
HETATM   22  C16 UNK     1      14.716   7.276  32.043  1.00  0.00     0.014 A 
HETATM   23  O3  UNK     1      17.567   6.786  34.345  1.00  0.00    -0.274 OA
HETATM   24  C18 UNK     1      15.658   8.230  34.500  1.00  0.00     0.038 A 
HETATM   25  C15 UNK     1      18.342   5.822  33.708  1.00  0.00     0.304 A 
HETATM   26  O5  UNK     1      19.387   5.413  34.201  1.00  0.00    -0.259 OA
HETATM   27  C20 UNK     1      14.466   8.721  33.972  1.00  0.00     0.003 A 
HETATM   28  C19 UNK     1      13.996   8.245  32.747  1.00  0.00     0.001 A 
ENDBRANCH   3  18
TORSDOF 5
ENDMDL
MODEL 9
REMARK VINA RESULT:      -8.5      7.526     10.405
REMARK  5 active torsions:
REMARK  status: ('A' for Active; 'I' for Inactive)
REMARK    1  A    between atoms: C12_19  and  O1_2 
REMARK    2  A    between atoms: C8_15  and  O1_2 
REMARK    3  A    between atoms: C7_14  and  N1_7 
REMARK       I    between atoms: C9_16  and  N1_7 
REMARK    4  A    between atoms: C6_13  and  C8_15 
REMARK    5  A    between atoms: C10_17  and  C9_16 
ROOT
HETATM    1  O4  UNK     1      18.391   5.441  30.541  1.00  0.00    -0.267 OA
HETATM    2  N1  UNK     1      17.376   5.144  32.650  1.00  0.00    -0.316 N 
HETATM    3  C9  UNK     1      18.066   4.757  31.510  1.00  0.00     0.262 C 
HETATM    4  H7  UNK     1      17.198   4.460  33.382  1.00  0.00     0.169 HD
ENDROOT
BRANCH   2   5
HETATM    5  C7  UNK     1      16.906   6.410  32.927  1.00  0.00     0.094 A 
HETATM    6  C6  UNK     1      17.511   7.499  33.534  1.00  0.00     0.080 A 
HETATM    7  C3  UNK     1      16.619   8.589  33.594  1.00  0.00    -0.026 A 
HETATM    8  C1  UNK     1      16.657   9.981  34.104  1.00  0.00     0.041 C 
HETATM    9  C5  UNK     1      15.401   8.296  33.044  1.00  0.00    -0.008 A 
HETATM   10  C2  UNK     1      15.376  10.603  33.462  1.00  0.00     0.010 C 
HETATM   11  C4  UNK     1      14.434   9.415  33.089  1.00  0.00     0.047 C 
HETATM   12  S1  UNK     1      15.275   6.739  32.448  1.00  0.00    -0.075 SA
BRANCH   6  13
HETATM   13  C8  UNK     1      18.866   7.483  34.025  1.00  0.00     0.296 C 
HETATM   14  O2  UNK     1      19.215   7.631  35.207  1.00  0.00    -0.259 OA
BRANCH  13  15
HETATM   15  O1  UNK     1      19.774   7.283  33.010  1.00  0.00    -0.318 OA
BRANCH  15  16
HETATM   16  C12 UNK     1      20.779   6.285  33.226  1.00  0.00     0.174 C 
HETATM   17  C17 UNK     1      21.586   6.115  31.957  1.00  0.00     0.034 C 
ENDBRANCH  15  16
ENDBRANCH  13  15
ENDBRANCH   6  13
ENDBRANCH   2   5
BRANCH   3  18
HETATM   18  C10 UNK     1      18.417   3.333  31.539  1.00  0.00     0.108 A 
HETATM   19  C11 UNK     1      18.831   2.801  30.382  1.00  0.00     0.037 A 
HETATM   20  C13 UNK     1      19.201   1.396  30.311  1.00  0.00    -0.001 A 
HETATM   21  C14 UNK     1      19.117   0.620  31.463  1.00  0.00     0.089 A 
HETATM   22  C16 UNK     1      19.638   0.800  29.127  1.00  0.00     0.014 A 
HETATM   23  O3  UNK     1      18.682   1.184  32.677  1.00  0.00    -0.274 OA
HETATM   24  C18 UNK     1      19.457  -0.733  31.462  1.00  0.00     0.038 A 
HETATM   25  C15 UNK     1      18.321   2.525  32.777  1.00  0.00     0.304 A 
HETATM   26  O5  UNK     1      17.941   3.008  33.837  1.00  0.00    -0.259 OA
HETATM   27  C20 UNK     1      19.892  -1.319  30.275  1.00  0.00     0.003 A 
HETATM   28  C19 UNK     1      19.982  -0.555  29.111  1.00  0.00     0.001 A 
ENDBRANCH   3  18
TORSDOF 5
ENDMDL
MODEL 10
REMARK VINA RESULT:      -8.3      2.041      7.737
REMARK  5 active torsions:
REMARK  status: ('A' for Active; 'I' for Inactive)
REMARK    1  A    between atoms: C12_19  and  O1_2 
REMARK    2  A    between atoms: C8_15  and  O1_2 
REMARK    3  A    between atoms: C7_14  and  N1_7 
REMARK       I    between atoms: C9_16  and  N1_7 
REMARK    4  A    between atoms: C6_13  and  C8_15 
REMARK    5  A    between atoms: C10_17  and  C9_16 
ROOT
HETATM    1  O4  UNK     1      19.889  -2.157  37.120  1.00  0.00    -0.267 OA
HETATM    2  N1  UNK     1      19.886  -4.106  35.790  1.00  0.00    -0.316 N 
HETATM    3  C9  UNK     1      19.819  -2.743  36.041  1.00  0.00     0.262 C 
HETATM    4  H7  UNK     1      19.833  -4.441  34.831  1.00  0.00     0.169 HD
ENDROOT
BRANCH   2   5
HETATM    5  C7  UNK     1      20.048  -5.100  36.733  1.00  0.00     0.094 A 
HETATM    6  C6  UNK     1      19.309  -6.244  36.992  1.00  0.00     0.080 A 
HETATM    7  C3  UNK     1      19.871  -6.960  38.068  1.00  0.00    -0.026 A 
HETATM    8  C1  UNK     1      19.565  -8.212  38.803  1.00  0.00     0.041 C 
HETATM    9  C5  UNK     1      20.987  -6.350  38.573  1.00  0.00    -0.008 A 
HETATM   10  C2  UNK     1      20.878  -8.448  39.615  1.00  0.00     0.010 C 
HETATM   11  C4  UNK     1      21.608  -7.071  39.707  1.00  0.00     0.047 C 
HETATM   12  S1  UNK     1      21.400  -4.926  37.799  1.00  0.00    -0.075 SA
BRANCH   6  13
HETATM   13  C8  UNK     1      18.134  -6.617  36.246  1.00  0.00     0.296 C 
HETATM   14  O2  UNK     1      16.962  -6.549  36.649  1.00  0.00    -0.259 OA
BRANCH  13  15
HETATM   15  O1  UNK     1      18.453  -7.080  34.990  1.00  0.00    -0.318 OA
BRANCH  15  16
HETATM   16  C12 UNK     1      19.705  -7.762  34.849  1.00  0.00     0.174 C 
HETATM   17  C17 UNK     1      20.514  -7.088  33.761  1.00  0.00     0.034 C 
ENDBRANCH  15  16
ENDBRANCH  13  15
ENDBRANCH   6  13
ENDBRANCH   2   5
BRANCH   3  18
HETATM   18  C10 UNK     1      19.642  -1.968  34.808  1.00  0.00     0.108 A 
HETATM   19  C11 UNK     1      20.210  -2.471  33.705  1.00  0.00     0.037 A 
HETATM   20  C13 UNK     1      20.089  -1.774  32.434  1.00  0.00    -0.001 A 
HETATM   21  C14 UNK     1      19.376  -0.580  32.387  1.00  0.00     0.089 A 
HETATM   22  C16 UNK     1      20.664  -2.263  31.259  1.00  0.00     0.014 A 
HETATM   23  O3  UNK     1      18.781  -0.055  33.550  1.00  0.00    -0.274 OA
HETATM   24  C18 UNK     1      19.224   0.137  31.201  1.00  0.00     0.038 A 
HETATM   25  C15 UNK     1      18.879  -0.699  34.781  1.00  0.00     0.304 A 
HETATM   26  O5  UNK     1      18.359  -0.234  35.788  1.00  0.00    -0.259 OA
HETATM   27  C20 UNK     1      19.802  -0.358  30.034  1.00  0.00     0.003 A 
HETATM   28  C19 UNK     1      20.520  -1.554  30.062  1.00  0.00     0.001 A 
ENDBRANCH   3  18
TORSDOF 5
ENDMDL
