MODEL 1
REMARK VINA RESULT:      -9.2      0.000      0.000
REMARK  5 active torsions:
REMARK  status: ('A' for Active; 'I' for Inactive)
REMARK    1  A    between atoms: C4_10  and  N1_5 
REMARK    2  A    between atoms: C7_13  and  N2_6 
REMARK       I    between atoms: C8_14  and  N2_6 
REMARK    3  A    between atoms: C4_10  and  C6_12 
REMARK    4  A    between atoms: C6_12  and  C7_13 
REMARK    5  A    between atoms: C8_14  and  C9_15 
ROOT
HETATM    1  O3  UNK     1      17.040   4.521  31.903  1.00  0.00    -0.267 OA
HETATM    2  N2  UNK     1      19.291   5.011  31.544  1.00  0.00    -0.357 N 
HETATM    3  C8  UNK     1      18.206   4.173  31.724  1.00  0.00     0.257 C 
HETATM    4  H13 UNK     1      20.214   4.624  31.378  1.00  0.00     0.162 HD
ENDROOT
BRANCH   3   5
HETATM    5  C9  UNK     1      18.569   2.751  31.680  1.00  0.00     0.108 A 
HETATM    6  C11 UNK     1      19.024   2.293  30.508  1.00  0.00     0.037 A 
HETATM    7  C10 UNK     1      19.409   0.897  30.367  1.00  0.00    -0.001 A 
HETATM    8  C12 UNK     1      19.296   0.053  31.468  1.00  0.00     0.089 A 
HETATM    9  C14 UNK     1      19.889   0.375  29.164  1.00  0.00     0.014 A 
HETATM   10  O2  UNK     1      18.815   0.542  32.698  1.00  0.00    -0.274 OA
HETATM   11  C15 UNK     1      19.646  -1.294  31.398  1.00  0.00     0.038 A 
HETATM   12  C13 UNK     1      18.439   1.871  32.864  1.00  0.00     0.304 A 
HETATM   13  O4  UNK     1      18.022   2.288  33.939  1.00  0.00    -0.259 OA
HETATM   14  C17 UNK     1      20.124  -1.806  30.194  1.00  0.00     0.003 A 
HETATM   15  C16 UNK     1      20.247  -0.974  29.079  1.00  0.00     0.001 A 
ENDBRANCH   3   5
BRANCH   2  16
HETATM   16  C7  UNK     1      19.182   6.453  31.544  1.00  0.00     0.124 C 
BRANCH  16  17
HETATM   17  C6  UNK     1      19.098   7.033  32.954  1.00  0.00     0.039 C 
BRANCH  17  18
HETATM   18  C4  UNK     1      18.176   8.245  33.068  1.00  0.00     0.127 C 
BRANCH  18  19
HETATM   19  N1  UNK     1      16.776   7.885  33.002  1.00  0.00    -0.352 N 
HETATM   20  C1  UNK     1      16.103   7.258  34.114  1.00  0.00     0.126 C 
HETATM   21  C2  UNK     1      14.638   7.396  33.752  1.00  0.00     0.029 C 
HETATM   22  C3  UNK     1      14.634   7.373  32.229  1.00  0.00     0.104 C 
HETATM   23  C5  UNK     1      15.974   7.970  31.867  1.00  0.00     0.219 C 
HETATM   24  O1  UNK     1      16.270   8.394  30.759  1.00  0.00    -0.273 OA
ENDBRANCH  18  19
ENDBRANCH  17  18
ENDBRANCH  16  17
ENDBRANCH   2  16
TORSDOF 5
ENDMDL
MODEL 2
REMARK VINA RESULT:      -9.0      1.454      2.087
REMARK  5 active torsions:
REMARK  status: ('A' for Active; 'I' for Inactive)
REMARK    1  A    between atoms: C4_10  and  N1_5 
REMARK    2  A    between atoms: C7_13  and  N2_6 
REMARK       I    between atoms: C8_14  and  N2_6 
REMARK    3  A    between atoms: C4_10  and  C6_12 
REMARK    4  A    between atoms: C6_12  and  C7_13 
REMARK    5  A    between atoms: C8_14  and  C9_15 
ROOT
HETATM    1  O3  UNK     1      17.473   3.665  31.924  1.00  0.00    -0.267 OA
HETATM    2  N2  UNK     1      18.876   4.697  30.373  1.00  0.00    -0.357 N 
HETATM    3  C8  UNK     1      18.281   3.616  30.997  1.00  0.00     0.257 C 
HETATM    4  H13 UNK     1      19.515   4.553  29.599  1.00  0.00     0.162 HD
ENDROOT
BRANCH   3   5
HETATM    5  C9  UNK     1      18.708   2.328  30.438  1.00  0.00     0.108 A 
HETATM    6  C11 UNK     1      19.227   1.450  31.305  1.00  0.00     0.037 A 
HETATM    7  C10 UNK     1      19.679   0.146  30.845  1.00  0.00    -0.001 A 
HETATM    8  C12 UNK     1      19.562  -0.170  29.494  1.00  0.00     0.089 A 
HETATM    9  C14 UNK     1      20.226  -0.801  31.713  1.00  0.00     0.014 A 
HETATM   10  O2  UNK     1      19.016   0.759  28.588  1.00  0.00    -0.274 OA
HETATM   11  C15 UNK     1      19.977  -1.400  28.991  1.00  0.00     0.038 A 
HETATM   12  C13 UNK     1      18.575   2.014  28.997  1.00  0.00     0.304 A 
HETATM   13  O4  UNK     1      18.100   2.816  28.200  1.00  0.00    -0.259 OA
HETATM   14  C17 UNK     1      20.522  -2.339  29.863  1.00  0.00     0.003 A 
HETATM   15  C16 UNK     1      20.646  -2.041  31.223  1.00  0.00     0.001 A 
ENDBRANCH   3   5
BRANCH   2  16
HETATM   16  C7  UNK     1      18.610   6.068  30.748  1.00  0.00     0.124 C 
BRANCH  16  17
HETATM   17  C6  UNK     1      19.047   6.379  32.179  1.00  0.00     0.039 C 
BRANCH  17  18
HETATM   18  C4  UNK     1      18.441   7.661  32.743  1.00  0.00     0.127 C 
BRANCH  18  19
HETATM   19  N1  UNK     1      17.003   7.583  32.879  1.00  0.00    -0.352 N 
HETATM   20  C1  UNK     1      16.384   6.941  34.015  1.00  0.00     0.126 C 
HETATM   21  C2  UNK     1      14.942   7.400  33.927  1.00  0.00     0.029 C 
HETATM   22  C3  UNK     1      14.711   7.595  32.433  1.00  0.00     0.104 C 
HETATM   23  C5  UNK     1      16.078   7.976  31.915  1.00  0.00     0.219 C 
HETATM   24  O1  UNK     1      16.291   8.490  30.826  1.00  0.00    -0.273 OA
ENDBRANCH  18  19
ENDBRANCH  17  18
ENDBRANCH  16  17
ENDBRANCH   2  16
TORSDOF 5
ENDMDL
MODEL 3
REMARK VINA RESULT:      -9.0      1.653      2.384
REMARK  5 active torsions:
REMARK  status: ('A' for Active; 'I' for Inactive)
REMARK    1  A    between atoms: C4_10  and  N1_5 
REMARK    2  A    between atoms: C7_13  and  N2_6 
REMARK       I    between atoms: C8_14  and  N2_6 
REMARK    3  A    between atoms: C4_10  and  C6_12 
REMARK    4  A    between atoms: C6_12  and  C7_13 
REMARK    5  A    between atoms: C8_14  and  C9_15 
ROOT
HETATM    1  O3  UNK     1      18.045   3.389  28.695  1.00  0.00    -0.267 OA
HETATM    2  N2  UNK     1      19.368   4.377  30.341  1.00  0.00    -0.357 N 
HETATM    3  C8  UNK     1      18.738   3.321  29.709  1.00  0.00     0.257 C 
HETATM    4  H13 UNK     1      19.939   4.214  31.163  1.00  0.00     0.162 HD
ENDROOT
BRANCH   3   5
HETATM    5  C9  UNK     1      18.970   2.035  30.378  1.00  0.00     0.108 A 
HETATM    6  C11 UNK     1      19.598   1.098  29.656  1.00  0.00     0.037 A 
HETATM    7  C10 UNK     1      19.873  -0.208  30.233  1.00  0.00    -0.001 A 
HETATM    8  C12 UNK     1      19.473  -0.465  31.541  1.00  0.00     0.089 A 
HETATM    9  C14 UNK     1      20.525  -1.215  29.518  1.00  0.00     0.014 A 
HETATM   10  O2  UNK     1      18.813   0.524  32.294  1.00  0.00    -0.274 OA
HETATM   11  C15 UNK     1      19.706  -1.696  32.150  1.00  0.00     0.038 A 
HETATM   12  C13 UNK     1      18.535   1.784  31.770  1.00  0.00     0.304 A 
HETATM   13  O4  UNK     1      17.959   2.640  32.434  1.00  0.00    -0.259 OA
HETATM   14  C17 UNK     1      20.357  -2.694  31.430  1.00  0.00     0.003 A 
HETATM   15  C16 UNK     1      20.767  -2.455  30.116  1.00  0.00     0.001 A 
ENDBRANCH   3   5
BRANCH   2  16
HETATM   16  C7  UNK     1      19.288   5.740  29.866  1.00  0.00     0.124 C 
BRANCH  16  17
HETATM   17  C6  UNK     1      18.188   6.539  30.562  1.00  0.00     0.039 C 
BRANCH  17  18
HETATM   18  C4  UNK     1      18.007   6.185  32.036  1.00  0.00     0.127 C 
BRANCH  18  19
HETATM   19  N1  UNK     1      18.449   7.241  32.920  1.00  0.00    -0.352 N 
HETATM   20  C1  UNK     1      19.572   7.064  33.809  1.00  0.00     0.126 C 
HETATM   21  C2  UNK     1      19.888   8.480  34.251  1.00  0.00     0.029 C 
HETATM   22  C3  UNK     1      18.537   9.185  34.210  1.00  0.00     0.104 C 
HETATM   23  C5  UNK     1      17.795   8.456  33.115  1.00  0.00     0.219 C 
HETATM   24  O1  UNK     1      16.786   8.871  32.563  1.00  0.00    -0.273 OA
ENDBRANCH  18  19
ENDBRANCH  17  18
ENDBRANCH  16  17
ENDBRANCH   2  16
TORSDOF 5
ENDMDL
MODEL 4
REMARK VINA RESULT:      -8.6      7.688     12.582
REMARK  5 active torsions:
REMARK  status: ('A' for Active; 'I' for Inactive)
REMARK    1  A    between atoms: C4_10  and  N1_5 
REMARK    2  A    between atoms: C7_13  and  N2_6 
REMARK       I    between atoms: C8_14  and  N2_6 
REMARK    3  A    between atoms: C4_10  and  C6_12 
REMARK    4  A    between atoms: C6_12  and  C7_13 
REMARK    5  A    between atoms: C8_14  and  C9_15 
ROOT
HETATM    1  O3  UNK     1      20.655  -4.450  37.506  1.00  0.00    -0.267 OA
HETATM    2  N2  UNK     1      18.686  -5.042  36.406  1.00  0.00    -0.357 N 
HETATM    3  C8  UNK     1      19.659  -4.162  36.844  1.00  0.00     0.257 C 
HETATM    4  H13 UNK     1      17.911  -4.708  35.842  1.00  0.00     0.162 HD
ENDROOT
BRANCH   3   5
HETATM    5  C9  UNK     1      19.402  -2.776  36.434  1.00  0.00     0.108 A 
HETATM    6  C11 UNK     1      18.650  -2.044  37.265  1.00  0.00     0.037 A 
HETATM    7  C10 UNK     1      18.341  -0.659  36.945  1.00  0.00    -0.001 A 
HETATM    8  C12 UNK     1      18.839  -0.113  35.766  1.00  0.00     0.089 A 
HETATM    9  C14 UNK     1      17.561   0.142  37.782  1.00  0.00     0.014 A 
HETATM   10  O2  UNK     1      19.629  -0.889  34.896  1.00  0.00    -0.274 OA
HETATM   11  C15 UNK     1      18.578   1.206  35.401  1.00  0.00     0.038 A 
HETATM   12  C13 UNK     1      19.942  -2.216  35.175  1.00  0.00     0.304 A 
HETATM   13  O4  UNK     1      20.631  -2.885  34.411  1.00  0.00    -0.259 OA
HETATM   14  C17 UNK     1      17.800   1.998  36.241  1.00  0.00     0.003 A 
HETATM   15  C16 UNK     1      17.292   1.468  37.430  1.00  0.00     0.001 A 
ENDBRANCH   3   5
BRANCH   2  16
HETATM   16  C7  UNK     1      18.724  -6.460  36.683  1.00  0.00     0.124 C 
BRANCH  16  17
HETATM   17  C6  UNK     1      19.091  -7.287  35.452  1.00  0.00     0.039 C 
BRANCH  17  18
HETATM   18  C4  UNK     1      20.583  -7.588  35.334  1.00  0.00     0.127 C 
BRANCH  18  19
HETATM   19  N1  UNK     1      20.934  -8.879  35.884  1.00  0.00    -0.352 N 
HETATM   20  C1  UNK     1      20.839  -9.150  37.298  1.00  0.00     0.126 C 
HETATM   21  C2  UNK     1      20.945 -10.661  37.367  1.00  0.00     0.029 C 
HETATM   22  C3  UNK     1      21.819 -11.020  36.171  1.00  0.00     0.104 C 
HETATM   23  C5  UNK     1      21.511  -9.929  35.173  1.00  0.00     0.219 C 
HETATM   24  O1  UNK     1      21.778  -9.981  33.981  1.00  0.00    -0.273 OA
ENDBRANCH  18  19
ENDBRANCH  17  18
ENDBRANCH  16  17
ENDBRANCH   2  16
TORSDOF 5
ENDMDL
MODEL 5
REMARK VINA RESULT:      -8.5      7.744     12.308
REMARK  5 active torsions:
REMARK  status: ('A' for Active; 'I' for Inactive)
REMARK    1  A    between atoms: C4_10  and  N1_5 
REMARK    2  A    between atoms: C7_13  and  N2_6 
REMARK       I    between atoms: C8_14  and  N2_6 
REMARK    3  A    between atoms: C4_10  and  C6_12 
REMARK    4  A    between atoms: C6_12  and  C7_13 
REMARK    5  A    between atoms: C8_14  and  C9_15 
ROOT
HETATM    1  O3  UNK     1      20.416  -4.480  37.579  1.00  0.00    -0.267 OA
HETATM    2  N2  UNK     1      19.714  -5.010  35.420  1.00  0.00    -0.357 N 
HETATM    3  C8  UNK     1      19.947  -4.162  36.487  1.00  0.00     0.257 C 
HETATM    4  H13 UNK     1      19.345  -4.645  34.548  1.00  0.00     0.162 HD
ENDROOT
BRANCH   3   5
HETATM    5  C9  UNK     1      19.574  -2.771  36.204  1.00  0.00     0.108 A 
HETATM    6  C11 UNK     1      18.849  -2.150  37.142  1.00  0.00     0.037 A 
HETATM    7  C10 UNK     1      18.431  -0.771  36.952  1.00  0.00    -0.001 A 
HETATM    8  C12 UNK     1      18.798  -0.111  35.782  1.00  0.00     0.089 A 
HETATM    9  C14 UNK     1      17.675  -0.083  37.904  1.00  0.00     0.014 A 
HETATM   10  O2  UNK     1      19.560  -0.770  34.799  1.00  0.00    -0.274 OA
HETATM   11  C15 UNK     1      18.429   1.210  35.539  1.00  0.00     0.038 A 
HETATM   12  C13 UNK     1      19.975  -2.090  34.952  1.00  0.00     0.304 A 
HETATM   13  O4  UNK     1      20.639  -2.655  34.090  1.00  0.00    -0.259 OA
HETATM   14  C17 UNK     1      17.674   1.888  36.493  1.00  0.00     0.003 A 
HETATM   15  C16 UNK     1      17.298   1.243  37.674  1.00  0.00     0.001 A 
ENDBRANCH   3   5
BRANCH   2  16
HETATM   16  C7  UNK     1      20.004  -6.426  35.459  1.00  0.00     0.124 C 
BRANCH  16  17
HETATM   17  C6  UNK     1      18.742  -7.279  35.579  1.00  0.00     0.039 C 
BRANCH  17  18
HETATM   18  C4  UNK     1      18.245  -7.445  37.013  1.00  0.00     0.127 C 
BRANCH  18  19
HETATM   19  N1  UNK     1      18.992  -8.441  37.748  1.00  0.00    -0.352 N 
HETATM   20  C1  UNK     1      18.944  -9.839  37.392  1.00  0.00     0.126 C 
HETATM   21  C2  UNK     1      20.110 -10.431  38.159  1.00  0.00     0.029 C 
HETATM   22  C3  UNK     1      20.215  -9.550  39.399  1.00  0.00     0.104 C 
HETATM   23  C5  UNK     1      19.710  -8.210  38.920  1.00  0.00     0.219 C 
HETATM   24  O1  UNK     1      19.883  -7.151  39.506  1.00  0.00    -0.273 OA
ENDBRANCH  18  19
ENDBRANCH  17  18
ENDBRANCH  16  17
ENDBRANCH   2  16
TORSDOF 5
ENDMDL
MODEL 6
REMARK VINA RESULT:      -8.5      5.681      9.544
REMARK  5 active torsions:
REMARK  status: ('A' for Active; 'I' for Inactive)
REMARK    1  A    between atoms: C4_10  and  N1_5 
REMARK    2  A    between atoms: C7_13  and  N2_6 
REMARK       I    between atoms: C8_14  and  N2_6 
REMARK    3  A    between atoms: C4_10  and  C6_12 
REMARK    4  A    between atoms: C6_12  and  C7_13 
REMARK    5  A    between atoms: C8_14  and  C9_15 
ROOT
HETATM    1  O3  UNK     1      16.892  -0.793  35.338  1.00  0.00    -0.267 OA
HETATM    2  N2  UNK     1      19.016  -1.716  35.604  1.00  0.00    -0.357 N 
HETATM    3  C8  UNK     1      18.027  -1.026  34.927  1.00  0.00     0.257 C 
HETATM    4  H13 UNK     1      19.933  -1.835  35.187  1.00  0.00     0.162 HD
ENDROOT
BRANCH   3   5
HETATM    5  C9  UNK     1      18.458  -0.562  33.603  1.00  0.00     0.108 A 
HETATM    6  C11 UNK     1      19.090  -1.461  32.838  1.00  0.00     0.037 A 
HETATM    7  C10 UNK     1      19.556  -1.095  31.510  1.00  0.00    -0.001 A 
HETATM    8  C12 UNK     1      19.332   0.199  31.051  1.00  0.00     0.089 A 
HETATM    9  C14 UNK     1      20.219  -2.000  30.678  1.00  0.00     0.014 A 
HETATM   10  O2  UNK     1      18.666   1.140  31.860  1.00  0.00    -0.274 OA
HETATM   11  C15 UNK     1      19.752   0.613  29.789  1.00  0.00     0.038 A 
HETATM   12  C13 UNK     1      18.210   0.820  33.135  1.00  0.00     0.304 A 
HETATM   13  O4  UNK     1      17.631   1.646  33.833  1.00  0.00    -0.259 OA
HETATM   14  C17 UNK     1      20.414  -0.295  28.966  1.00  0.00     0.003 A 
HETATM   15  C16 UNK     1      20.647  -1.600  29.408  1.00  0.00     0.001 A 
ENDBRANCH   3   5
BRANCH   2  16
HETATM   16  C7  UNK     1      18.829  -2.267  36.927  1.00  0.00     0.124 C 
BRANCH  16  17
HETATM   17  C6  UNK     1      19.991  -3.158  37.361  1.00  0.00     0.039 C 
BRANCH  17  18
HETATM   18  C4  UNK     1      20.083  -4.471  36.586  1.00  0.00     0.127 C 
BRANCH  18  19
HETATM   19  N1  UNK     1      19.884  -5.629  37.430  1.00  0.00    -0.352 N 
HETATM   20  C1  UNK     1      20.843  -5.999  38.444  1.00  0.00     0.126 C 
HETATM   21  C2  UNK     1      20.081  -7.004  39.286  1.00  0.00     0.029 C 
HETATM   22  C3  UNK     1      19.123  -7.658  38.298  1.00  0.00     0.104 C 
HETATM   23  C5  UNK     1      18.862  -6.565  37.288  1.00  0.00     0.219 C 
HETATM   24  O1  UNK     1      17.941  -6.565  36.485  1.00  0.00    -0.273 OA
ENDBRANCH  18  19
ENDBRANCH  17  18
ENDBRANCH  16  17
ENDBRANCH   2  16
TORSDOF 5
ENDMDL
MODEL 7
REMARK VINA RESULT:      -8.4      2.266      8.354
REMARK  5 active torsions:
REMARK  status: ('A' for Active; 'I' for Inactive)
REMARK    1  A    between atoms: C4_10  and  N1_5 
REMARK    2  A    between atoms: C7_13  and  N2_6 
REMARK       I    between atoms: C8_14  and  N2_6 
REMARK    3  A    between atoms: C4_10  and  C6_12 
REMARK    4  A    between atoms: C6_12  and  C7_13 
REMARK    5  A    between atoms: C8_14  and  C9_15 
ROOT
HETATM    1  O3  UNK     1      18.330   3.952  33.885  1.00  0.00    -0.267 OA
HETATM    2  N2  UNK     1      17.861   4.333  31.633  1.00  0.00    -0.357 N 
HETATM    3  C8  UNK     1      18.089   4.707  32.944  1.00  0.00     0.257 C 
HETATM    4  H13 UNK     1      17.693   5.036  30.922  1.00  0.00     0.162 HD
ENDROOT
BRANCH   3   5
HETATM    5  C9  UNK     1      18.019   6.160  33.144  1.00  0.00     0.108 A 
HETATM    6  C11 UNK     1      19.111   6.740  33.656  1.00  0.00     0.037 A 
HETATM    7  C10 UNK     1      19.137   8.175  33.890  1.00  0.00    -0.001 A 
HETATM    8  C12 UNK     1      18.011   8.930  33.573  1.00  0.00     0.089 A 
HETATM    9  C14 UNK     1      20.254   8.823  34.422  1.00  0.00     0.014 A 
HETATM   10  O2  UNK     1      16.865   8.313  33.035  1.00  0.00    -0.274 OA
HETATM   11  C15 UNK     1      17.972  10.307  33.773  1.00  0.00     0.038 A 
HETATM   12  C13 UNK     1      16.810   6.943  32.800  1.00  0.00     0.304 A 
HETATM   13  O4  UNK     1      15.807   6.414  32.331  1.00  0.00    -0.259 OA
HETATM   14  C17 UNK     1      19.091  10.945  34.304  1.00  0.00     0.003 A 
HETATM   15  C16 UNK     1      20.230  10.205  34.628  1.00  0.00     0.001 A 
ENDBRANCH   3   5
BRANCH   2  16
HETATM   16  C7  UNK     1      17.881   2.956  31.192  1.00  0.00     0.124 C 
BRANCH  16  17
HETATM   17  C6  UNK     1      19.049   2.659  30.253  1.00  0.00     0.039 C 
BRANCH  17  18
HETATM   18  C4  UNK     1      18.762   1.552  29.242  1.00  0.00     0.127 C 
BRANCH  18  19
HETATM   19  N1  UNK     1      19.488   0.334  29.531  1.00  0.00    -0.352 N 
HETATM   20  C1  UNK     1      20.226   0.167  30.760  1.00  0.00     0.126 C 
HETATM   21  C2  UNK     1      20.503  -1.323  30.796  1.00  0.00     0.029 C 
HETATM   22  C3  UNK     1      20.590  -1.713  29.325  1.00  0.00     0.104 C 
HETATM   23  C5  UNK     1      19.670  -0.726  28.646  1.00  0.00     0.219 C 
HETATM   24  O1  UNK     1      19.228  -0.852  27.513  1.00  0.00    -0.273 OA
ENDBRANCH  18  19
ENDBRANCH  17  18
ENDBRANCH  16  17
ENDBRANCH   2  16
TORSDOF 5
ENDMDL
MODEL 8
REMARK VINA RESULT:      -8.4      6.100     10.037
REMARK  5 active torsions:
REMARK  status: ('A' for Active; 'I' for Inactive)
REMARK    1  A    between atoms: C4_10  and  N1_5 
REMARK    2  A    between atoms: C7_13  and  N2_6 
REMARK       I    between atoms: C8_14  and  N2_6 
REMARK    3  A    between atoms: C4_10  and  C6_12 
REMARK    4  A    between atoms: C6_12  and  C7_13 
REMARK    5  A    between atoms: C8_14  and  C9_15 
ROOT
HETATM    1  O3  UNK     1      17.274  -0.884  35.689  1.00  0.00    -0.267 OA
HETATM    2  N2  UNK     1      19.212  -2.171  35.535  1.00  0.00    -0.357 N 
HETATM    3  C8  UNK     1      18.285  -1.247  35.090  1.00  0.00     0.257 C 
HETATM    4  H13 UNK     1      20.030  -2.386  34.975  1.00  0.00     0.162 HD
ENDROOT
BRANCH   3   5
HETATM    5  C9  UNK     1      18.617  -0.695  33.771  1.00  0.00     0.108 A 
HETATM    6  C11 UNK     1      19.206  -1.534  32.910  1.00  0.00     0.037 A 
HETATM    7  C10 UNK     1      19.572  -1.079  31.579  1.00  0.00    -0.001 A 
HETATM    8  C12 UNK     1      19.301   0.238  31.218  1.00  0.00     0.089 A 
HETATM    9  C14 UNK     1      20.188  -1.918  30.648  1.00  0.00     0.014 A 
HETATM   10  O2  UNK     1      18.681   1.115  32.128  1.00  0.00    -0.274 OA
HETATM   11  C15 UNK     1      19.627   0.736  29.959  1.00  0.00     0.038 A 
HETATM   12  C13 UNK     1      18.319   0.709  33.409  1.00  0.00     0.304 A 
HETATM   13  O4  UNK     1      17.779   1.481  34.196  1.00  0.00    -0.259 OA
HETATM   14  C17 UNK     1      20.241  -0.109  29.036  1.00  0.00     0.003 A 
HETATM   15  C16 UNK     1      20.521  -1.434  29.379  1.00  0.00     0.001 A 
ENDBRANCH   3   5
BRANCH   2  16
HETATM   16  C7  UNK     1      19.101  -2.848  36.808  1.00  0.00     0.124 C 
BRANCH  16  17
HETATM   17  C6  UNK     1      19.755  -4.229  36.795  1.00  0.00     0.039 C 
BRANCH  17  18
HETATM   18  C4  UNK     1      21.082  -4.290  37.547  1.00  0.00     0.127 C 
BRANCH  18  19
HETATM   19  N1  UNK     1      21.244  -5.522  38.288  1.00  0.00    -0.352 N 
HETATM   20  C1  UNK     1      20.108  -6.295  38.729  1.00  0.00     0.126 C 
HETATM   21  C2  UNK     1      20.725  -7.624  39.118  1.00  0.00     0.029 C 
HETATM   22  C3  UNK     1      22.128  -7.252  39.582  1.00  0.00     0.104 C 
HETATM   23  C5  UNK     1      22.453  -6.024  38.765  1.00  0.00     0.219 C 
HETATM   24  O1  UNK     1      23.576  -5.565  38.615  1.00  0.00    -0.273 OA
ENDBRANCH  18  19
ENDBRANCH  17  18
ENDBRANCH  16  17
ENDBRANCH   2  16
TORSDOF 5
ENDMDL
MODEL 9
REMARK VINA RESULT:      -8.3      2.588      3.943
REMARK  5 active torsions:
REMARK  status: ('A' for Active; 'I' for Inactive)
REMARK    1  A    between atoms: C4_10  and  N1_5 
REMARK    2  A    between atoms: C7_13  and  N2_6 
REMARK       I    between atoms: C8_14  and  N2_6 
REMARK    3  A    between atoms: C4_10  and  C6_12 
REMARK    4  A    between atoms: C6_12  and  C7_13 
REMARK    5  A    between atoms: C8_14  and  C9_15 
ROOT
HETATM    1  O3  UNK     1      17.636   2.837  31.613  1.00  0.00    -0.267 OA
HETATM    2  N2  UNK     1      18.443   4.214  33.313  1.00  0.00    -0.357 N 
HETATM    3  C8  UNK     1      18.053   3.009  32.757  1.00  0.00     0.257 C 
HETATM    4  H13 UNK     1      18.797   4.248  34.263  1.00  0.00     0.162 HD
ENDROOT
BRANCH   3   5
HETATM    5  C9  UNK     1      18.183   1.882  33.689  1.00  0.00     0.108 A 
HETATM    6  C11 UNK     1      17.842   2.123  34.960  1.00  0.00     0.037 A 
HETATM    7  C10 UNK     1      17.937   1.068  35.957  1.00  0.00    -0.001 A 
HETATM    8  C12 UNK     1      18.386  -0.190  35.566  1.00  0.00     0.089 A 
HETATM    9  C14 UNK     1      17.591   1.274  37.294  1.00  0.00     0.014 A 
HETATM   10  O2  UNK     1      18.744  -0.436  34.227  1.00  0.00    -0.274 OA
HETATM   11  C15 UNK     1      18.500  -1.241  36.471  1.00  0.00     0.038 A 
HETATM   12  C13 UNK     1      18.664   0.552  33.250  1.00  0.00     0.304 A 
HETATM   13  O4  UNK     1      18.978   0.328  32.086  1.00  0.00    -0.259 OA
HETATM   14  C17 UNK     1      18.154  -1.027  37.803  1.00  0.00     0.003 A 
HETATM   15  C16 UNK     1      17.699   0.228  38.215  1.00  0.00     0.001 A 
ENDBRANCH   3   5
BRANCH   2  16
HETATM   16  C7  UNK     1      18.407   5.464  32.588  1.00  0.00     0.124 C 
BRANCH  16  17
HETATM   17  C6  UNK     1      18.787   6.658  33.462  1.00  0.00     0.039 C 
BRANCH  17  18
HETATM   18  C4  UNK     1      18.059   7.949  33.094  1.00  0.00     0.127 C 
BRANCH  18  19
HETATM   19  N1  UNK     1      16.622   7.783  33.054  1.00  0.00    -0.352 N 
HETATM   20  C1  UNK     1      15.888   7.273  34.186  1.00  0.00     0.126 C 
HETATM   21  C2  UNK     1      14.449   7.604  33.841  1.00  0.00     0.029 C 
HETATM   22  C3  UNK     1      14.418   7.556  32.319  1.00  0.00     0.104 C 
HETATM   23  C5  UNK     1      15.821   7.958  31.927  1.00  0.00     0.219 C 
HETATM   24  O1  UNK     1      16.155   8.318  30.808  1.00  0.00    -0.273 OA
ENDBRANCH  18  19
ENDBRANCH  17  18
ENDBRANCH  16  17
ENDBRANCH   2  16
TORSDOF 5
ENDMDL
MODEL 10
REMARK VINA RESULT:      -8.2      1.989      8.720
REMARK  5 active torsions:
REMARK  status: ('A' for Active; 'I' for Inactive)
REMARK    1  A    between atoms: C4_10  and  N1_5 
REMARK    2  A    between atoms: C7_13  and  N2_6 
REMARK       I    between atoms: C8_14  and  N2_6 
REMARK    3  A    between atoms: C4_10  and  C6_12 
REMARK    4  A    between atoms: C6_12  and  C7_13 
REMARK    5  A    between atoms: C8_14  and  C9_15 
ROOT
HETATM    1  O3  UNK     1      19.059   6.125  33.385  1.00  0.00    -0.267 OA
HETATM    2  N2  UNK     1      17.442   4.920  32.216  1.00  0.00    -0.357 N 
HETATM    3  C8  UNK     1      17.962   6.041  32.835  1.00  0.00     0.257 C 
HETATM    4  H13 UNK     1      16.532   4.958  31.769  1.00  0.00     0.162 HD
ENDROOT
BRANCH   3   5
HETATM    5  C9  UNK     1      17.055   7.194  32.785  1.00  0.00     0.108 A 
HETATM    6  C11 UNK     1      16.633   7.666  33.965  1.00  0.00     0.037 A 
HETATM    7  C10 UNK     1      15.731   8.806  34.017  1.00  0.00    -0.001 A 
HETATM    8  C12 UNK     1      15.318   9.394  32.825  1.00  0.00     0.089 A 
HETATM    9  C14 UNK     1      15.266   9.333  35.225  1.00  0.00     0.014 A 
HETATM   10  O2  UNK     1      15.765   8.892  31.588  1.00  0.00    -0.274 OA
HETATM   11  C15 UNK     1      14.455  10.487  32.807  1.00  0.00     0.038 A 
HETATM   12  C13 UNK     1      16.627   7.803  31.505  1.00  0.00     0.304 A 
HETATM   13  O4  UNK     1      17.011   7.372  30.423  1.00  0.00    -0.259 OA
HETATM   14  C17 UNK     1      13.996  11.005  34.016  1.00  0.00     0.003 A 
HETATM   15  C16 UNK     1      14.401  10.430  35.223  1.00  0.00     0.001 A 
ENDBRANCH   3   5
BRANCH   2  16
HETATM   16  C7  UNK     1      18.152   3.663  32.134  1.00  0.00     0.124 C 
BRANCH  16  17
HETATM   17  C6  UNK     1      18.674   3.376  30.727  1.00  0.00     0.039 C 
BRANCH  17  18
HETATM   18  C4  UNK     1      18.076   2.123  30.092  1.00  0.00     0.127 C 
BRANCH  18  19
HETATM   19  N1  UNK     1      18.991   1.003  30.107  1.00  0.00    -0.352 N 
HETATM   20  C1  UNK     1      19.559   0.474  28.890  1.00  0.00     0.126 C 
HETATM   21  C2  UNK     1      20.688  -0.406  29.390  1.00  0.00     0.029 C 
HETATM   22  C3  UNK     1      20.199  -0.889  30.750  1.00  0.00     0.104 C 
HETATM   23  C5  UNK     1      19.319   0.243  31.228  1.00  0.00     0.219 C 
HETATM   24  O1  UNK     1      18.950   0.397  32.382  1.00  0.00    -0.273 OA
ENDBRANCH  18  19
ENDBRANCH  17  18
ENDBRANCH  16  17
ENDBRANCH   2  16
TORSDOF 5
ENDMDL
