MODEL 1
REMARK VINA RESULT:      -8.8      0.000      0.000
REMARK  1 active torsions:
REMARK  status: ('A' for Active; 'I' for Inactive)
REMARK       I    between atoms: C5_10  and  N1_5 
REMARK    1  A    between atoms: C5_10  and  C8_13 
ROOT
HETATM    1 Br1  UNK     1      20.479  -1.386  29.750  1.00  0.00    -0.051 Br
HETATM    2  O1  UNK     1      18.637  -1.199  35.527  1.00  0.00    -0.274 OA
HETATM    3  O3  UNK     1      18.665  -2.050  37.647  1.00  0.00    -0.259 OA
HETATM    4  C8  UNK     1      19.994  -3.168  36.036  1.00  0.00     0.108 A 
HETATM    5  C11 UNK     1      20.418  -3.237  34.768  1.00  0.00     0.037 A 
HETATM    6  C12 UNK     1      19.963  -2.263  33.789  1.00  0.00     0.000 A 
HETATM    7  C13 UNK     1      19.056  -2.116  36.487  1.00  0.00     0.304 A 
HETATM    8  C14 UNK     1      19.081  -1.265  34.192  1.00  0.00     0.089 A 
HETATM    9  C15 UNK     1      20.380  -2.296  32.456  1.00  0.00     0.033 A 
HETATM   10  C16 UNK     1      18.607  -0.302  33.304  1.00  0.00     0.039 A 
HETATM   11  C17 UNK     1      19.913  -1.337  31.553  1.00  0.00     0.011 A 
HETATM   12  C18 UNK     1      19.028  -0.342  31.976  1.00  0.00     0.022 A 
ENDROOT
BRANCH   4  13
HETATM   13  C5  UNK     1      20.514  -4.203  36.957  1.00  0.00     0.264 C 
HETATM   14  O2  UNK     1      21.587  -3.980  37.514  1.00  0.00    -0.267 OA
HETATM   15  N1  UNK     1      19.730  -5.336  37.102  1.00  0.00    -0.313 N 
HETATM   16  C1  UNK     1      18.438  -5.609  36.433  1.00  0.00     0.137 A 
HETATM   17  C4  UNK     1      20.038  -6.441  37.926  1.00  0.00     0.043 A 
HETATM   18  C2  UNK     1      17.945  -6.983  36.901  1.00  0.00     0.061 A 
HETATM   19  C3  UNK     1      19.032  -7.406  37.834  1.00  0.00    -0.030 A 
HETATM   20  C6  UNK     1      19.099  -8.591  38.550  1.00  0.00     0.009 A 
HETATM   21  C9  UNK     1      20.202  -8.806  39.375  1.00  0.00     0.001 A 
HETATM   22  C10 UNK     1      21.214  -7.842  39.472  1.00  0.00     0.002 A 
HETATM   23  C7  UNK     1      21.139  -6.650  38.746  1.00  0.00     0.030 A 
ENDBRANCH   4  13
TORSDOF 1
ENDMDL
MODEL 2
REMARK VINA RESULT:      -8.4     29.145     31.096
REMARK  1 active torsions:
REMARK  status: ('A' for Active; 'I' for Inactive)
REMARK       I    between atoms: C5_10  and  N1_5 
REMARK    1  A    between atoms: C5_10  and  C8_13 
ROOT
HETATM    1 Br1  UNK     1      17.800  13.304   7.017  1.00  0.00    -0.051 Br
HETATM    2  O1  UNK     1      16.036   8.448  10.197  1.00  0.00    -0.274 OA
HETATM    3  O3  UNK     1      14.390   7.029  10.902  1.00  0.00    -0.259 OA
HETATM    4  C8  UNK     1      13.726   8.803   9.480  1.00  0.00     0.108 A 
HETATM    5  C11 UNK     1      14.083   9.879   8.769  1.00  0.00     0.037 A 
HETATM    6  C12 UNK     1      15.473  10.306   8.734  1.00  0.00     0.000 A 
HETATM    7  C13 UNK     1      14.714   8.015  10.250  1.00  0.00     0.304 A 
HETATM    8  C14 UNK     1      16.418   9.579   9.450  1.00  0.00     0.089 A 
HETATM    9  C15 UNK     1      15.891  11.422   8.005  1.00  0.00     0.033 A 
HETATM   10  C16 UNK     1      17.766   9.934   9.458  1.00  0.00     0.039 A 
HETATM   11  C17 UNK     1      17.239  11.791   8.003  1.00  0.00     0.011 A 
HETATM   12  C18 UNK     1      18.174  11.049   8.728  1.00  0.00     0.022 A 
ENDROOT
BRANCH   4  13
HETATM   13  C5  UNK     1      12.289   8.449   9.453  1.00  0.00     0.264 C 
HETATM   14  O2  UNK     1      11.587   8.853  10.378  1.00  0.00    -0.267 OA
HETATM   15  N1  UNK     1      11.872   7.688   8.373  1.00  0.00    -0.313 N 
HETATM   16  C1  UNK     1      12.713   7.199   7.257  1.00  0.00     0.137 A 
HETATM   17  C4  UNK     1      10.550   7.240   8.152  1.00  0.00     0.043 A 
HETATM   18  C2  UNK     1      11.815   6.403   6.304  1.00  0.00     0.061 A 
HETATM   19  C3  UNK     1      10.483   6.499   6.971  1.00  0.00    -0.030 A 
HETATM   20  C6  UNK     1       9.290   5.947   6.530  1.00  0.00     0.009 A 
HETATM   21  C9  UNK     1       8.143   6.147   7.296  1.00  0.00     0.001 A 
HETATM   22  C10 UNK     1       8.204   6.890   8.482  1.00  0.00     0.002 A 
HETATM   23  C7  UNK     1       9.411   7.443   8.920  1.00  0.00     0.030 A 
ENDBRANCH   4  13
TORSDOF 1
ENDMDL
MODEL 3
REMARK VINA RESULT:      -8.1     12.198     14.735
REMARK  1 active torsions:
REMARK  status: ('A' for Active; 'I' for Inactive)
REMARK       I    between atoms: C5_10  and  N1_5 
REMARK    1  A    between atoms: C5_10  and  C8_13 
ROOT
HETATM    1 Br1  UNK     1      15.844  15.404  35.780  1.00  0.00    -0.051 Br
HETATM    2  O1  UNK     1      14.037   9.658  35.057  1.00  0.00    -0.274 OA
HETATM    3  O3  UNK     1      14.228   7.634  34.014  1.00  0.00    -0.259 OA
HETATM    4  C8  UNK     1      15.721   9.335  33.314  1.00  0.00     0.108 A 
HETATM    5  C11 UNK     1      16.142  10.598  33.449  1.00  0.00     0.037 A 
HETATM    6  C12 UNK     1      15.516  11.480  34.422  1.00  0.00     0.000 A 
HETATM    7  C13 UNK     1      14.617   8.791  34.135  1.00  0.00     0.304 A 
HETATM    8  C14 UNK     1      14.476  10.988  35.204  1.00  0.00     0.089 A 
HETATM    9  C15 UNK     1      15.924  12.804  34.598  1.00  0.00     0.033 A 
HETATM   10  C16 UNK     1      13.835  11.779  36.155  1.00  0.00     0.039 A 
HETATM   11  C17 UNK     1      15.290  13.611  35.547  1.00  0.00     0.011 A 
HETATM   12  C18 UNK     1      14.248  13.100  36.324  1.00  0.00     0.022 A 
ENDROOT
BRANCH   4  13
HETATM   13  C5  UNK     1      16.421   8.517  32.298  1.00  0.00     0.264 C 
HETATM   14  O2  UNK     1      15.891   8.410  31.194  1.00  0.00    -0.267 OA
HETATM   15  N1  UNK     1      17.618   7.948  32.697  1.00  0.00    -0.313 N 
HETATM   16  C1  UNK     1      18.260   8.075  34.026  1.00  0.00     0.137 A 
HETATM   17  C4  UNK     1      18.444   7.134  31.890  1.00  0.00     0.043 A 
HETATM   18  C2  UNK     1      19.566   7.274  33.998  1.00  0.00     0.061 A 
HETATM   19  C3  UNK     1      19.572   6.730  32.607  1.00  0.00    -0.030 A 
HETATM   20  C6  UNK     1      20.541   5.920  32.035  1.00  0.00     0.009 A 
HETATM   21  C9  UNK     1      20.369   5.511  30.714  1.00  0.00     0.001 A 
HETATM   22  C10 UNK     1      19.239   5.913  29.989  1.00  0.00     0.002 A 
HETATM   23  C7  UNK     1      18.266   6.729  30.574  1.00  0.00     0.030 A 
ENDBRANCH   4  13
TORSDOF 1
ENDMDL
MODEL 4
REMARK VINA RESULT:      -8.1      7.456     10.876
REMARK  1 active torsions:
REMARK  status: ('A' for Active; 'I' for Inactive)
REMARK       I    between atoms: C5_10  and  N1_5 
REMARK    1  A    between atoms: C5_10  and  C8_13 
ROOT
HETATM    1 Br1  UNK     1      20.748  -3.026  31.569  1.00  0.00    -0.051 Br
HETATM    2  O1  UNK     1      19.042   2.081  28.775  1.00  0.00    -0.274 OA
HETATM    3  O3  UNK     1      18.268   4.229  28.866  1.00  0.00    -0.259 OA
HETATM    4  C8  UNK     1      18.573   3.121  30.938  1.00  0.00     0.108 A 
HETATM    5  C11 UNK     1      18.942   2.009  31.584  1.00  0.00     0.037 A 
HETATM    6  C12 UNK     1      19.394   0.844  30.838  1.00  0.00     0.000 A 
HETATM    7  C13 UNK     1      18.606   3.212  29.461  1.00  0.00     0.304 A 
HETATM    8  C14 UNK     1      19.432   0.908  29.449  1.00  0.00     0.089 A 
HETATM    9  C15 UNK     1      19.789  -0.337  31.471  1.00  0.00     0.033 A 
HETATM   10  C16 UNK     1      19.856  -0.172  28.677  1.00  0.00     0.039 A 
HETATM   11  C17 UNK     1      20.216  -1.429  30.709  1.00  0.00     0.011 A 
HETATM   12  C18 UNK     1      20.249  -1.347  29.315  1.00  0.00     0.022 A 
ENDROOT
BRANCH   4  13
HETATM   13  C5  UNK     1      18.129   4.251  31.783  1.00  0.00     0.264 C 
HETATM   14  O2  UNK     1      16.942   4.290  32.102  1.00  0.00    -0.267 OA
HETATM   15  N1  UNK     1      19.108   5.165  32.138  1.00  0.00    -0.313 N 
HETATM   16  C1  UNK     1      20.538   5.122  31.758  1.00  0.00     0.137 A 
HETATM   17  C4  UNK     1      18.902   6.313  32.935  1.00  0.00     0.043 A 
HETATM   18  C2  UNK     1      21.228   6.340  32.381  1.00  0.00     0.061 A 
HETATM   19  C3  UNK     1      20.101   7.011  33.094  1.00  0.00    -0.030 A 
HETATM   20  C6  UNK     1      20.165   8.179  33.839  1.00  0.00     0.009 A 
HETATM   21  C9  UNK     1      18.997   8.651  34.434  1.00  0.00     0.001 A 
HETATM   22  C10 UNK     1      17.791   7.956  34.278  1.00  0.00     0.002 A 
HETATM   23  C7  UNK     1      17.735   6.779  33.525  1.00  0.00     0.030 A 
ENDBRANCH   4  13
TORSDOF 1
ENDMDL
MODEL 5
REMARK VINA RESULT:      -8.1      8.181     12.331
REMARK  1 active torsions:
REMARK  status: ('A' for Active; 'I' for Inactive)
REMARK       I    between atoms: C5_10  and  N1_5 
REMARK    1  A    between atoms: C5_10  and  C8_13 
ROOT
HETATM    1 Br1  UNK     1      18.660  -0.956  32.837  1.00  0.00    -0.051 Br
HETATM    2  O1  UNK     1      18.883   4.305  29.824  1.00  0.00    -0.274 OA
HETATM    3  O3  UNK     1      18.697   6.582  29.791  1.00  0.00    -0.259 OA
HETATM    4  C8  UNK     1      18.325   5.516  31.874  1.00  0.00     0.108 A 
HETATM    5  C11 UNK     1      18.267   4.372  32.566  1.00  0.00     0.037 A 
HETATM    6  C12 UNK     1      18.523   3.102  31.906  1.00  0.00     0.000 A 
HETATM    7  C13 UNK     1      18.644   5.536  30.429  1.00  0.00     0.304 A 
HETATM    8  C14 UNK     1      18.825   3.098  30.547  1.00  0.00     0.089 A 
HETATM    9  C15 UNK     1      18.475   1.884  32.589  1.00  0.00     0.033 A 
HETATM   10  C16 UNK     1      19.081   1.916  29.856  1.00  0.00     0.039 A 
HETATM   11  C17 UNK     1      18.728   0.690  31.908  1.00  0.00     0.011 A 
HETATM   12  C18 UNK     1      19.030   0.705  30.545  1.00  0.00     0.022 A 
ENDROOT
BRANCH   4  13
HETATM   13  C5  UNK     1      18.050   6.755  32.634  1.00  0.00     0.264 C 
HETATM   14  O2  UNK     1      19.002   7.307  33.183  1.00  0.00    -0.267 OA
HETATM   15  N1  UNK     1      16.731   7.177  32.651  1.00  0.00    -0.313 N 
HETATM   16  C1  UNK     1      15.582   6.516  31.991  1.00  0.00     0.137 A 
HETATM   17  C4  UNK     1      16.251   8.329  33.314  1.00  0.00     0.043 A 
HETATM   18  C2  UNK     1      14.328   7.345  32.288  1.00  0.00     0.061 A 
HETATM   19  C3  UNK     1      14.873   8.454  33.125  1.00  0.00    -0.030 A 
HETATM   20  C6  UNK     1      14.161   9.507  33.678  1.00  0.00     0.009 A 
HETATM   21  C9  UNK     1      14.852  10.452  34.435  1.00  0.00     0.001 A 
HETATM   22  C10 UNK     1      16.234  10.331  34.628  1.00  0.00     0.002 A 
HETATM   23  C7  UNK     1      16.945   9.265  34.068  1.00  0.00     0.030 A 
ENDBRANCH   4  13
TORSDOF 1
ENDMDL
MODEL 6
REMARK VINA RESULT:      -8.1      2.457      3.110
REMARK  1 active torsions:
REMARK  status: ('A' for Active; 'I' for Inactive)
REMARK       I    between atoms: C5_10  and  N1_5 
REMARK    1  A    between atoms: C5_10  and  C8_13 
ROOT
HETATM    1 Br1  UNK     1      16.326   2.005  37.567  1.00  0.00    -0.051 Br
HETATM    2  O1  UNK     1      19.474  -2.048  34.331  1.00  0.00    -0.274 OA
HETATM    3  O3  UNK     1      20.705  -3.968  34.215  1.00  0.00    -0.259 OA
HETATM    4  C8  UNK     1      19.917  -3.340  36.359  1.00  0.00     0.108 A 
HETATM    5  C11 UNK     1      19.230  -2.464  37.100  1.00  0.00     0.037 A 
HETATM    6  C12 UNK     1      18.611  -1.303  36.478  1.00  0.00     0.000 A 
HETATM    7  C13 UNK     1      20.076  -3.168  34.898  1.00  0.00     0.304 A 
HETATM    8  C14 UNK     1      18.748  -1.122  35.106  1.00  0.00     0.089 A 
HETATM    9  C15 UNK     1      17.883  -0.364  37.213  1.00  0.00     0.033 A 
HETATM   10  C16 UNK     1      18.179  -0.033  34.449  1.00  0.00     0.039 A 
HETATM   11  C17 UNK     1      17.308   0.735  36.568  1.00  0.00     0.011 A 
HETATM   12  C18 UNK     1      17.455   0.900  35.189  1.00  0.00     0.022 A 
ENDROOT
BRANCH   4  13
HETATM   13  C5  UNK     1      20.508  -4.487  37.083  1.00  0.00     0.264 C 
HETATM   14  O2  UNK     1      21.652  -4.356  37.516  1.00  0.00    -0.267 OA
HETATM   15  N1  UNK     1      19.705  -5.609  37.203  1.00  0.00    -0.313 N 
HETATM   16  C1  UNK     1      18.328  -5.770  36.684  1.00  0.00     0.137 A 
HETATM   17  C4  UNK     1      20.071  -6.809  37.852  1.00  0.00     0.043 A 
HETATM   18  C2  UNK     1      17.845  -7.176  37.058  1.00  0.00     0.061 A 
HETATM   19  C3  UNK     1      19.024  -7.731  37.787  1.00  0.00    -0.030 A 
HETATM   20  C6  UNK     1      19.134  -8.992  38.352  1.00  0.00     0.009 A 
HETATM   21  C9  UNK     1      20.324  -9.329  38.996  1.00  0.00     0.001 A 
HETATM   22  C10 UNK     1      21.378  -8.408  39.065  1.00  0.00     0.002 A 
HETATM   23  C7  UNK     1      21.258  -7.139  38.492  1.00  0.00     0.030 A 
ENDBRANCH   4  13
TORSDOF 1
ENDMDL
MODEL 7
REMARK VINA RESULT:      -8.0      7.056      8.476
REMARK  1 active torsions:
REMARK  status: ('A' for Active; 'I' for Inactive)
REMARK       I    between atoms: C5_10  and  N1_5 
REMARK    1  A    between atoms: C5_10  and  C8_13 
ROOT
HETATM    1 Br1  UNK     1      30.759  -9.743  38.324  1.00  0.00    -0.051 Br
HETATM    2  O1  UNK     1      26.250  -5.696  38.634  1.00  0.00    -0.274 OA
HETATM    3  O3  UNK     1      24.032  -5.213  38.889  1.00  0.00    -0.259 OA
HETATM    4  C8  UNK     1      24.636  -7.502  38.966  1.00  0.00     0.108 A 
HETATM    5  C11 UNK     1      25.608  -8.420  38.902  1.00  0.00     0.037 A 
HETATM    6  C12 UNK     1      26.989  -8.012  38.696  1.00  0.00     0.000 A 
HETATM    7  C13 UNK     1      24.920  -6.056  38.831  1.00  0.00     0.304 A 
HETATM    8  C14 UNK     1      27.278  -6.657  38.566  1.00  0.00     0.089 A 
HETATM    9  C15 UNK     1      28.036  -8.934  38.623  1.00  0.00     0.033 A 
HETATM   10  C16 UNK     1      28.579  -6.200  38.368  1.00  0.00     0.039 A 
HETATM   11  C17 UNK     1      29.346  -8.491  38.423  1.00  0.00     0.011 A 
HETATM   12  C18 UNK     1      29.618  -7.127  38.296  1.00  0.00     0.022 A 
ENDROOT
BRANCH   4  13
HETATM   13  C5  UNK     1      23.265  -8.016  39.178  1.00  0.00     0.264 C 
HETATM   14  O2  UNK     1      22.724  -7.762  40.253  1.00  0.00    -0.267 OA
HETATM   15  N1  UNK     1      22.720  -8.741  38.132  1.00  0.00    -0.313 N 
HETATM   16  C1  UNK     1      23.368  -9.049  36.836  1.00  0.00     0.137 A 
HETATM   17  C4  UNK     1      21.431  -9.320  38.124  1.00  0.00     0.043 A 
HETATM   18  C2  UNK     1      22.382  -9.873  36.001  1.00  0.00     0.061 A 
HETATM   19  C3  UNK     1      21.206  -9.979  36.914  1.00  0.00    -0.030 A 
HETATM   20  C6  UNK     1      20.010 -10.631  36.657  1.00  0.00     0.009 A 
HETATM   21  C9  UNK     1      19.022 -10.619  37.641  1.00  0.00     0.001 A 
HETATM   22  C10 UNK     1      19.243  -9.960  38.858  1.00  0.00     0.002 A 
HETATM   23  C7  UNK     1      20.452  -9.305  39.108  1.00  0.00     0.030 A 
ENDBRANCH   4  13
TORSDOF 1
ENDMDL
MODEL 8
REMARK VINA RESULT:      -8.0      7.340     11.791
REMARK  1 active torsions:
REMARK  status: ('A' for Active; 'I' for Inactive)
REMARK       I    between atoms: C5_10  and  N1_5 
REMARK    1  A    between atoms: C5_10  and  C8_13 
ROOT
HETATM    1 Br1  UNK     1      17.943  -0.652  37.723  1.00  0.00    -0.051 Br
HETATM    2  O1  UNK     1      17.893   2.508  32.544  1.00  0.00    -0.274 OA
HETATM    3  O3  UNK     1      18.233   4.460  31.408  1.00  0.00    -0.259 OA
HETATM    4  C8  UNK     1      18.663   4.498  33.738  1.00  0.00     0.108 A 
HETATM    5  C11 UNK     1      18.684   3.829  34.896  1.00  0.00     0.037 A 
HETATM    6  C12 UNK     1      18.301   2.426  34.940  1.00  0.00     0.000 A 
HETATM    7  C13 UNK     1      18.254   3.850  32.472  1.00  0.00     0.304 A 
HETATM    8  C14 UNK     1      17.913   1.798  33.760  1.00  0.00     0.089 A 
HETATM    9  C15 UNK     1      18.309   1.688  36.126  1.00  0.00     0.033 A 
HETATM   10  C16 UNK     1      17.536   0.457  33.733  1.00  0.00     0.039 A 
HETATM   11  C17 UNK     1      17.932   0.342  36.115  1.00  0.00     0.011 A 
HETATM   12  C18 UNK     1      17.546  -0.272  34.921  1.00  0.00     0.022 A 
ENDROOT
BRANCH   4  13
HETATM   13  C5  UNK     1      19.070   5.920  33.796  1.00  0.00     0.264 C 
HETATM   14  O2  UNK     1      20.272   6.169  33.726  1.00  0.00    -0.267 OA
HETATM   15  N1  UNK     1      18.043   6.840  33.926  1.00  0.00    -0.313 N 
HETATM   16  C1  UNK     1      16.595   6.544  34.011  1.00  0.00     0.137 A 
HETATM   17  C4  UNK     1      18.208   8.241  34.002  1.00  0.00     0.043 A 
HETATM   18  C2  UNK     1      15.849   7.875  34.146  1.00  0.00     0.061 A 
HETATM   19  C3  UNK     1      16.966   8.866  34.129  1.00  0.00    -0.030 A 
HETATM   20  C6  UNK     1      16.856  10.245  34.222  1.00  0.00     0.009 A 
HETATM   21  C9  UNK     1      18.023  11.008  34.187  1.00  0.00     0.001 A 
HETATM   22  C10 UNK     1      19.272  10.386  34.059  1.00  0.00     0.002 A 
HETATM   23  C7  UNK     1      19.373   8.995  33.966  1.00  0.00     0.030 A 
ENDBRANCH   4  13
TORSDOF 1
ENDMDL
MODEL 9
REMARK VINA RESULT:      -8.0      7.832     10.422
REMARK  1 active torsions:
REMARK  status: ('A' for Active; 'I' for Inactive)
REMARK       I    between atoms: C5_10  and  N1_5 
REMARK    1  A    between atoms: C5_10  and  C8_13 
ROOT
HETATM    1 Br1  UNK     1      32.897  -7.130  35.073  1.00  0.00    -0.051 Br
HETATM    2  O1  UNK     1      29.133  -9.842  38.982  1.00  0.00    -0.274 OA
HETATM    3  O3  UNK     1      27.014 -10.307  39.699  1.00  0.00    -0.259 OA
HETATM    4  C8  UNK     1      27.208  -8.936  37.777  1.00  0.00     0.108 A 
HETATM    5  C11 UNK     1      28.012  -8.324  36.898  1.00  0.00     0.037 A 
HETATM    6  C12 UNK     1      29.457  -8.445  37.019  1.00  0.00     0.000 A 
HETATM    7  C13 UNK     1      27.747  -9.746  38.892  1.00  0.00     0.304 A 
HETATM    8  C14 UNK     1      29.984  -9.202  38.061  1.00  0.00     0.089 A 
HETATM    9  C15 UNK     1      30.333  -7.825  36.125  1.00  0.00     0.033 A 
HETATM   10  C16 UNK     1      31.358  -9.358  38.232  1.00  0.00     0.039 A 
HETATM   11  C17 UNK     1      31.714  -7.972  36.285  1.00  0.00     0.011 A 
HETATM   12  C18 UNK     1      32.225  -8.737  37.336  1.00  0.00     0.022 A 
ENDROOT
BRANCH   4  13
HETATM   13  C5  UNK     1      25.755  -8.753  37.570  1.00  0.00     0.264 C 
HETATM   14  O2  UNK     1      25.246  -7.717  37.993  1.00  0.00    -0.267 OA
HETATM   15  N1  UNK     1      25.102  -9.781  36.910  1.00  0.00    -0.313 N 
HETATM   16  C1  UNK     1      25.710 -11.030  36.397  1.00  0.00     0.137 A 
HETATM   17  C4  UNK     1      23.721  -9.812  36.610  1.00  0.00     0.043 A 
HETATM   18  C2  UNK     1      24.600 -11.861  35.744  1.00  0.00     0.061 A 
HETATM   19  C3  UNK     1      23.400 -10.994  35.940  1.00  0.00    -0.030 A 
HETATM   20  C6  UNK     1      22.102 -11.265  35.534  1.00  0.00     0.009 A 
HETATM   21  C9  UNK     1      21.110 -10.326  35.810  1.00  0.00     0.001 A 
HETATM   22  C10 UNK     1      21.427  -9.138  36.482  1.00  0.00     0.002 A 
HETATM   23  C7  UNK     1      22.738  -8.872  36.888  1.00  0.00     0.030 A 
ENDBRANCH   4  13
TORSDOF 1
ENDMDL
MODEL 10
REMARK VINA RESULT:      -7.8     28.304     30.438
REMARK  1 active torsions:
REMARK  status: ('A' for Active; 'I' for Inactive)
REMARK       I    between atoms: C5_10  and  N1_5 
REMARK    1  A    between atoms: C5_10  and  C8_13 
ROOT
HETATM    1 Br1  UNK     1       4.824   6.496  15.927  1.00  0.00    -0.051 Br
HETATM    2  O1  UNK     1       5.680   3.270  10.860  1.00  0.00    -0.274 OA
HETATM    3  O3  UNK     1       6.604   3.047   8.783  1.00  0.00    -0.259 OA
HETATM    4  C8  UNK     1       7.071   5.059   9.943  1.00  0.00     0.108 A 
HETATM    5  C11 UNK     1       6.901   5.796  11.047  1.00  0.00     0.037 A 
HETATM    6  C12 UNK     1       6.091   5.293  12.145  1.00  0.00     0.000 A 
HETATM    7  C13 UNK     1       6.450   3.724   9.793  1.00  0.00     0.304 A 
HETATM    8  C14 UNK     1       5.498   4.040  12.026  1.00  0.00     0.089 A 
HETATM    9  C15 UNK     1       5.887   6.026  13.317  1.00  0.00     0.033 A 
HETATM   10  C16 UNK     1       4.711   3.500  13.041  1.00  0.00     0.039 A 
HETATM   11  C17 UNK     1       5.099   5.499  14.344  1.00  0.00     0.011 A 
HETATM   12  C18 UNK     1       4.512   4.239  14.207  1.00  0.00     0.022 A 
ENDROOT
BRANCH   4  13
HETATM   13  C5  UNK     1       7.912   5.657   8.882  1.00  0.00     0.264 C 
HETATM   14  O2  UNK     1       7.349   6.340   8.028  1.00  0.00    -0.267 OA
HETATM   15  N1  UNK     1       9.268   5.384   8.956  1.00  0.00    -0.313 N 
HETATM   16  C1  UNK     1       9.950   4.563   9.982  1.00  0.00     0.137 A 
HETATM   17  C4  UNK     1      10.246   5.851   8.050  1.00  0.00     0.043 A 
HETATM   18  C2  UNK     1      11.447   4.546   9.654  1.00  0.00     0.061 A 
HETATM   19  C3  UNK     1      11.509   5.388   8.422  1.00  0.00    -0.030 A 
HETATM   20  C6  UNK     1      12.642   5.709   7.690  1.00  0.00     0.009 A 
HETATM   21  C9  UNK     1      12.497   6.514   6.561  1.00  0.00     0.001 A 
HETATM   22  C10 UNK     1      11.231   6.981   6.183  1.00  0.00     0.002 A 
HETATM   23  C7  UNK     1      10.094   6.653   6.926  1.00  0.00     0.030 A 
ENDBRANCH   4  13
TORSDOF 1
ENDMDL
