MODEL 1
REMARK VINA RESULT:      -7.7      0.000      0.000
REMARK  4 active torsions:
REMARK  status: ('A' for Active; 'I' for Inactive)
REMARK    1  A    between atoms: N1_4  and  N2_5 
REMARK    2  A    between atoms: C12_18  and  N2_5 
REMARK    3  A    between atoms: C12_18  and  N3_6 
REMARK    4  A    between atoms: C2_8  and  C5_11 
ROOT
HETATM    1  O1  UNK     1      18.893   0.683  28.582  1.00  0.00    -0.274 OA
HETATM    2  O2  UNK     1      17.976   2.734  28.163  1.00  0.00    -0.259 OA
HETATM    3  C1  UNK     1      19.785   0.197  30.791  1.00  0.00    -0.001 A 
HETATM    4  C2  UNK     1      18.812   2.371  30.350  1.00  0.00     0.066 A 
HETATM    5  C3  UNK     1      19.518  -0.199  29.484  1.00  0.00     0.089 A 
HETATM    6  C4  UNK     1      19.406   1.537  31.210  1.00  0.00     0.034 A 
HETATM    7  C6  UNK     1      20.406  -0.708  31.656  1.00  0.00     0.014 A 
HETATM    8  C7  UNK     1      18.519   1.971  28.955  1.00  0.00     0.300 A 
HETATM    9  C8  UNK     1      19.855  -1.469  29.018  1.00  0.00     0.038 A 
HETATM   10  C9  UNK     1      20.750  -1.985  31.203  1.00  0.00     0.001 A 
HETATM   11  C10 UNK     1      20.476  -2.364  29.887  1.00  0.00     0.003 A 
ENDROOT
BRANCH   4  12
HETATM   12  C5  UNK     1      18.469   3.702  30.866  1.00  0.00     0.067 C 
HETATM   13  C11 UNK     1      19.149   4.890  30.214  1.00  0.00     0.073 C 
HETATM   14  N1  UNK     1      17.610   3.792  31.846  1.00  0.00    -0.177 NA
BRANCH  14  15
HETATM   15  N2  UNK     1      17.301   5.024  32.314  1.00  0.00    -0.253 N 
HETATM   16  H9  UNK     1      16.735   5.636  31.740  1.00  0.00     0.191 HD
BRANCH  15  17
HETATM   17  C12 UNK     1      17.746   5.439  33.545  1.00  0.00     0.185 C 
HETATM   18  S1  UNK     1      17.330   6.936  34.163  1.00  0.00    -0.040 SA
BRANCH  17  19
HETATM   19  N3  UNK     1      18.544   4.573  34.242  1.00  0.00    -0.375 N 
HETATM   20  H10 UNK     1      19.384   4.892  34.714  1.00  0.00     0.158 HD
HETATM   21  H11 UNK     1      18.322   3.586  34.310  1.00  0.00     0.158 HD
ENDBRANCH  17  19
ENDBRANCH  15  17
ENDBRANCH  14  15
ENDBRANCH   4  12
TORSDOF 4
ENDMDL
MODEL 2
REMARK VINA RESULT:      -7.6      1.905      2.316
REMARK  4 active torsions:
REMARK  status: ('A' for Active; 'I' for Inactive)
REMARK    1  A    between atoms: N1_4  and  N2_5 
REMARK    2  A    between atoms: C12_18  and  N2_5 
REMARK    3  A    between atoms: C12_18  and  N3_6 
REMARK    4  A    between atoms: C2_8  and  C5_11 
ROOT
HETATM    1  O1  UNK     1      18.726   0.438  32.680  1.00  0.00    -0.274 OA
HETATM    2  O2  UNK     1      17.875   2.286  33.721  1.00  0.00    -0.259 OA
HETATM    3  C1  UNK     1      19.537   0.615  30.395  1.00  0.00    -0.001 A 
HETATM    4  C2  UNK     1      18.636   2.576  31.496  1.00  0.00     0.066 A 
HETATM    5  C3  UNK     1      19.300  -0.147  31.535  1.00  0.00     0.089 A 
HETATM    6  C4  UNK     1      19.181   2.025  30.405  1.00  0.00     0.034 A 
HETATM    7  C6  UNK     1      20.109  -0.002  29.279  1.00  0.00     0.014 A 
HETATM    8  C7  UNK     1      18.376   1.785  32.720  1.00  0.00     0.300 A 
HETATM    9  C8  UNK     1      19.617  -1.503  31.591  1.00  0.00     0.038 A 
HETATM   10  C9  UNK     1      20.432  -1.361  29.320  1.00  0.00     0.001 A 
HETATM   11  C10 UNK     1      20.186  -2.110  30.473  1.00  0.00     0.003 A 
ENDROOT
BRANCH   4  12
HETATM   12  C5  UNK     1      18.311   4.004  31.408  1.00  0.00     0.067 C 
HETATM   13  C11 UNK     1      19.013   4.805  30.329  1.00  0.00     0.073 C 
HETATM   14  N1  UNK     1      17.447   4.504  32.251  1.00  0.00    -0.177 NA
BRANCH  14  15
HETATM   15  N2  UNK     1      17.156   5.823  32.162  1.00  0.00    -0.253 N 
HETATM   16  H9  UNK     1      16.759   6.177  31.300  1.00  0.00     0.191 HD
BRANCH  15  17
HETATM   17  C12 UNK     1      17.393   6.669  33.217  1.00  0.00     0.185 C 
HETATM   18  S1  UNK     1      17.347   8.329  33.032  1.00  0.00    -0.040 SA
BRANCH  17  19
HETATM   19  N3  UNK     1      17.669   6.091  34.426  1.00  0.00    -0.375 N 
HETATM   20  H10 UNK     1      16.945   5.638  34.974  1.00  0.00     0.158 HD
HETATM   21  H11 UNK     1      18.606   6.096  34.814  1.00  0.00     0.158 HD
ENDBRANCH  17  19
ENDBRANCH  15  17
ENDBRANCH  14  15
ENDBRANCH   4  12
TORSDOF 4
ENDMDL
MODEL 3
REMARK VINA RESULT:      -7.5      4.760      6.491
REMARK  4 active torsions:
REMARK  status: ('A' for Active; 'I' for Inactive)
REMARK    1  A    between atoms: N1_4  and  N2_5 
REMARK    2  A    between atoms: C12_18  and  N2_5 
REMARK    3  A    between atoms: C12_18  and  N3_6 
REMARK    4  A    between atoms: C2_8  and  C5_11 
ROOT
HETATM    1  O1  UNK     1      20.100  -2.606  34.978  1.00  0.00    -0.274 OA
HETATM    2  O2  UNK     1      21.302  -3.094  33.098  1.00  0.00    -0.259 OA
HETATM    3  C1  UNK     1      18.399  -0.870  34.898  1.00  0.00    -0.001 A 
HETATM    4  C2  UNK     1      19.672  -1.386  32.902  1.00  0.00     0.066 A 
HETATM    5  C3  UNK     1      19.098  -1.841  35.607  1.00  0.00     0.089 A 
HETATM    6  C4  UNK     1      18.720  -0.657  33.495  1.00  0.00     0.034 A 
HETATM    7  C6  UNK     1      17.412  -0.132  35.557  1.00  0.00     0.014 A 
HETATM    8  C7  UNK     1      20.427  -2.425  33.638  1.00  0.00     0.300 A 
HETATM    9  C8  UNK     1      18.840  -2.094  36.954  1.00  0.00     0.038 A 
HETATM   10  C9  UNK     1      17.142  -0.374  36.907  1.00  0.00     0.001 A 
HETATM   11  C10 UNK     1      17.856  -1.353  37.603  1.00  0.00     0.003 A 
ENDROOT
BRANCH   4  12
HETATM   12  C5  UNK     1      19.923  -1.098  31.485  1.00  0.00     0.067 C 
HETATM   13  C11 UNK     1      20.138  -2.286  30.568  1.00  0.00     0.073 C 
HETATM   14  N1  UNK     1      19.947   0.148  31.093  1.00  0.00    -0.177 NA
BRANCH  14  15
HETATM   15  N2  UNK     1      20.179   0.402  29.784  1.00  0.00    -0.253 N 
HETATM   16  H9  UNK     1      21.136   0.412  29.451  1.00  0.00     0.191 HD
BRANCH  15  17
HETATM   17  C12 UNK     1      19.140   0.643  28.919  1.00  0.00     0.185 C 
HETATM   18  S1  UNK     1      18.207   2.025  29.039  1.00  0.00    -0.040 SA
BRANCH  17  19
HETATM   19  N3  UNK     1      18.902  -0.300  27.956  1.00  0.00    -0.375 N 
HETATM   20  H10 UNK     1      19.081  -0.111  26.975  1.00  0.00     0.158 HD
HETATM   21  H11 UNK     1      18.539  -1.217  28.192  1.00  0.00     0.158 HD
ENDBRANCH  17  19
ENDBRANCH  15  17
ENDBRANCH  14  15
ENDBRANCH   4  12
TORSDOF 4
ENDMDL
MODEL 4
REMARK VINA RESULT:      -7.4      3.959      7.793
REMARK  4 active torsions:
REMARK  status: ('A' for Active; 'I' for Inactive)
REMARK    1  A    between atoms: N1_4  and  N2_5 
REMARK    2  A    between atoms: C12_18  and  N2_5 
REMARK    3  A    between atoms: C12_18  and  N3_6 
REMARK    4  A    between atoms: C2_8  and  C5_11 
ROOT
HETATM    1  O1  UNK     1      18.528   7.930  33.833  1.00  0.00    -0.274 OA
HETATM    2  O2  UNK     1      20.430   6.911  33.082  1.00  0.00    -0.259 OA
HETATM    3  C1  UNK     1      16.391   7.385  32.809  1.00  0.00    -0.001 A 
HETATM    4  C2  UNK     1      18.406   6.302  32.012  1.00  0.00     0.066 A 
HETATM    5  C3  UNK     1      17.132   8.099  33.745  1.00  0.00     0.089 A 
HETATM    6  C4  UNK     1      17.080   6.459  31.924  1.00  0.00     0.034 A 
HETATM    7  C6  UNK     1      15.008   7.580  32.753  1.00  0.00     0.014 A 
HETATM    8  C7  UNK     1      19.214   7.051  33.000  1.00  0.00     0.300 A 
HETATM    9  C8  UNK     1      16.533   9.001  34.622  1.00  0.00     0.038 A 
HETATM   10  C9  UNK     1      14.393   8.481  33.626  1.00  0.00     0.001 A 
HETATM   11  C10 UNK     1      15.155   9.191  34.559  1.00  0.00     0.003 A 
ENDROOT
BRANCH   4  12
HETATM   12  C5  UNK     1      19.010   5.347  31.075  1.00  0.00     0.067 C 
HETATM   13  C11 UNK     1      19.932   5.913  30.013  1.00  0.00     0.073 C 
HETATM   14  N1  UNK     1      18.727   4.078  31.204  1.00  0.00    -0.177 NA
BRANCH  14  15
HETATM   15  N2  UNK     1      19.289   3.206  30.334  1.00  0.00    -0.253 N 
HETATM   16  H9  UNK     1      20.143   3.474  29.859  1.00  0.00     0.191 HD
BRANCH  15  17
HETATM   17  C12 UNK     1      18.717   1.980  30.098  1.00  0.00     0.185 C 
HETATM   18  S1  UNK     1      17.947   1.641  28.654  1.00  0.00    -0.040 SA
BRANCH  17  19
HETATM   19  N3  UNK     1      18.805   1.051  31.098  1.00  0.00    -0.375 N 
HETATM   20  H10 UNK     1      18.475   0.099  30.966  1.00  0.00     0.158 HD
HETATM   21  H11 UNK     1      19.201   1.281  32.002  1.00  0.00     0.158 HD
ENDBRANCH  17  19
ENDBRANCH  15  17
ENDBRANCH  14  15
ENDBRANCH   4  12
TORSDOF 4
ENDMDL
MODEL 5
REMARK VINA RESULT:      -7.3      4.031      7.539
REMARK  4 active torsions:
REMARK  status: ('A' for Active; 'I' for Inactive)
REMARK    1  A    between atoms: N1_4  and  N2_5 
REMARK    2  A    between atoms: C12_18  and  N2_5 
REMARK    3  A    between atoms: C12_18  and  N3_6 
REMARK    4  A    between atoms: C2_8  and  C5_11 
ROOT
HETATM    1  O1  UNK     1      16.864   7.944  32.950  1.00  0.00    -0.274 OA
HETATM    2  O2  UNK     1      15.812   6.083  32.145  1.00  0.00    -0.259 OA
HETATM    3  C1  UNK     1      19.191   7.802  33.640  1.00  0.00    -0.001 A 
HETATM    4  C2  UNK     1      18.078   5.827  32.786  1.00  0.00     0.066 A 
HETATM    5  C3  UNK     1      18.028   8.545  33.468  1.00  0.00     0.089 A 
HETATM    6  C4  UNK     1      19.186   6.394  33.277  1.00  0.00     0.034 A 
HETATM    7  C6  UNK     1      20.326   8.435  34.156  1.00  0.00     0.014 A 
HETATM    8  C7  UNK     1      16.830   6.599  32.594  1.00  0.00     0.300 A 
HETATM    9  C8  UNK     1      17.966   9.899  33.796  1.00  0.00     0.038 A 
HETATM   10  C9  UNK     1      20.279   9.792  34.490  1.00  0.00     0.001 A 
HETATM   11  C10 UNK     1      19.101  10.521  34.310  1.00  0.00     0.003 A 
ENDROOT
BRANCH   4  12
HETATM   12  C5  UNK     1      18.172   4.402  32.451  1.00  0.00     0.067 C 
HETATM   13  C11 UNK     1      18.595   4.054  31.036  1.00  0.00     0.073 C 
HETATM   14  N1  UNK     1      17.892   3.520  33.373  1.00  0.00    -0.177 NA
BRANCH  14  15
HETATM   15  N2  UNK     1      17.981   2.208  33.052  1.00  0.00    -0.253 N 
HETATM   16  H9  UNK     1      17.952   1.942  32.075  1.00  0.00     0.191 HD
BRANCH  15  17
HETATM   17  C12 UNK     1      18.111   1.253  34.029  1.00  0.00     0.185 C 
HETATM   18  S1  UNK     1      18.660   1.639  35.560  1.00  0.00    -0.040 SA
BRANCH  17  19
HETATM   19  N3  UNK     1      17.771  -0.030  33.694  1.00  0.00    -0.375 N 
HETATM   20  H10 UNK     1      16.801  -0.306  33.573  1.00  0.00     0.158 HD
HETATM   21  H11 UNK     1      18.475  -0.745  33.554  1.00  0.00     0.158 HD
ENDBRANCH  17  19
ENDBRANCH  15  17
ENDBRANCH  14  15
ENDBRANCH   4  12
TORSDOF 4
ENDMDL
MODEL 6
REMARK VINA RESULT:      -7.3      5.313      6.425
REMARK  4 active torsions:
REMARK  status: ('A' for Active; 'I' for Inactive)
REMARK    1  A    between atoms: N1_4  and  N2_5 
REMARK    2  A    between atoms: C12_18  and  N2_5 
REMARK    3  A    between atoms: C12_18  and  N3_6 
REMARK    4  A    between atoms: C2_8  and  C5_11 
ROOT
HETATM    1  O1  UNK     1      18.660   1.069  32.199  1.00  0.00    -0.274 OA
HETATM    2  O2  UNK     1      17.935   1.318  34.351  1.00  0.00    -0.259 OA
HETATM    3  C1  UNK     1      19.616  -1.053  31.492  1.00  0.00    -0.001 A 
HETATM    4  C2  UNK     1      18.847  -0.792  33.775  1.00  0.00     0.066 A 
HETATM    5  C3  UNK     1      19.240   0.256  31.206  1.00  0.00     0.089 A 
HETATM    6  C4  UNK     1      19.399  -1.568  32.835  1.00  0.00     0.034 A 
HETATM    7  C6  UNK     1      20.188  -1.828  30.480  1.00  0.00     0.014 A 
HETATM    8  C7  UNK     1      18.439   0.603  33.492  1.00  0.00     0.300 A 
HETATM    9  C8  UNK     1      19.421   0.811  29.939  1.00  0.00     0.038 A 
HETATM   10  C9  UNK     1      20.376  -1.285  29.206  1.00  0.00     0.001 A 
HETATM   11  C10 UNK     1      19.993   0.032  28.936  1.00  0.00     0.003 A 
ENDROOT
BRANCH   4  12
HETATM   12  C5  UNK     1      18.670  -1.401  35.098  1.00  0.00     0.067 C 
HETATM   13  C11 UNK     1      17.309  -1.248  35.750  1.00  0.00     0.073 C 
HETATM   14  N1  UNK     1      19.677  -2.035  35.637  1.00  0.00    -0.177 NA
BRANCH  14  15
HETATM   15  N2  UNK     1      19.502  -2.593  36.858  1.00  0.00    -0.253 N 
HETATM   16  H9  UNK     1      19.324  -1.987  37.651  1.00  0.00     0.191 HD
BRANCH  15  17
HETATM   17  C12 UNK     1      19.562  -3.955  37.024  1.00  0.00     0.185 C 
HETATM   18  S1  UNK     1      20.931  -4.701  37.628  1.00  0.00    -0.040 SA
BRANCH  17  19
HETATM   19  N3  UNK     1      18.452  -4.673  36.672  1.00  0.00    -0.375 N 
HETATM   20  H10 UNK     1      17.757  -4.295  36.036  1.00  0.00     0.158 HD
HETATM   21  H11 UNK     1      18.287  -5.605  37.035  1.00  0.00     0.158 HD
ENDBRANCH  17  19
ENDBRANCH  15  17
ENDBRANCH  14  15
ENDBRANCH   4  12
TORSDOF 4
ENDMDL
MODEL 7
REMARK VINA RESULT:      -7.3      5.909      7.411
REMARK  4 active torsions:
REMARK  status: ('A' for Active; 'I' for Inactive)
REMARK    1  A    between atoms: N1_4  and  N2_5 
REMARK    2  A    between atoms: C12_18  and  N2_5 
REMARK    3  A    between atoms: C12_18  and  N3_6 
REMARK    4  A    between atoms: C2_8  and  C5_11 
ROOT
HETATM    1  O1  UNK     1      18.759   7.157  33.892  1.00  0.00    -0.274 OA
HETATM    2  O2  UNK     1      17.162   8.023  35.277  1.00  0.00    -0.259 OA
HETATM    3  C1  UNK     1      18.233   6.765  31.551  1.00  0.00    -0.001 A 
HETATM    4  C2  UNK     1      16.537   7.684  33.017  1.00  0.00     0.066 A 
HETATM    5  C3  UNK     1      19.137   6.721  32.608  1.00  0.00     0.089 A 
HETATM    6  C4  UNK     1      16.891   7.271  31.795  1.00  0.00     0.034 A 
HETATM    7  C6  UNK     1      18.646   6.324  30.291  1.00  0.00     0.014 A 
HETATM    8  C7  UNK     1      17.483   7.646  34.155  1.00  0.00     0.300 A 
HETATM    9  C8  UNK     1      20.438   6.247  32.441  1.00  0.00     0.038 A 
HETATM   10  C9  UNK     1      19.947   5.846  30.109  1.00  0.00     0.001 A 
HETATM   11  C10 UNK     1      20.840   5.808  31.182  1.00  0.00     0.003 A 
ENDROOT
BRANCH   4  12
HETATM   12  C5  UNK     1      15.162   8.176  33.163  1.00  0.00     0.067 C 
HETATM   13  C11 UNK     1      14.154   7.229  33.784  1.00  0.00     0.073 C 
HETATM   14  N1  UNK     1      14.882   9.386  32.758  1.00  0.00    -0.177 NA
BRANCH  14  15
HETATM   15  N2  UNK     1      13.611   9.829  32.897  1.00  0.00    -0.253 N 
HETATM   16  H9  UNK     1      12.853   9.158  32.855  1.00  0.00     0.191 HD
BRANCH  15  17
HETATM   17  C12 UNK     1      13.349  11.162  33.094  1.00  0.00     0.185 C 
HETATM   18  S1  UNK     1      13.164  11.797  34.629  1.00  0.00    -0.040 SA
BRANCH  17  19
HETATM   19  N3  UNK     1      13.245  11.947  31.978  1.00  0.00    -0.375 N 
HETATM   20  H10 UNK     1      12.736  12.825  31.993  1.00  0.00     0.158 HD
HETATM   21  H11 UNK     1      13.674  11.676  31.099  1.00  0.00     0.158 HD
ENDBRANCH  17  19
ENDBRANCH  15  17
ENDBRANCH  14  15
ENDBRANCH   4  12
TORSDOF 4
ENDMDL
MODEL 8
REMARK VINA RESULT:      -7.2     14.213     15.932
REMARK  4 active torsions:
REMARK  status: ('A' for Active; 'I' for Inactive)
REMARK    1  A    between atoms: N1_4  and  N2_5 
REMARK    2  A    between atoms: C12_18  and  N2_5 
REMARK    3  A    between atoms: C12_18  and  N3_6 
REMARK    4  A    between atoms: C2_8  and  C5_11 
ROOT
HETATM    1  O1  UNK     1      19.259   1.080  15.817  1.00  0.00    -0.274 OA
HETATM    2  O2  UNK     1      19.428  -0.264  13.977  1.00  0.00    -0.259 OA
HETATM    3  C1  UNK     1      18.880   0.082  18.001  1.00  0.00    -0.001 A 
HETATM    4  C2  UNK     1      19.059  -1.346  16.053  1.00  0.00     0.066 A 
HETATM    5  C3  UNK     1      19.071   1.208  17.207  1.00  0.00     0.089 A 
HETATM    6  C4  UNK     1      18.879  -1.230  17.373  1.00  0.00     0.034 A 
HETATM    7  C6  UNK     1      18.697   0.250  19.376  1.00  0.00     0.014 A 
HETATM    8  C7  UNK     1      19.264  -0.161  15.188  1.00  0.00     0.300 A 
HETATM    9  C8  UNK     1      19.082   2.494  17.746  1.00  0.00     0.038 A 
HETATM   10  C9  UNK     1      18.705   1.533  19.932  1.00  0.00     0.001 A 
HETATM   11  C10 UNK     1      18.897   2.652  19.117  1.00  0.00     0.003 A 
ENDROOT
BRANCH   4  12
HETATM   12  C5  UNK     1      19.041  -2.710  15.512  1.00  0.00     0.067 C 
HETATM   13  C11 UNK     1      20.384  -3.357  15.232  1.00  0.00     0.073 C 
HETATM   14  N1  UNK     1      17.888  -3.288  15.304  1.00  0.00    -0.177 NA
BRANCH  14  15
HETATM   15  N2  UNK     1      17.884  -4.546  14.806  1.00  0.00    -0.253 N 
HETATM   16  H9  UNK     1      17.997  -4.676  13.807  1.00  0.00     0.191 HD
BRANCH  15  17
HETATM   17  C12 UNK     1      17.732  -5.630  15.635  1.00  0.00     0.185 C 
HETATM   18  S1  UNK     1      16.391  -5.793  16.620  1.00  0.00    -0.040 SA
BRANCH  17  19
HETATM   19  N3  UNK     1      18.726  -6.570  15.619  1.00  0.00    -0.375 N 
HETATM   20  H10 UNK     1      18.525  -7.550  15.449  1.00  0.00     0.158 HD
HETATM   21  H11 UNK     1      19.696  -6.317  15.775  1.00  0.00     0.158 HD
ENDBRANCH  17  19
ENDBRANCH  15  17
ENDBRANCH  14  15
ENDBRANCH   4  12
TORSDOF 4
ENDMDL
MODEL 9
REMARK VINA RESULT:      -7.2      3.962      7.872
REMARK  4 active torsions:
REMARK  status: ('A' for Active; 'I' for Inactive)
REMARK    1  A    between atoms: N1_4  and  N2_5 
REMARK    2  A    between atoms: C12_18  and  N2_5 
REMARK    3  A    between atoms: C12_18  and  N3_6 
REMARK    4  A    between atoms: C2_8  and  C5_11 
ROOT
HETATM    1  O1  UNK     1      19.298   8.076  33.533  1.00  0.00    -0.274 OA
HETATM    2  O2  UNK     1      20.584   6.233  33.118  1.00  0.00    -0.259 OA
HETATM    3  C1  UNK     1      16.906   7.991  33.102  1.00  0.00    -0.001 A 
HETATM    4  C2  UNK     1      18.267   6.036  32.662  1.00  0.00     0.066 A 
HETATM    5  C3  UNK     1      18.031   8.690  33.530  1.00  0.00     0.089 A 
HETATM    6  C4  UNK     1      17.061   6.614  32.657  1.00  0.00     0.034 A 
HETATM    7  C6  UNK     1      15.666   8.635  33.115  1.00  0.00     0.014 A 
HETATM    8  C7  UNK     1      19.477   6.760  33.114  1.00  0.00     0.300 A 
HETATM    9  C8  UNK     1      17.950  10.011  33.969  1.00  0.00     0.038 A 
HETATM   10  C9  UNK     1      15.570   9.959  33.552  1.00  0.00     0.001 A 
HETATM   11  C10 UNK     1      16.711  10.645  33.977  1.00  0.00     0.003 A 
ENDROOT
BRANCH   4  12
HETATM   12  C5  UNK     1      18.322   4.645  32.195  1.00  0.00     0.067 C 
HETATM   13  C11 UNK     1      18.847   4.411  30.792  1.00  0.00     0.073 C 
HETATM   14  N1  UNK     1      17.923   3.697  32.999  1.00  0.00    -0.177 NA
BRANCH  14  15
HETATM   15  N2  UNK     1      17.977   2.419  32.557  1.00  0.00    -0.253 N 
HETATM   16  H9  UNK     1      17.771   2.230  31.584  1.00  0.00     0.191 HD
BRANCH  15  17
HETATM   17  C12 UNK     1      18.307   1.394  33.410  1.00  0.00     0.185 C 
HETATM   18  S1  UNK     1      18.260   1.591  35.069  1.00  0.00    -0.040 SA
BRANCH  17  19
HETATM   19  N3  UNK     1      18.675   0.206  32.840  1.00  0.00    -0.375 N 
HETATM   20  H10 UNK     1      18.120  -0.635  32.965  1.00  0.00     0.158 HD
HETATM   21  H11 UNK     1      19.514   0.126  32.276  1.00  0.00     0.158 HD
ENDBRANCH  17  19
ENDBRANCH  15  17
ENDBRANCH  14  15
ENDBRANCH   4  12
TORSDOF 4
ENDMDL
MODEL 10
REMARK VINA RESULT:      -7.1      4.121      6.164
REMARK  4 active torsions:
REMARK  status: ('A' for Active; 'I' for Inactive)
REMARK    1  A    between atoms: N1_4  and  N2_5 
REMARK    2  A    between atoms: C12_18  and  N2_5 
REMARK    3  A    between atoms: C12_18  and  N3_6 
REMARK    4  A    between atoms: C2_8  and  C5_11 
ROOT
HETATM    1  O1  UNK     1      18.820   2.235  31.127  1.00  0.00    -0.274 OA
HETATM    2  O2  UNK     1      18.685   0.081  31.876  1.00  0.00    -0.259 OA
HETATM    3  C1  UNK     1      18.339   4.068  32.651  1.00  0.00    -0.001 A 
HETATM    4  C2  UNK     1      18.196   1.785  33.448  1.00  0.00     0.066 A 
HETATM    5  C3  UNK     1      18.702   3.614  31.386  1.00  0.00     0.089 A 
HETATM    6  C4  UNK     1      18.083   3.094  33.700  1.00  0.00     0.034 A 
HETATM    7  C6  UNK     1      18.234   5.444  32.869  1.00  0.00     0.014 A 
HETATM    8  C7  UNK     1      18.582   1.280  32.111  1.00  0.00     0.300 A 
HETATM    9  C8  UNK     1      18.961   4.495  30.337  1.00  0.00     0.038 A 
HETATM   10  C9  UNK     1      18.490   6.339  31.827  1.00  0.00     0.001 A 
HETATM   11  C10 UNK     1      18.852   5.865  30.563  1.00  0.00     0.003 A 
ENDROOT
BRANCH   4  12
HETATM   12  C5  UNK     1      17.917   0.881  34.571  1.00  0.00     0.067 C 
HETATM   13  C11 UNK     1      16.466   0.516  34.816  1.00  0.00     0.073 C 
HETATM   14  N1  UNK     1      18.918   0.444  35.288  1.00  0.00    -0.177 NA
BRANCH  14  15
HETATM   15  N2  UNK     1      18.648  -0.389  36.320  1.00  0.00    -0.253 N 
HETATM   16  H9  UNK     1      18.234  -0.005  37.161  1.00  0.00     0.191 HD
BRANCH  15  17
HETATM   17  C12 UNK     1      18.929  -1.730  36.233  1.00  0.00     0.185 C 
HETATM   18  S1  UNK     1      20.374  -2.279  35.595  1.00  0.00    -0.040 SA
BRANCH  17  19
HETATM   19  N3  UNK     1      17.975  -2.596  36.692  1.00  0.00    -0.375 N 
HETATM   20  H10 UNK     1      17.497  -3.237  36.066  1.00  0.00     0.158 HD
HETATM   21  H11 UNK     1      17.714  -2.627  37.671  1.00  0.00     0.158 HD
ENDBRANCH  17  19
ENDBRANCH  15  17
ENDBRANCH  14  15
ENDBRANCH   4  12
TORSDOF 4
ENDMDL
