MODEL 1
REMARK VINA RESULT:      -9.0      0.000      0.000
REMARK  4 active torsions:
REMARK  status: ('A' for Active; 'I' for Inactive)
REMARK    1  A    between atoms: C12_16  and  O3_3 
REMARK    2  A    between atoms: C3_7  and  C8_12 
REMARK    3  A    between atoms: C10_14  and  C8_12 
REMARK    4  A    between atoms: C11_15  and  C9_13 
ROOT
HETATM    1  O4  UNK     1      18.005   2.422  28.214  1.00  0.00    -0.288 OA
HETATM    2  C8  UNK     1      18.353   2.148  29.371  1.00  0.00     0.182 C 
ENDROOT
BRANCH   2   3
HETATM    3  C10 UNK     1      18.129   3.128  30.489  1.00  0.00     0.056 C 
HETATM    4  C11 UNK     1      18.926   4.198  30.629  1.00  0.00     0.018 C 
BRANCH   4   5
HETATM    5  C9  UNK     1      18.795   5.203  31.699  1.00  0.00    -0.003 A 
HETATM    6  C12 UNK     1      19.869   6.008  32.043  1.00  0.00     0.078 A 
HETATM    7  C14 UNK     1      19.720   6.952  33.058  1.00  0.00     0.037 A 
HETATM    8  C16 UNK     1      18.498   7.079  33.718  1.00  0.00     0.003 A 
HETATM    9  C15 UNK     1      17.424   6.263  33.362  1.00  0.00     0.001 A 
HETATM   10  C13 UNK     1      17.574   5.319  32.347  1.00  0.00     0.014 A 
BRANCH   6  11
HETATM   11  O3  UNK     1      21.075   5.904  31.414  1.00  0.00    -0.355 OA
HETATM   12  C17 UNK     1      22.238   5.935  32.238  1.00  0.00     0.210 C 
ENDBRANCH   6  11
ENDBRANCH   4   5
ENDBRANCH   2   3
BRANCH   2  13
HETATM   13  C3  UNK     1      19.013   0.887  29.672  1.00  0.00     0.017 A 
HETATM   14  C4  UNK     1      19.209   0.508  31.003  1.00  0.00     0.055 A 
HETATM   15  C1  UNK     1      19.839  -0.696  31.239  1.00  0.00     0.105 A 
HETATM   16  O1  UNK     1      20.117  -1.226  32.461  1.00  0.00    -0.323 OA
HETATM   17  C2  UNK     1      20.265  -1.505  30.210  1.00  0.00     0.105 A 
HETATM   18  C7  UNK     1      20.764  -2.459  32.086  1.00  0.00     0.352 A 
HETATM   19  O2  UNK     1      20.862  -2.643  30.659  1.00  0.00    -0.323 OA
HETATM   20  C5  UNK     1      20.083  -1.154  28.888  1.00  0.00     0.040 A 
HETATM   21  C6  UNK     1      19.447   0.061  28.621  1.00  0.00     0.018 A 
ENDBRANCH   2  13
TORSDOF 4
ENDMDL
MODEL 2
REMARK VINA RESULT:      -9.0      1.214      2.113
REMARK  4 active torsions:
REMARK  status: ('A' for Active; 'I' for Inactive)
REMARK    1  A    between atoms: C12_16  and  O3_3 
REMARK    2  A    between atoms: C3_7  and  C8_12 
REMARK    3  A    between atoms: C10_14  and  C8_12 
REMARK    4  A    between atoms: C11_15  and  C9_13 
ROOT
HETATM    1  O4  UNK     1      17.980   2.841  28.699  1.00  0.00    -0.288 OA
HETATM    2  C8  UNK     1      18.540   2.470  29.741  1.00  0.00     0.182 C 
ENDROOT
BRANCH   2   3
HETATM    3  C10 UNK     1      18.662   3.399  30.916  1.00  0.00     0.056 C 
HETATM    4  C11 UNK     1      18.848   4.714  30.730  1.00  0.00     0.018 C 
BRANCH   4   5
HETATM    5  C9  UNK     1      18.994   5.699  31.816  1.00  0.00    -0.003 A 
HETATM    6  C12 UNK     1      17.876   6.214  32.453  1.00  0.00     0.078 A 
HETATM    7  C14 UNK     1      18.040   7.144  33.479  1.00  0.00     0.037 A 
HETATM    8  C16 UNK     1      19.322   7.550  33.855  1.00  0.00     0.003 A 
HETATM    9  C15 UNK     1      20.438   7.023  33.205  1.00  0.00     0.001 A 
HETATM   10  C13 UNK     1      20.274   6.092  32.180  1.00  0.00     0.014 A 
BRANCH   6  11
HETATM   11  O3  UNK     1      16.613   5.836  32.105  1.00  0.00    -0.355 OA
HETATM   12  C17 UNK     1      15.595   6.831  32.187  1.00  0.00     0.210 C 
ENDBRANCH   6  11
ENDBRANCH   4   5
ENDBRANCH   2   3
BRANCH   2  13
HETATM   13  C3  UNK     1      19.118   1.139  29.843  1.00  0.00     0.017 A 
HETATM   14  C4  UNK     1      19.378   0.590  31.101  1.00  0.00     0.055 A 
HETATM   15  C1  UNK     1      19.927  -0.675  31.148  1.00  0.00     0.105 A 
HETATM   16  O1  UNK     1      20.248  -1.365  32.275  1.00  0.00    -0.323 OA
HETATM   17  C2  UNK     1      20.212  -1.382  30.002  1.00  0.00     0.105 A 
HETATM   18  C7  UNK     1      20.768  -2.587  31.711  1.00  0.00     0.352 A 
HETATM   19  O2  UNK     1      20.748  -2.605  30.270  1.00  0.00    -0.323 OA
HETATM   20  C5  UNK     1      19.965  -0.864  28.748  1.00  0.00     0.040 A 
HETATM   21  C6  UNK     1      19.410   0.416  28.673  1.00  0.00     0.018 A 
ENDBRANCH   2  13
TORSDOF 4
ENDMDL
MODEL 3
REMARK VINA RESULT:      -8.3      2.169      3.628
REMARK  4 active torsions:
REMARK  status: ('A' for Active; 'I' for Inactive)
REMARK    1  A    between atoms: C12_16  and  O3_3 
REMARK    2  A    between atoms: C3_7  and  C8_12 
REMARK    3  A    between atoms: C10_14  and  C8_12 
REMARK    4  A    between atoms: C11_15  and  C9_13 
ROOT
HETATM    1  O4  UNK     1      17.830   2.441  33.590  1.00  0.00    -0.288 OA
HETATM    2  C8  UNK     1      18.188   3.030  32.560  1.00  0.00     0.182 C 
ENDROOT
BRANCH   2   3
HETATM    3  C10 UNK     1      18.336   4.526  32.548  1.00  0.00     0.056 C 
HETATM    4  C11 UNK     1      18.096   5.245  33.655  1.00  0.00     0.018 C 
BRANCH   4   5
HETATM    5  C9  UNK     1      18.199   6.712  33.737  1.00  0.00    -0.003 A 
HETATM    6  C12 UNK     1      17.097   7.510  33.472  1.00  0.00     0.078 A 
HETATM    7  C14 UNK     1      17.220   8.897  33.557  1.00  0.00     0.037 A 
HETATM    8  C16 UNK     1      18.444   9.469  33.905  1.00  0.00     0.003 A 
HETATM    9  C15 UNK     1      19.545   8.654  34.169  1.00  0.00     0.001 A 
HETATM   10  C13 UNK     1      19.422   7.268  34.084  1.00  0.00     0.014 A 
BRANCH   6  11
HETATM   11  O3  UNK     1      15.890   6.977  33.129  1.00  0.00    -0.355 OA
HETATM   12  C17 UNK     1      15.327   7.396  31.888  1.00  0.00     0.210 C 
ENDBRANCH   6  11
ENDBRANCH   4   5
ENDBRANCH   2   3
BRANCH   2  13
HETATM   13  C3  UNK     1      18.446   2.295  31.332  1.00  0.00     0.017 A 
HETATM   14  C4  UNK     1      19.210   1.126  31.371  1.00  0.00     0.055 A 
HETATM   15  C1  UNK     1      19.429   0.463  30.181  1.00  0.00     0.105 A 
HETATM   16  O1  UNK     1      20.145  -0.683  30.025  1.00  0.00    -0.323 OA
HETATM   17  C2  UNK     1      18.919   0.927  28.990  1.00  0.00     0.105 A 
HETATM   18  C7  UNK     1      20.028  -0.889  28.602  1.00  0.00     0.352 A 
HETATM   19  O2  UNK     1      19.251   0.129  27.939  1.00  0.00    -0.323 OA
HETATM   20  C5  UNK     1      18.162   2.079  28.924  1.00  0.00     0.040 A 
HETATM   21  C6  UNK     1      17.926   2.769  30.115  1.00  0.00     0.018 A 
ENDBRANCH   2  13
TORSDOF 4
ENDMDL
MODEL 4
REMARK VINA RESULT:      -8.3      1.507      6.833
REMARK  4 active torsions:
REMARK  status: ('A' for Active; 'I' for Inactive)
REMARK    1  A    between atoms: C12_16  and  O3_3 
REMARK    2  A    between atoms: C3_7  and  C8_12 
REMARK    3  A    between atoms: C10_14  and  C8_12 
REMARK    4  A    between atoms: C11_15  and  C9_13 
ROOT
HETATM    1  O4  UNK     1      17.890   2.772  28.159  1.00  0.00    -0.288 OA
HETATM    2  C8  UNK     1      18.312   2.610  29.314  1.00  0.00     0.182 C 
ENDROOT
BRANCH   2   3
HETATM    3  C10 UNK     1      18.529   1.227  29.861  1.00  0.00     0.056 C 
HETATM    4  C11 UNK     1      19.769   0.765  30.076  1.00  0.00     0.018 C 
BRANCH   4   5
HETATM    5  C9  UNK     1      20.082  -0.579  30.594  1.00  0.00    -0.003 A 
HETATM    6  C12 UNK     1      19.843  -0.894  31.922  1.00  0.00     0.078 A 
HETATM    7  C14 UNK     1      20.147  -2.172  32.388  1.00  0.00     0.037 A 
HETATM    8  C16 UNK     1      20.687  -3.121  31.520  1.00  0.00     0.003 A 
HETATM    9  C15 UNK     1      20.922  -2.791  30.185  1.00  0.00     0.001 A 
HETATM   10  C13 UNK     1      20.619  -1.513  29.719  1.00  0.00     0.014 A 
BRANCH   6  11
HETATM   11  O3  UNK     1      19.316   0.015  32.792  1.00  0.00    -0.355 OA
HETATM   12  C17 UNK     1      18.427  -0.484  33.789  1.00  0.00     0.210 C 
ENDBRANCH   6  11
ENDBRANCH   4   5
ENDBRANCH   2   3
BRANCH   2  13
HETATM   13  C3  UNK     1      18.579   3.750  30.176  1.00  0.00     0.017 A 
HETATM   14  C4  UNK     1      18.168   3.721  31.511  1.00  0.00     0.055 A 
HETATM   15  C1  UNK     1      18.444   4.826  32.291  1.00  0.00     0.105 A 
HETATM   16  O1  UNK     1      18.120   4.978  33.603  1.00  0.00    -0.323 OA
HETATM   17  C2  UNK     1      19.098   5.925  31.783  1.00  0.00     0.105 A 
HETATM   18  C7  UNK     1      18.646   6.295  33.866  1.00  0.00     0.352 A 
HETATM   19  O2  UNK     1      19.268   6.902  32.715  1.00  0.00    -0.323 OA
HETATM   20  C5  UNK     1      19.514   5.979  30.468  1.00  0.00     0.040 A 
HETATM   21  C6  UNK     1      19.248   4.873  29.658  1.00  0.00     0.018 A 
ENDBRANCH   2  13
TORSDOF 4
ENDMDL
MODEL 5
REMARK VINA RESULT:      -8.1      2.051      7.314
REMARK  4 active torsions:
REMARK  status: ('A' for Active; 'I' for Inactive)
REMARK    1  A    between atoms: C12_16  and  O3_3 
REMARK    2  A    between atoms: C3_7  and  C8_12 
REMARK    3  A    between atoms: C10_14  and  C8_12 
REMARK    4  A    between atoms: C11_15  and  C9_13 
ROOT
HETATM    1  O4  UNK     1      18.373   5.307  29.323  1.00  0.00    -0.288 OA
HETATM    2  C8  UNK     1      18.841   4.860  30.381  1.00  0.00     0.182 C 
ENDROOT
BRANCH   2   3
HETATM    3  C10 UNK     1      19.469   3.495  30.422  1.00  0.00     0.056 C 
HETATM    4  C11 UNK     1      18.716   2.393  30.295  1.00  0.00     0.018 C 
BRANCH   4   5
HETATM    5  C9  UNK     1      19.237   1.015  30.338  1.00  0.00    -0.003 A 
HETATM    6  C12 UNK     1      19.191   0.283  31.513  1.00  0.00     0.078 A 
HETATM    7  C14 UNK     1      19.690  -1.019  31.528  1.00  0.00     0.037 A 
HETATM    8  C16 UNK     1      20.230  -1.573  30.367  1.00  0.00     0.003 A 
HETATM    9  C15 UNK     1      20.270  -0.824  29.191  1.00  0.00     0.001 A 
HETATM   10  C13 UNK     1      19.771   0.478  29.176  1.00  0.00     0.014 A 
BRANCH   6  11
HETATM   11  O3  UNK     1      18.669   0.800  32.662  1.00  0.00    -0.355 OA
HETATM   12  C17 UNK     1      18.429  -0.113  33.731  1.00  0.00     0.210 C 
ENDBRANCH   6  11
ENDBRANCH   4   5
ENDBRANCH   2   3
BRANCH   2  13
HETATM   13  C3  UNK     1      18.768   5.631  31.612  1.00  0.00     0.017 A 
HETATM   14  C4  UNK     1      17.530   5.850  32.221  1.00  0.00     0.055 A 
HETATM   15  C1  UNK     1      17.511   6.587  33.387  1.00  0.00     0.105 A 
HETATM   16  O1  UNK     1      16.405   6.901  34.115  1.00  0.00    -0.323 OA
HETATM   17  C2  UNK     1      18.663   7.096  33.941  1.00  0.00     0.105 A 
HETATM   18  C7  UNK     1      16.991   7.664  35.190  1.00  0.00     0.352 A 
HETATM   19  O2  UNK     1      18.424   7.792  35.086  1.00  0.00    -0.323 OA
HETATM   20  C5  UNK     1      19.898   6.895  33.359  1.00  0.00     0.040 A 
HETATM   21  C6  UNK     1      19.945   6.151  32.178  1.00  0.00     0.018 A 
ENDBRANCH   2  13
TORSDOF 4
ENDMDL
MODEL 6
REMARK VINA RESULT:      -8.0      5.920     10.579
REMARK  4 active torsions:
REMARK  status: ('A' for Active; 'I' for Inactive)
REMARK    1  A    between atoms: C12_16  and  O3_3 
REMARK    2  A    between atoms: C3_7  and  C8_12 
REMARK    3  A    between atoms: C10_14  and  C8_12 
REMARK    4  A    between atoms: C11_15  and  C9_13 
ROOT
HETATM    1  O4  UNK     1      21.677  -1.968  35.572  1.00  0.00    -0.288 OA
HETATM    2  C8  UNK     1      20.566  -2.317  35.999  1.00  0.00     0.182 C 
ENDROOT
BRANCH   2   3
HETATM    3  C10 UNK     1      20.436  -3.505  36.910  1.00  0.00     0.056 C 
HETATM    4  C11 UNK     1      20.028  -4.690  36.432  1.00  0.00     0.018 C 
BRANCH   4   5
HETATM    5  C9  UNK     1      19.855  -5.905  37.248  1.00  0.00    -0.003 A 
HETATM    6  C12 UNK     1      19.183  -7.004  36.738  1.00  0.00     0.078 A 
HETATM    7  C14 UNK     1      19.034  -8.143  37.530  1.00  0.00     0.037 A 
HETATM    8  C16 UNK     1      19.558  -8.168  38.822  1.00  0.00     0.003 A 
HETATM    9  C15 UNK     1      20.233  -7.054  39.323  1.00  0.00     0.001 A 
HETATM   10  C13 UNK     1      20.382  -5.916  38.531  1.00  0.00     0.014 A 
BRANCH   6  11
HETATM   11  O3  UNK     1      18.660  -7.006  35.479  1.00  0.00    -0.355 OA
HETATM   12  C17 UNK     1      17.295  -7.395  35.346  1.00  0.00     0.210 C 
ENDBRANCH   6  11
ENDBRANCH   4   5
ENDBRANCH   2   3
BRANCH   2  13
HETATM   13  C3  UNK     1      19.360  -1.604  35.607  1.00  0.00     0.017 A 
HETATM   14  C4  UNK     1      18.475  -1.149  36.588  1.00  0.00     0.055 A 
HETATM   15  C1  UNK     1      17.344  -0.479  36.168  1.00  0.00     0.105 A 
HETATM   16  O1  UNK     1      16.373   0.031  36.974  1.00  0.00    -0.323 OA
HETATM   17  C2  UNK     1      17.086  -0.260  34.834  1.00  0.00     0.105 A 
HETATM   18  C7  UNK     1      15.475   0.598  35.997  1.00  0.00     0.352 A 
HETATM   19  O2  UNK     1      15.921   0.417  34.638  1.00  0.00    -0.323 OA
HETATM   20  C5  UNK     1      17.943  -0.698  33.847  1.00  0.00     0.040 A 
HETATM   21  C6  UNK     1      19.096  -1.380  34.245  1.00  0.00     0.018 A 
ENDBRANCH   2  13
TORSDOF 4
ENDMDL
MODEL 7
REMARK VINA RESULT:      -7.9     13.306     15.922
REMARK  4 active torsions:
REMARK  status: ('A' for Active; 'I' for Inactive)
REMARK    1  A    between atoms: C12_16  and  O3_3 
REMARK    2  A    between atoms: C3_7  and  C8_12 
REMARK    3  A    between atoms: C10_14  and  C8_12 
REMARK    4  A    between atoms: C11_15  and  C9_13 
ROOT
HETATM    1  O4  UNK     1      16.998  -2.597  16.516  1.00  0.00    -0.288 OA
HETATM    2  C8  UNK     1      18.126  -2.197  16.191  1.00  0.00     0.182 C 
ENDROOT
BRANCH   2   3
HETATM    3  C10 UNK     1      18.867  -1.215  17.055  1.00  0.00     0.056 C 
HETATM    4  C11 UNK     1      18.208  -0.453  17.941  1.00  0.00     0.018 C 
BRANCH   4   5
HETATM    5  C9  UNK     1      18.844   0.545  18.819  1.00  0.00    -0.003 A 
HETATM    6  C12 UNK     1      19.003   1.855  18.395  1.00  0.00     0.078 A 
HETATM    7  C14 UNK     1      19.606   2.781  19.244  1.00  0.00     0.037 A 
HETATM    8  C16 UNK     1      20.045   2.387  20.509  1.00  0.00     0.003 A 
HETATM    9  C15 UNK     1      19.879   1.065  20.923  1.00  0.00     0.001 A 
HETATM   10  C13 UNK     1      19.275   0.139  20.074  1.00  0.00     0.014 A 
BRANCH   6  11
HETATM   11  O3  UNK     1      18.584   2.267  17.164  1.00  0.00    -0.355 OA
HETATM   12  C17 UNK     1      19.579   2.392  16.151  1.00  0.00     0.210 C 
ENDBRANCH   6  11
ENDBRANCH   4   5
ENDBRANCH   2   3
BRANCH   2  13
HETATM   13  C3  UNK     1      18.747  -2.643  14.954  1.00  0.00     0.017 A 
HETATM   14  C4  UNK     1      18.482  -1.965  13.761  1.00  0.00     0.055 A 
HETATM   15  C1  UNK     1      19.094  -2.425  12.613  1.00  0.00     0.105 A 
HETATM   16  O1  UNK     1      18.953  -1.898  11.367  1.00  0.00    -0.323 OA
HETATM   17  C2  UNK     1      19.938  -3.512  12.629  1.00  0.00     0.105 A 
HETATM   18  C7  UNK     1      19.805  -2.773  10.600  1.00  0.00     0.352 A 
HETATM   19  O2  UNK     1      20.433  -3.800  11.394  1.00  0.00    -0.323 OA
HETATM   20  C5  UNK     1      20.217  -4.198  13.793  1.00  0.00     0.040 A 
HETATM   21  C6  UNK     1      19.610  -3.753  14.970  1.00  0.00     0.018 A 
ENDBRANCH   2  13
TORSDOF 4
ENDMDL
MODEL 8
REMARK VINA RESULT:      -7.8     22.093     24.326
REMARK  4 active torsions:
REMARK  status: ('A' for Active; 'I' for Inactive)
REMARK    1  A    between atoms: C12_16  and  O3_3 
REMARK    2  A    between atoms: C3_7  and  C8_12 
REMARK    3  A    between atoms: C10_14  and  C8_12 
REMARK    4  A    between atoms: C11_15  and  C9_13 
ROOT
HETATM    1  O4  UNK     1      11.915   6.175   5.384  1.00  0.00    -0.288 OA
HETATM    2  C8  UNK     1      11.838   6.336   6.611  1.00  0.00     0.182 C 
ENDROOT
BRANCH   2   3
HETATM    3  C10 UNK     1      13.060   6.685   7.414  1.00  0.00     0.056 C 
HETATM    4  C11 UNK     1      13.071   7.769   8.203  1.00  0.00     0.018 C 
BRANCH   4   5
HETATM    5  C9  UNK     1      14.224   8.200   9.014  1.00  0.00    -0.003 A 
HETATM    6  C12 UNK     1      14.675   7.418  10.065  1.00  0.00     0.078 A 
HETATM    7  C14 UNK     1      15.768   7.847  10.817  1.00  0.00     0.037 A 
HETATM    8  C16 UNK     1      16.397   9.054  10.509  1.00  0.00     0.003 A 
HETATM    9  C15 UNK     1      15.932   9.831   9.448  1.00  0.00     0.001 A 
HETATM   10  C13 UNK     1      14.839   9.402   8.696  1.00  0.00     0.014 A 
BRANCH   6  11
HETATM   11  O3  UNK     1      14.079   6.235  10.388  1.00  0.00    -0.355 OA
HETATM   12  C17 UNK     1      14.848   5.050  10.196  1.00  0.00     0.210 C 
ENDBRANCH   6  11
ENDBRANCH   4   5
ENDBRANCH   2   3
BRANCH   2  13
HETATM   13  C3  UNK     1      10.573   6.164   7.307  1.00  0.00     0.017 A 
HETATM   14  C4  UNK     1      10.557   5.611   8.590  1.00  0.00     0.055 A 
HETATM   15  C1  UNK     1       9.333   5.467   9.210  1.00  0.00     0.105 A 
HETATM   16  O1  UNK     1       9.123   4.950  10.451  1.00  0.00    -0.323 OA
HETATM   17  C2  UNK     1       8.161   5.850   8.598  1.00  0.00     0.105 A 
HETATM   18  C7  UNK     1       7.687   5.051  10.552  1.00  0.00     0.352 A 
HETATM   19  O2  UNK     1       7.071   5.621   9.379  1.00  0.00    -0.323 OA
HETATM   20  C5  UNK     1       8.149   6.398   7.332  1.00  0.00     0.040 A 
HETATM   21  C6  UNK     1       9.375   6.555   6.681  1.00  0.00     0.018 A 
ENDBRANCH   2  13
TORSDOF 4
ENDMDL
MODEL 9
REMARK VINA RESULT:      -7.7      3.806      7.973
REMARK  4 active torsions:
REMARK  status: ('A' for Active; 'I' for Inactive)
REMARK    1  A    between atoms: C12_16  and  O3_3 
REMARK    2  A    between atoms: C3_7  and  C8_12 
REMARK    3  A    between atoms: C10_14  and  C8_12 
REMARK    4  A    between atoms: C11_15  and  C9_13 
ROOT
HETATM    1  O4  UNK     1      18.318   3.381  31.870  1.00  0.00    -0.288 OA
HETATM    2  C8  UNK     1      18.233   3.976  32.954  1.00  0.00     0.182 C 
ENDROOT
BRANCH   2   3
HETATM    3  C10 UNK     1      18.236   3.209  34.248  1.00  0.00     0.056 C 
HETATM    4  C11 UNK     1      18.064   1.879  34.253  1.00  0.00     0.018 C 
BRANCH   4   5
HETATM    5  C9  UNK     1      18.037   1.046  35.469  1.00  0.00    -0.003 A 
HETATM    6  C12 UNK     1      18.535  -0.247  35.446  1.00  0.00     0.078 A 
HETATM    7  C14 UNK     1      18.498  -1.016  36.608  1.00  0.00     0.037 A 
HETATM    8  C16 UNK     1      17.963  -0.482  37.781  1.00  0.00     0.003 A 
HETATM    9  C15 UNK     1      17.465   0.821  37.790  1.00  0.00     0.001 A 
HETATM   10  C13 UNK     1      17.502   1.590  36.627  1.00  0.00     0.014 A 
BRANCH   6  11
HETATM   11  O3  UNK     1      19.063  -0.794  34.313  1.00  0.00    -0.355 OA
HETATM   12  C17 UNK     1      19.769  -2.024  34.458  1.00  0.00     0.210 C 
ENDBRANCH   6  11
ENDBRANCH   4   5
ENDBRANCH   2   3
BRANCH   2  13
HETATM   13  C3  UNK     1      18.100   5.423  33.003  1.00  0.00     0.017 A 
HETATM   14  C4  UNK     1      19.015   6.179  33.740  1.00  0.00     0.055 A 
HETATM   15  C1  UNK     1      18.848   7.549  33.757  1.00  0.00     0.105 A 
HETATM   16  O1  UNK     1      19.634   8.441  34.418  1.00  0.00    -0.323 OA
HETATM   17  C2  UNK     1      17.821   8.161  33.076  1.00  0.00     0.105 A 
HETATM   18  C7  UNK     1      18.987   9.684  34.075  1.00  0.00     0.352 A 
HETATM   19  O2  UNK     1      17.836   9.514  33.224  1.00  0.00    -0.323 OA
HETATM   20  C5  UNK     1      16.904   7.438  32.341  1.00  0.00     0.040 A 
HETATM   21  C6  UNK     1      17.051   6.049  32.307  1.00  0.00     0.018 A 
ENDBRANCH   2  13
TORSDOF 4
ENDMDL
MODEL 10
REMARK VINA RESULT:      -7.7      3.912      7.380
REMARK  4 active torsions:
REMARK  status: ('A' for Active; 'I' for Inactive)
REMARK    1  A    between atoms: C12_16  and  O3_3 
REMARK    2  A    between atoms: C3_7  and  C8_12 
REMARK    3  A    between atoms: C10_14  and  C8_12 
REMARK    4  A    between atoms: C11_15  and  C9_13 
ROOT
HETATM    1  O4  UNK     1      20.376  -3.796  35.350  1.00  0.00    -0.288 OA
HETATM    2  C8  UNK     1      20.025  -2.676  34.950  1.00  0.00     0.182 C 
ENDROOT
BRANCH   2   3
HETATM    3  C10 UNK     1      20.387  -2.211  33.567  1.00  0.00     0.056 C 
HETATM    4  C11 UNK     1      19.461  -1.664  32.766  1.00  0.00     0.018 C 
BRANCH   4   5
HETATM    5  C9  UNK     1      19.716  -1.194  31.393  1.00  0.00    -0.003 A 
HETATM    6  C12 UNK     1      19.371   0.095  31.016  1.00  0.00     0.078 A 
HETATM    7  C14 UNK     1      19.624   0.517  29.712  1.00  0.00     0.037 A 
HETATM    8  C16 UNK     1      20.219  -0.355  28.799  1.00  0.00     0.003 A 
HETATM    9  C15 UNK     1      20.561  -1.649  29.192  1.00  0.00     0.001 A 
HETATM   10  C13 UNK     1      20.308  -2.071  30.496  1.00  0.00     0.014 A 
BRANCH   6  11
HETATM   11  O3  UNK     1      18.789   0.967  31.888  1.00  0.00    -0.355 OA
HETATM   12  C17 UNK     1      18.495   2.272  31.396  1.00  0.00     0.210 C 
ENDBRANCH   6  11
ENDBRANCH   4   5
ENDBRANCH   2   3
BRANCH   2  13
HETATM   13  C3  UNK     1      19.279  -1.776  35.815  1.00  0.00     0.017 A 
HETATM   14  C4  UNK     1      19.013  -0.471  35.393  1.00  0.00     0.055 A 
HETATM   15  C1  UNK     1      18.304   0.347  36.248  1.00  0.00     0.105 A 
HETATM   16  O1  UNK     1      17.955   1.641  36.010  1.00  0.00    -0.323 OA
HETATM   17  C2  UNK     1      17.868  -0.095  37.476  1.00  0.00     0.105 A 
HETATM   18  C7  UNK     1      17.249   1.964  37.226  1.00  0.00     0.352 A 
HETATM   19  O2  UNK     1      17.190   0.867  38.161  1.00  0.00    -0.323 OA
HETATM   20  C5  UNK     1      18.117  -1.378  37.917  1.00  0.00     0.040 A 
HETATM   21  C6  UNK     1      18.834  -2.227  37.070  1.00  0.00     0.018 A 
ENDBRANCH   2  13
TORSDOF 4
ENDMDL
