MODEL 1
REMARK VINA RESULT:      -8.6      0.000      0.000
REMARK  8 active torsions:
REMARK  status: ('A' for Active; 'I' for Inactive)
REMARK    1  A    between atoms: C2_8  and  O1_1 
REMARK    2  A    between atoms: C9_15  and  O1_1 
REMARK    3  A    between atoms: C5_11  and  O2_2 
REMARK    4  A    between atoms: C7_13  and  O2_2 
REMARK    5  A    between atoms: C15_21  and  O4_4 
REMARK    6  A    between atoms: C16_22  and  O4_4 
REMARK    7  A    between atoms: C1_7  and  C2_8 
REMARK    8  A    between atoms: C5_11  and  C9_15 
ROOT
HETATM    1  O3  UNK     1      18.752   3.655  34.981  1.00  0.00    -0.319 OA
HETATM    2  O6  UNK     1      17.676   2.156  31.338  1.00  0.00    -0.284 OA
HETATM    3  C6  UNK     1      18.478   3.996  32.588  1.00  0.00     0.051 A 
HETATM    4  C7  UNK     1      19.389   6.607  32.937  1.00  0.00     0.072 A 
HETATM    5  C8  UNK     1      18.831   4.448  33.863  1.00  0.00     0.092 A 
HETATM    6  C10 UNK     1      19.286   5.755  34.038  1.00  0.00     0.075 A 
HETATM    7  C11 UNK     1      18.579   4.847  31.485  1.00  0.00     0.021 A 
HETATM    8  C12 UNK     1      19.036   6.154  31.665  1.00  0.00     0.038 A 
HETATM    9  C13 UNK     1      17.999   2.611  32.427  1.00  0.00     0.220 A 
HETATM   10  C15 UNK     1      17.935   1.800  33.664  1.00  0.00     0.149 A 
HETATM   11  C19 UNK     1      18.305   2.367  34.816  1.00  0.00     0.184 A 
ENDROOT
BRANCH   4  12
HETATM   12  O2  UNK     1      19.833   7.883  33.105  1.00  0.00    -0.336 OA
BRANCH  12  13
HETATM   13  C5  UNK     1      19.439   8.555  34.300  1.00  0.00     0.224 C 
HETATM   14  C14 UNK     1      20.553   9.510  34.693  1.00  0.00     0.051 C 
BRANCH  13  15
HETATM   15  C9  UNK     1      18.143   9.296  34.036  1.00  0.00     0.288 C 
HETATM   16  O5  UNK     1      18.062  10.356  33.430  1.00  0.00    -0.262 OA
BRANCH  15  17
HETATM   17  O1  UNK     1      17.095   8.588  34.549  1.00  0.00    -0.319 OA
BRANCH  17  18
HETATM   18  C2  UNK     1      15.830   8.814  33.920  1.00  0.00     0.182 C 
BRANCH  18  19
HETATM   19  C1  UNK     1      15.533   7.685  32.928  1.00  0.00     0.002 C 
HETATM   20  C3  UNK     1      16.000   8.071  31.526  1.00  0.00     0.011 C 
HETATM   21  C4  UNK     1      14.044   7.333  32.914  1.00  0.00     0.011 C 
ENDBRANCH  18  19
ENDBRANCH  17  18
ENDBRANCH  15  17
ENDBRANCH  13  15
ENDBRANCH  12  13
ENDBRANCH   4  12
BRANCH  10  22
HETATM   22  O4  UNK     1      17.499   0.498  33.598  1.00  0.00    -0.305 OA
BRANCH  22  23
HETATM   23  C16 UNK     1      18.457  -0.477  33.562  1.00  0.00     0.077 A 
HETATM   24  C20 UNK     1      19.002  -0.864  32.341  1.00  0.00     0.044 A 
HETATM   25  C18 UNK     1      19.979  -1.859  32.304  1.00  0.00    -0.059 A 
HETATM   26  C22 UNK     1      20.406  -2.463  33.487  1.00  0.00     0.013 A 
HETATM   27  C24 UNK     1      20.568  -2.278  31.000  1.00  0.00     0.048 C 
HETATM   28  C17 UNK     1      19.856  -2.071  34.708  1.00  0.00    -0.059 A 
HETATM   29  C21 UNK     1      18.878  -1.077  34.745  1.00  0.00     0.044 A 
HETATM   30  C23 UNK     1      20.312  -2.716  35.973  1.00  0.00     0.048 C 
ENDBRANCH  22  23
ENDBRANCH  10  22
TORSDOF 8
ENDMDL
MODEL 2
REMARK VINA RESULT:      -8.4      3.211      6.506
REMARK  8 active torsions:
REMARK  status: ('A' for Active; 'I' for Inactive)
REMARK    1  A    between atoms: C2_8  and  O1_1 
REMARK    2  A    between atoms: C9_15  and  O1_1 
REMARK    3  A    between atoms: C5_11  and  O2_2 
REMARK    4  A    between atoms: C7_13  and  O2_2 
REMARK    5  A    between atoms: C15_21  and  O4_4 
REMARK    6  A    between atoms: C16_22  and  O4_4 
REMARK    7  A    between atoms: C1_7  and  C2_8 
REMARK    8  A    between atoms: C5_11  and  C9_15 
ROOT
HETATM    1  O3  UNK     1      19.929  -2.306  33.913  1.00  0.00    -0.319 OA
HETATM    2  O6  UNK     1      19.359  -2.193  37.955  1.00  0.00    -0.284 OA
HETATM    3  C6  UNK     1      18.953  -1.201  35.848  1.00  0.00     0.051 A 
HETATM    4  C7  UNK     1      17.886   0.707  34.119  1.00  0.00     0.072 A 
HETATM    5  C8  UNK     1      19.185  -1.296  34.473  1.00  0.00     0.092 A 
HETATM    6  C10 UNK     1      18.652  -0.342  33.608  1.00  0.00     0.075 A 
HETATM    7  C11 UNK     1      18.188  -0.152  36.362  1.00  0.00     0.021 A 
HETATM    8  C12 UNK     1      17.656   0.802  35.492  1.00  0.00     0.038 A 
HETATM    9  C13 UNK     1      19.527  -2.222  36.744  1.00  0.00     0.220 A 
HETATM   10  C15 UNK     1      20.319  -3.287  36.087  1.00  0.00     0.149 A 
HETATM   11  C19 UNK     1      20.457  -3.250  34.759  1.00  0.00     0.184 A 
ENDROOT
BRANCH   4  12
HETATM   12  O2  UNK     1      17.365   1.641  33.277  1.00  0.00    -0.336 OA
BRANCH  12  13
HETATM   13  C5  UNK     1      18.286   2.514  32.626  1.00  0.00     0.224 C 
HETATM   14  C14 UNK     1      18.000   2.473  31.134  1.00  0.00     0.051 C 
BRANCH  13  15
HETATM   15  C9  UNK     1      18.109   3.912  33.184  1.00  0.00     0.288 C 
HETATM   16  O5  UNK     1      18.443   4.256  34.311  1.00  0.00    -0.262 OA
BRANCH  15  17
HETATM   17  O1  UNK     1      17.551   4.719  32.235  1.00  0.00    -0.319 OA
BRANCH  17  18
HETATM   18  C2  UNK     1      18.228   5.959  32.005  1.00  0.00     0.182 C 
BRANCH  18  19
HETATM   19  C1  UNK     1      19.703   5.696  31.687  1.00  0.00     0.002 C 
HETATM   20  C3  UNK     1      20.600   6.592  32.537  1.00  0.00     0.011 C 
HETATM   21  C4  UNK     1      19.998   5.906  30.200  1.00  0.00     0.011 C 
ENDBRANCH  18  19
ENDBRANCH  17  18
ENDBRANCH  15  17
ENDBRANCH  13  15
ENDBRANCH  12  13
ENDBRANCH   4  12
BRANCH  10  22
HETATM   22  O4  UNK     1      20.887  -4.277  36.854  1.00  0.00    -0.305 OA
BRANCH  22  23
HETATM   23  C16 UNK     1      20.148  -5.411  37.053  1.00  0.00     0.077 A 
HETATM   24  C20 UNK     1      20.382  -6.199  38.176  1.00  0.00     0.044 A 
HETATM   25  C18 UNK     1      19.629  -7.355  38.379  1.00  0.00    -0.059 A 
HETATM   26  C22 UNK     1      18.646  -7.718  37.459  1.00  0.00     0.013 A 
HETATM   27  C24 UNK     1      19.874  -8.203  39.581  1.00  0.00     0.048 C 
HETATM   28  C17 UNK     1      18.415  -6.924  36.335  1.00  0.00    -0.059 A 
HETATM   29  C21 UNK     1      19.169  -5.769  36.132  1.00  0.00     0.044 A 
HETATM   30  C23 UNK     1      17.364  -7.312  35.351  1.00  0.00     0.048 C 
ENDBRANCH  22  23
ENDBRANCH  10  22
TORSDOF 8
ENDMDL
MODEL 3
REMARK VINA RESULT:      -8.3      2.437      9.847
REMARK  8 active torsions:
REMARK  status: ('A' for Active; 'I' for Inactive)
REMARK    1  A    between atoms: C2_8  and  O1_1 
REMARK    2  A    between atoms: C9_15  and  O1_1 
REMARK    3  A    between atoms: C5_11  and  O2_2 
REMARK    4  A    between atoms: C7_13  and  O2_2 
REMARK    5  A    between atoms: C15_21  and  O4_4 
REMARK    6  A    between atoms: C16_22  and  O4_4 
REMARK    7  A    between atoms: C1_7  and  C2_8 
REMARK    8  A    between atoms: C5_11  and  C9_15 
ROOT
HETATM    1  O3  UNK     1      15.941   6.569  32.923  1.00  0.00    -0.319 OA
HETATM    2  O6  UNK     1      18.845   9.040  34.383  1.00  0.00    -0.284 OA
HETATM    3  C6  UNK     1      18.292   7.184  33.026  1.00  0.00     0.051 A 
HETATM    4  C7  UNK     1      18.839   5.071  31.293  1.00  0.00     0.072 A 
HETATM    5  C8  UNK     1      17.252   6.374  32.562  1.00  0.00     0.092 A 
HETATM    6  C10 UNK     1      17.525   5.316  31.695  1.00  0.00     0.075 A 
HETATM    7  C11 UNK     1      19.608   6.939  32.626  1.00  0.00     0.021 A 
HETATM    8  C12 UNK     1      19.877   5.880  31.758  1.00  0.00     0.038 A 
HETATM    9  C13 UNK     1      17.980   8.296  33.943  1.00  0.00     0.220 A 
HETATM   10  C15 UNK     1      16.551   8.461  34.297  1.00  0.00     0.149 A 
HETATM   11  C19 UNK     1      15.664   7.609  33.775  1.00  0.00     0.184 A 
ENDROOT
BRANCH   4  12
HETATM   12  O2  UNK     1      19.109   4.039  30.447  1.00  0.00    -0.336 OA
BRANCH  12  13
HETATM   13  C5  UNK     1      18.163   2.972  30.402  1.00  0.00     0.224 C 
HETATM   14  C14 UNK     1      18.182   2.384  29.002  1.00  0.00     0.051 C 
BRANCH  13  15
HETATM   15  C9  UNK     1      18.549   1.938  31.441  1.00  0.00     0.288 C 
HETATM   16  O5  UNK     1      17.989   1.797  32.521  1.00  0.00    -0.262 OA
BRANCH  15  17
HETATM   17  O1  UNK     1      19.586   1.183  30.975  1.00  0.00    -0.319 OA
BRANCH  17  18
HETATM   18  C2  UNK     1      19.503  -0.218  31.255  1.00  0.00     0.182 C 
BRANCH  18  19
HETATM   19  C1  UNK     1      20.609  -0.965  30.504  1.00  0.00     0.002 C 
HETATM   20  C3  UNK     1      20.558  -0.634  29.013  1.00  0.00     0.011 C 
HETATM   21  C4  UNK     1      20.503  -2.477  30.715  1.00  0.00     0.011 C 
ENDBRANCH  18  19
ENDBRANCH  17  18
ENDBRANCH  15  17
ENDBRANCH  13  15
ENDBRANCH  12  13
ENDBRANCH   4  12
BRANCH  10  22
HETATM   22  O4  UNK     1      16.177   9.475  35.146  1.00  0.00    -0.305 OA
BRANCH  22  23
HETATM   23  C16 UNK     1      15.625  10.590  34.578  1.00  0.00     0.077 A 
HETATM   24  C20 UNK     1      16.366  11.766  34.504  1.00  0.00     0.044 A 
HETATM   25  C18 UNK     1      15.803  12.903  33.924  1.00  0.00    -0.059 A 
HETATM   26  C22 UNK     1      14.502  12.859  33.423  1.00  0.00     0.013 A 
HETATM   27  C24 UNK     1      16.591  14.166  33.841  1.00  0.00     0.048 C 
HETATM   28  C17 UNK     1      13.764  11.678  33.499  1.00  0.00    -0.059 A 
HETATM   29  C21 UNK     1      14.327  10.541  34.079  1.00  0.00     0.044 A 
HETATM   30  C23 UNK     1      12.374  11.630  32.963  1.00  0.00     0.048 C 
ENDBRANCH  22  23
ENDBRANCH  10  22
TORSDOF 8
ENDMDL
MODEL 4
REMARK VINA RESULT:      -8.3      3.155      6.147
REMARK  8 active torsions:
REMARK  status: ('A' for Active; 'I' for Inactive)
REMARK    1  A    between atoms: C2_8  and  O1_1 
REMARK    2  A    between atoms: C9_15  and  O1_1 
REMARK    3  A    between atoms: C5_11  and  O2_2 
REMARK    4  A    between atoms: C7_13  and  O2_2 
REMARK    5  A    between atoms: C15_21  and  O4_4 
REMARK    6  A    between atoms: C16_22  and  O4_4 
REMARK    7  A    between atoms: C1_7  and  C2_8 
REMARK    8  A    between atoms: C5_11  and  C9_15 
ROOT
HETATM    1  O3  UNK     1      18.966  -1.239  36.457  1.00  0.00    -0.319 OA
HETATM    2  O6  UNK     1      20.852  -3.677  33.779  1.00  0.00    -0.284 OA
HETATM    3  C6  UNK     1      19.571  -1.725  34.152  1.00  0.00     0.051 A 
HETATM    4  C7  UNK     1      18.211   0.586  33.392  1.00  0.00     0.072 A 
HETATM    5  C8  UNK     1      18.945  -0.932  35.119  1.00  0.00     0.092 A 
HETATM    6  C10 UNK     1      18.265   0.224  34.739  1.00  0.00     0.075 A 
HETATM    7  C11 UNK     1      19.517  -1.364  32.804  1.00  0.00     0.021 A 
HETATM    8  C12 UNK     1      18.835  -0.206  32.428  1.00  0.00     0.038 A 
HETATM    9  C13 UNK     1      20.285  -2.943  34.577  1.00  0.00     0.220 A 
HETATM   10  C15 UNK     1      20.276  -3.224  36.031  1.00  0.00     0.149 A 
HETATM   11  C19 UNK     1      19.636  -2.375  36.839  1.00  0.00     0.184 A 
ENDROOT
BRANCH   4  12
HETATM   12  O2  UNK     1      17.546   1.714  33.018  1.00  0.00    -0.336 OA
BRANCH  12  13
HETATM   13  C5  UNK     1      18.301   2.716  32.340  1.00  0.00     0.224 C 
HETATM   14  C14 UNK     1      17.807   2.788  30.905  1.00  0.00     0.051 C 
BRANCH  13  15
HETATM   15  C9  UNK     1      18.109   4.038  33.057  1.00  0.00     0.288 C 
HETATM   16  O5  UNK     1      18.418   4.245  34.223  1.00  0.00    -0.262 OA
BRANCH  15  17
HETATM   17  O1  UNK     1      17.570   4.953  32.199  1.00  0.00    -0.319 OA
BRANCH  17  18
HETATM   18  C2  UNK     1      18.352   6.132  31.984  1.00  0.00     0.182 C 
BRANCH  18  19
HETATM   19  C1  UNK     1      19.785   5.745  31.608  1.00  0.00     0.002 C 
HETATM   20  C3  UNK     1      20.788   6.534  32.447  1.00  0.00     0.011 C 
HETATM   21  C4  UNK     1      20.049   5.969  30.117  1.00  0.00     0.011 C 
ENDBRANCH  18  19
ENDBRANCH  17  18
ENDBRANCH  15  17
ENDBRANCH  13  15
ENDBRANCH  12  13
ENDBRANCH   4  12
BRANCH  10  22
HETATM   22  O4  UNK     1      20.921  -4.341  36.507  1.00  0.00    -0.305 OA
BRANCH  22  23
HETATM   23  C16 UNK     1      20.141  -5.414  36.842  1.00  0.00     0.077 A 
HETATM   24  C20 UNK     1      19.126  -5.825  35.982  1.00  0.00     0.044 A 
HETATM   25  C18 UNK     1      18.332  -6.919  36.323  1.00  0.00    -0.059 A 
HETATM   26  C22 UNK     1      18.554  -7.597  37.523  1.00  0.00     0.013 A 
HETATM   27  C24 UNK     1      17.243  -7.365  35.406  1.00  0.00     0.048 C 
HETATM   28  C17 UNK     1      19.572  -7.180  38.381  1.00  0.00    -0.059 A 
HETATM   29  C21 UNK     1      20.366  -6.086  38.039  1.00  0.00     0.044 A 
HETATM   30  C23 UNK     1      19.810  -7.904  39.662  1.00  0.00     0.048 C 
ENDBRANCH  22  23
ENDBRANCH  10  22
TORSDOF 8
ENDMDL
MODEL 5
REMARK VINA RESULT:      -8.2      3.085      5.877
REMARK  8 active torsions:
REMARK  status: ('A' for Active; 'I' for Inactive)
REMARK    1  A    between atoms: C2_8  and  O1_1 
REMARK    2  A    between atoms: C9_15  and  O1_1 
REMARK    3  A    between atoms: C5_11  and  O2_2 
REMARK    4  A    between atoms: C7_13  and  O2_2 
REMARK    5  A    between atoms: C15_21  and  O4_4 
REMARK    6  A    between atoms: C16_22  and  O4_4 
REMARK    7  A    between atoms: C1_7  and  C2_8 
REMARK    8  A    between atoms: C5_11  and  C9_15 
ROOT
HETATM    1  O3  UNK     1      19.764  -2.057  34.296  1.00  0.00    -0.319 OA
HETATM    2  O6  UNK     1      18.665  -1.699  38.212  1.00  0.00    -0.284 OA
HETATM    3  C6  UNK     1      18.561  -0.829  36.016  1.00  0.00     0.051 A 
HETATM    4  C7  UNK     1      17.769   0.985  34.054  1.00  0.00     0.072 A 
HETATM    5  C8  UNK     1      18.972  -1.008  34.693  1.00  0.00     0.092 A 
HETATM    6  C10 UNK     1      18.576  -0.101  33.710  1.00  0.00     0.075 A 
HETATM    7  C11 UNK     1      17.754   0.258  36.362  1.00  0.00     0.021 A 
HETATM    8  C12 UNK     1      17.360   1.163  35.376  1.00  0.00     0.038 A 
HETATM    9  C13 UNK     1      18.991  -1.801  37.038  1.00  0.00     0.220 A 
HETATM   10  C15 UNK     1      19.843  -2.912  36.556  1.00  0.00     0.149 A 
HETATM   11  C19 UNK     1      20.157  -2.955  35.258  1.00  0.00     0.184 A 
ENDROOT
BRANCH   4  12
HETATM   12  O2  UNK     1      17.381   1.873  33.097  1.00  0.00    -0.336 OA
BRANCH  12  13
HETATM   13  C5  UNK     1      18.389   2.728  32.560  1.00  0.00     0.224 C 
HETATM   14  C14 UNK     1      18.304   2.663  31.045  1.00  0.00     0.051 C 
BRANCH  13  15
HETATM   15  C9  UNK     1      18.150   4.137  33.066  1.00  0.00     0.288 C 
HETATM   16  O5  UNK     1      18.622   4.592  34.100  1.00  0.00    -0.262 OA
BRANCH  15  17
HETATM   17  O1  UNK     1      17.358   4.815  32.185  1.00  0.00    -0.319 OA
BRANCH  17  18
HETATM   18  C2  UNK     1      17.490   6.240  32.207  1.00  0.00     0.182 C 
BRANCH  18  19
HETATM   19  C1  UNK     1      16.173   6.877  32.660  1.00  0.00     0.002 C 
HETATM   20  C3  UNK     1      15.821   8.065  31.767  1.00  0.00     0.011 C 
HETATM   21  C4  UNK     1      16.242   7.316  34.125  1.00  0.00     0.011 C 
ENDBRANCH  18  19
ENDBRANCH  17  18
ENDBRANCH  15  17
ENDBRANCH  13  15
ENDBRANCH  12  13
ENDBRANCH   4  12
BRANCH  10  22
HETATM   22  O4  UNK     1      20.286  -3.860  37.446  1.00  0.00    -0.305 OA
BRANCH  22  23
HETATM   23  C16 UNK     1      20.149  -5.171  37.079  1.00  0.00     0.077 A 
HETATM   24  C20 UNK     1      18.960  -5.605  36.501  1.00  0.00     0.044 A 
HETATM   25  C18 UNK     1      18.820  -6.941  36.127  1.00  0.00    -0.059 A 
HETATM   26  C22 UNK     1      19.870  -7.837  36.332  1.00  0.00     0.013 A 
HETATM   27  C24 UNK     1      17.549  -7.413  35.506  1.00  0.00     0.048 C 
HETATM   28  C17 UNK     1      21.060  -7.397  36.912  1.00  0.00    -0.059 A 
HETATM   29  C21 UNK     1      21.199  -6.060  37.287  1.00  0.00     0.044 A 
HETATM   30  C23 UNK     1      22.182  -8.354  37.131  1.00  0.00     0.048 C 
ENDBRANCH  22  23
ENDBRANCH  10  22
TORSDOF 8
ENDMDL
MODEL 6
REMARK VINA RESULT:      -8.1      1.791      9.053
REMARK  8 active torsions:
REMARK  status: ('A' for Active; 'I' for Inactive)
REMARK    1  A    between atoms: C2_8  and  O1_1 
REMARK    2  A    between atoms: C9_15  and  O1_1 
REMARK    3  A    between atoms: C5_11  and  O2_2 
REMARK    4  A    between atoms: C7_13  and  O2_2 
REMARK    5  A    between atoms: C15_21  and  O4_4 
REMARK    6  A    between atoms: C16_22  and  O4_4 
REMARK    7  A    between atoms: C1_7  and  C2_8 
REMARK    8  A    between atoms: C5_11  and  C9_15 
ROOT
HETATM    1  O3  UNK     1      17.854   2.472  31.949  1.00  0.00    -0.319 OA
HETATM    2  O6  UNK     1      19.083   5.373  34.545  1.00  0.00    -0.284 OA
HETATM    3  C6  UNK     1      18.602   3.087  34.179  1.00  0.00     0.051 A 
HETATM    4  C7  UNK     1      18.376   0.407  34.909  1.00  0.00     0.072 A 
HETATM    5  C8  UNK     1      18.175   2.142  33.243  1.00  0.00     0.092 A 
HETATM    6  C10 UNK     1      18.062   0.801  33.607  1.00  0.00     0.075 A 
HETATM    7  C11 UNK     1      18.916   2.696  35.483  1.00  0.00     0.021 A 
HETATM    8  C12 UNK     1      18.801   1.352  35.843  1.00  0.00     0.038 A 
HETATM    9  C13 UNK     1      18.715   4.500  33.772  1.00  0.00     0.220 A 
HETATM   10  C15 UNK     1      18.357   4.798  32.366  1.00  0.00     0.149 A 
HETATM   11  C19 UNK     1      17.965   3.790  31.582  1.00  0.00     0.184 A 
ENDROOT
BRANCH   4  12
HETATM   12  O2  UNK     1      18.265  -0.902  35.268  1.00  0.00    -0.336 OA
BRANCH  12  13
HETATM   13  C5  UNK     1      19.368  -1.478  35.965  1.00  0.00     0.224 C 
HETATM   14  C14 UNK     1      18.859  -2.681  36.740  1.00  0.00     0.051 C 
BRANCH  13  15
HETATM   15  C9  UNK     1      20.425  -1.878  34.955  1.00  0.00     0.288 C 
HETATM   16  O5  UNK     1      21.616  -2.004  35.211  1.00  0.00    -0.262 OA
BRANCH  15  17
HETATM   17  O1  UNK     1      19.842  -2.097  33.741  1.00  0.00    -0.319 OA
BRANCH  17  18
HETATM   18  C2  UNK     1      20.744  -2.351  32.660  1.00  0.00     0.182 C 
BRANCH  18  19
HETATM   19  C1  UNK     1      20.142  -1.839  31.348  1.00  0.00     0.002 C 
HETATM   20  C3  UNK     1      20.654  -2.664  30.169  1.00  0.00     0.011 C 
HETATM   21  C4  UNK     1      20.453  -0.356  31.133  1.00  0.00     0.011 C 
ENDBRANCH  18  19
ENDBRANCH  17  18
ENDBRANCH  15  17
ENDBRANCH  13  15
ENDBRANCH  12  13
ENDBRANCH   4  12
BRANCH  10  22
HETATM   22  O4  UNK     1      18.437   6.092  31.908  1.00  0.00    -0.305 OA
BRANCH  22  23
HETATM   23  C16 UNK     1      17.474   6.963  32.335  1.00  0.00     0.077 A 
HETATM   24  C20 UNK     1      17.844   8.148  32.965  1.00  0.00     0.044 A 
HETATM   25  C18 UNK     1      16.862   9.037  33.400  1.00  0.00    -0.059 A 
HETATM   26  C22 UNK     1      15.513   8.737  33.205  1.00  0.00     0.013 A 
HETATM   27  C24 UNK     1      17.253  10.308  34.075  1.00  0.00     0.048 C 
HETATM   28  C17 UNK     1      15.147   7.549  32.573  1.00  0.00    -0.059 A 
HETATM   29  C21 UNK     1      16.130   6.660  32.138  1.00  0.00     0.044 A 
HETATM   30  C23 UNK     1      13.706   7.229  32.364  1.00  0.00     0.048 C 
ENDBRANCH  22  23
ENDBRANCH  10  22
TORSDOF 8
ENDMDL
MODEL 7
REMARK VINA RESULT:      -8.0      3.112      6.029
REMARK  8 active torsions:
REMARK  status: ('A' for Active; 'I' for Inactive)
REMARK    1  A    between atoms: C2_8  and  O1_1 
REMARK    2  A    between atoms: C9_15  and  O1_1 
REMARK    3  A    between atoms: C5_11  and  O2_2 
REMARK    4  A    between atoms: C7_13  and  O2_2 
REMARK    5  A    between atoms: C15_21  and  O4_4 
REMARK    6  A    between atoms: C16_22  and  O4_4 
REMARK    7  A    between atoms: C1_7  and  C2_8 
REMARK    8  A    between atoms: C5_11  and  C9_15 
ROOT
HETATM    1  O3  UNK     1      18.980  -1.097  36.461  1.00  0.00    -0.319 OA
HETATM    2  O6  UNK     1      20.743  -3.646  33.803  1.00  0.00    -0.284 OA
HETATM    3  C6  UNK     1      19.520  -1.653  34.156  1.00  0.00     0.051 A 
HETATM    4  C7  UNK     1      18.201   0.672  33.369  1.00  0.00     0.072 A 
HETATM    5  C8  UNK     1      18.936  -0.822  35.116  1.00  0.00     0.092 A 
HETATM    6  C10 UNK     1      18.276   0.341  34.723  1.00  0.00     0.075 A 
HETATM    7  C11 UNK     1      19.445  -1.325  32.800  1.00  0.00     0.021 A 
HETATM    8  C12 UNK     1      18.783  -0.159  32.411  1.00  0.00     0.038 A 
HETATM    9  C13 UNK     1      20.213  -2.879  34.595  1.00  0.00     0.220 A 
HETATM   10  C15 UNK     1      20.230  -3.125  36.055  1.00  0.00     0.149 A 
HETATM   11  C19 UNK     1      19.629  -2.240  36.856  1.00  0.00     0.184 A 
ENDROOT
BRANCH   4  12
HETATM   12  O2  UNK     1      17.557   1.808  32.982  1.00  0.00    -0.336 OA
BRANCH  12  13
HETATM   13  C5  UNK     1      18.338   2.805  32.326  1.00  0.00     0.224 C 
HETATM   14  C14 UNK     1      17.903   2.862  30.871  1.00  0.00     0.051 C 
BRANCH  13  15
HETATM   15  C9  UNK     1      18.114   4.132  33.022  1.00  0.00     0.288 C 
HETATM   16  O5  UNK     1      18.547   4.414  34.133  1.00  0.00    -0.262 OA
BRANCH  15  17
HETATM   17  O1  UNK     1      17.389   4.960  32.214  1.00  0.00    -0.319 OA
BRANCH  17  18
HETATM   18  C2  UNK     1      17.958   6.252  31.985  1.00  0.00     0.182 C 
BRANCH  18  19
HETATM   19  C1  UNK     1      17.076   7.330  32.622  1.00  0.00     0.002 C 
HETATM   20  C3  UNK     1      16.150   7.947  31.577  1.00  0.00     0.011 C 
HETATM   21  C4  UNK     1      17.920   8.417  33.291  1.00  0.00     0.011 C 
ENDBRANCH  18  19
ENDBRANCH  17  18
ENDBRANCH  15  17
ENDBRANCH  13  15
ENDBRANCH  12  13
ENDBRANCH   4  12
BRANCH  10  22
HETATM   22  O4  UNK     1      20.857  -4.246  36.545  1.00  0.00    -0.305 OA
BRANCH  22  23
HETATM   23  C16 UNK     1      20.058  -5.291  36.920  1.00  0.00     0.077 A 
HETATM   24  C20 UNK     1      20.395  -6.051  38.036  1.00  0.00     0.044 A 
HETATM   25  C18 UNK     1      19.581  -7.117  38.419  1.00  0.00    -0.059 A 
HETATM   26  C22 UNK     1      18.434  -7.419  37.684  1.00  0.00     0.013 A 
HETATM   27  C24 UNK     1      19.936  -7.935  39.615  1.00  0.00     0.048 C 
HETATM   28  C17 UNK     1      18.101  -6.653  36.566  1.00  0.00    -0.059 A 
HETATM   29  C21 UNK     1      18.916  -5.588  36.183  1.00  0.00     0.044 A 
HETATM   30  C23 UNK     1      16.875  -6.975  35.781  1.00  0.00     0.048 C 
ENDBRANCH  22  23
ENDBRANCH  10  22
TORSDOF 8
ENDMDL
MODEL 8
REMARK VINA RESULT:      -7.8      2.291      9.868
REMARK  8 active torsions:
REMARK  status: ('A' for Active; 'I' for Inactive)
REMARK    1  A    between atoms: C2_8  and  O1_1 
REMARK    2  A    between atoms: C9_15  and  O1_1 
REMARK    3  A    between atoms: C5_11  and  O2_2 
REMARK    4  A    between atoms: C7_13  and  O2_2 
REMARK    5  A    between atoms: C15_21  and  O4_4 
REMARK    6  A    between atoms: C16_22  and  O4_4 
REMARK    7  A    between atoms: C1_7  and  C2_8 
REMARK    8  A    between atoms: C5_11  and  C9_15 
ROOT
HETATM    1  O3  UNK     1      17.889   2.442  31.909  1.00  0.00    -0.319 OA
HETATM    2  O6  UNK     1      18.963   5.427  34.480  1.00  0.00    -0.284 OA
HETATM    3  C6  UNK     1      18.554   3.122  34.148  1.00  0.00     0.051 A 
HETATM    4  C7  UNK     1      18.379   0.451  34.924  1.00  0.00     0.072 A 
HETATM    5  C8  UNK     1      18.181   2.147  33.219  1.00  0.00     0.092 A 
HETATM    6  C10 UNK     1      18.092   0.811  33.607  1.00  0.00     0.075 A 
HETATM    7  C11 UNK     1      18.840   2.765  35.467  1.00  0.00     0.021 A 
HETATM    8  C12 UNK     1      18.751   1.426  35.852  1.00  0.00     0.038 A 
HETATM    9  C13 UNK     1      18.641   4.529  33.715  1.00  0.00     0.220 A 
HETATM   10  C15 UNK     1      18.317   4.790  32.294  1.00  0.00     0.149 A 
HETATM   11  C19 UNK     1      17.975   3.756  31.520  1.00  0.00     0.184 A 
ENDROOT
BRANCH   4  12
HETATM   12  O2  UNK     1      18.293  -0.853  35.307  1.00  0.00    -0.336 OA
BRANCH  12  13
HETATM   13  C5  UNK     1      19.013  -1.233  36.478  1.00  0.00     0.224 C 
HETATM   14  C14 UNK     1      18.006  -1.677  37.526  1.00  0.00     0.051 C 
BRANCH  13  15
HETATM   15  C9  UNK     1      19.967  -2.355  36.119  1.00  0.00     0.288 C 
HETATM   16  O5  UNK     1      20.982  -2.213  35.450  1.00  0.00    -0.262 OA
BRANCH  15  17
HETATM   17  O1  UNK     1      19.533  -3.524  36.675  1.00  0.00    -0.319 OA
BRANCH  17  18
HETATM   18  C2  UNK     1      20.537  -4.303  37.333  1.00  0.00     0.182 C 
BRANCH  18  19
HETATM   19  C1  UNK     1      20.058  -5.749  37.484  1.00  0.00     0.002 C 
HETATM   20  C3  UNK     1      20.383  -6.276  38.880  1.00  0.00     0.011 C 
HETATM   21  C4  UNK     1      20.676  -6.655  36.417  1.00  0.00     0.011 C 
ENDBRANCH  18  19
ENDBRANCH  17  18
ENDBRANCH  15  17
ENDBRANCH  13  15
ENDBRANCH  12  13
ENDBRANCH   4  12
BRANCH  10  22
HETATM   22  O4  UNK     1      18.375   6.076  31.812  1.00  0.00    -0.305 OA
BRANCH  22  23
HETATM   23  C16 UNK     1      17.427   6.952  32.262  1.00  0.00     0.077 A 
HETATM   24  C20 UNK     1      16.077   6.665  32.077  1.00  0.00     0.044 A 
HETATM   25  C18 UNK     1      15.110   7.559  32.536  1.00  0.00    -0.059 A 
HETATM   26  C22 UNK     1      15.496   8.736  33.177  1.00  0.00     0.013 A 
HETATM   27  C24 UNK     1      13.663   7.257  32.341  1.00  0.00     0.048 C 
HETATM   28  C17 UNK     1      16.850   9.019  33.361  1.00  0.00    -0.059 A 
HETATM   29  C21 UNK     1      17.817   8.125  32.901  1.00  0.00     0.044 A 
HETATM   30  C23 UNK     1      17.263  10.277  34.047  1.00  0.00     0.048 C 
ENDBRANCH  22  23
ENDBRANCH  10  22
TORSDOF 8
ENDMDL
MODEL 9
REMARK VINA RESULT:      -7.8      4.001     11.076
REMARK  8 active torsions:
REMARK  status: ('A' for Active; 'I' for Inactive)
REMARK    1  A    between atoms: C2_8  and  O1_1 
REMARK    2  A    between atoms: C9_15  and  O1_1 
REMARK    3  A    between atoms: C5_11  and  O2_2 
REMARK    4  A    between atoms: C7_13  and  O2_2 
REMARK    5  A    between atoms: C15_21  and  O4_4 
REMARK    6  A    between atoms: C16_22  and  O4_4 
REMARK    7  A    between atoms: C1_7  and  C2_8 
REMARK    8  A    between atoms: C5_11  and  C9_15 
ROOT
HETATM    1  O3  UNK     1      19.310  -0.769  33.359  1.00  0.00    -0.319 OA
HETATM    2  O6  UNK     1      17.600   1.162  36.525  1.00  0.00    -0.284 OA
HETATM    3  C6  UNK     1      18.760  -0.738  35.728  1.00  0.00     0.051 A 
HETATM    4  C7  UNK     1      19.992  -3.227  35.965  1.00  0.00     0.072 A 
HETATM    5  C8  UNK     1      19.327  -1.347  34.605  1.00  0.00     0.092 A 
HETATM    6  C10 UNK     1      19.943  -2.592  34.723  1.00  0.00     0.075 A 
HETATM    7  C11 UNK     1      18.807  -1.372  36.972  1.00  0.00     0.021 A 
HETATM    8  C12 UNK     1      19.424  -2.619  37.085  1.00  0.00     0.038 A 
HETATM    9  C13 UNK     1      18.113   0.579  35.580  1.00  0.00     0.220 A 
HETATM   10  C15 UNK     1      18.125   1.155  34.216  1.00  0.00     0.149 A 
HETATM   11  C19 UNK     1      18.706   0.458  33.236  1.00  0.00     0.184 A 
ENDROOT
BRANCH   4  12
HETATM   12  O2  UNK     1      20.592  -4.443  36.083  1.00  0.00    -0.336 OA
BRANCH  12  13
HETATM   13  C5  UNK     1      20.173  -5.270  37.167  1.00  0.00     0.224 C 
HETATM   14  C14 UNK     1      19.117  -6.231  36.647  1.00  0.00     0.051 C 
BRANCH  13  15
HETATM   15  C9  UNK     1      21.379  -6.014  37.705  1.00  0.00     0.288 C 
HETATM   16  O5  UNK     1      22.393  -5.475  38.130  1.00  0.00    -0.262 OA
BRANCH  15  17
HETATM   17  O1  UNK     1      21.146  -7.358  37.665  1.00  0.00    -0.319 OA
BRANCH  17  18
HETATM   18  C2  UNK     1      22.306  -8.181  37.507  1.00  0.00     0.182 C 
BRANCH  18  19
HETATM   19  C1  UNK     1      21.999  -9.336  36.550  1.00  0.00     0.002 C 
HETATM   20  C3  UNK     1      21.331  -8.813  35.280  1.00  0.00     0.011 C 
HETATM   21  C4  UNK     1      21.116 -10.393  37.217  1.00  0.00     0.011 C 
ENDBRANCH  18  19
ENDBRANCH  17  18
ENDBRANCH  15  17
ENDBRANCH  13  15
ENDBRANCH  12  13
ENDBRANCH   4  12
BRANCH  10  22
HETATM   22  O4  UNK     1      17.543   2.381  33.995  1.00  0.00    -0.305 OA
BRANCH  22  23
HETATM   23  C16 UNK     1      18.039   3.127  32.962  1.00  0.00     0.077 A 
HETATM   24  C20 UNK     1      18.064   2.596  31.676  1.00  0.00     0.044 A 
HETATM   25  C18 UNK     1      18.569   3.357  30.622  1.00  0.00    -0.059 A 
HETATM   26  C22 UNK     1      19.048   4.646  30.859  1.00  0.00     0.013 A 
HETATM   27  C24 UNK     1      18.597   2.794  29.241  1.00  0.00     0.048 C 
HETATM   28  C17 UNK     1      19.020   5.174  32.150  1.00  0.00    -0.059 A 
HETATM   29  C21 UNK     1      18.516   4.412  33.203  1.00  0.00     0.044 A 
HETATM   30  C23 UNK     1      19.531   6.552  32.403  1.00  0.00     0.048 C 
ENDBRANCH  22  23
ENDBRANCH  10  22
TORSDOF 8
ENDMDL
MODEL 10
REMARK VINA RESULT:      -7.8      3.306     10.387
REMARK  8 active torsions:
REMARK  status: ('A' for Active; 'I' for Inactive)
REMARK    1  A    between atoms: C2_8  and  O1_1 
REMARK    2  A    between atoms: C9_15  and  O1_1 
REMARK    3  A    between atoms: C5_11  and  O2_2 
REMARK    4  A    between atoms: C7_13  and  O2_2 
REMARK    5  A    between atoms: C15_21  and  O4_4 
REMARK    6  A    between atoms: C16_22  and  O4_4 
REMARK    7  A    between atoms: C1_7  and  C2_8 
REMARK    8  A    between atoms: C5_11  and  C9_15 
ROOT
HETATM    1  O3  UNK     1      14.963   8.393  32.978  1.00  0.00    -0.319 OA
HETATM    2  O6  UNK     1      17.612  11.180  34.352  1.00  0.00    -0.284 OA
HETATM    3  C6  UNK     1      17.238   8.961  33.625  1.00  0.00     0.051 A 
HETATM    4  C7  UNK     1      17.980   6.345  33.017  1.00  0.00     0.072 A 
HETATM    5  C8  UNK     1      16.282   8.055  33.159  1.00  0.00     0.092 A 
HETATM    6  C10 UNK     1      16.653   6.745  32.855  1.00  0.00     0.075 A 
HETATM    7  C11 UNK     1      18.566   8.562  33.790  1.00  0.00     0.021 A 
HETATM    8  C12 UNK     1      18.933   7.251  33.484  1.00  0.00     0.038 A 
HETATM    9  C13 UNK     1      16.823  10.341  33.941  1.00  0.00     0.220 A 
HETATM   10  C15 UNK     1      15.391  10.651  33.727  1.00  0.00     0.149 A 
HETATM   11  C19 UNK     1      14.591   9.681  33.274  1.00  0.00     0.184 A 
ENDROOT
BRANCH   4  12
HETATM   12  O2  UNK     1      18.345   5.067  32.722  1.00  0.00    -0.336 OA
BRANCH  12  13
HETATM   13  C5  UNK     1      18.207   4.650  31.365  1.00  0.00     0.224 C 
HETATM   14  C14 UNK     1      19.316   5.301  30.557  1.00  0.00     0.051 C 
BRANCH  13  15
HETATM   15  C9  UNK     1      18.297   3.138  31.310  1.00  0.00     0.288 C 
HETATM   16  O5  UNK     1      17.762   2.382  32.110  1.00  0.00    -0.262 OA
BRANCH  15  17
HETATM   17  O1  UNK     1      19.035   2.761  30.225  1.00  0.00    -0.319 OA
BRANCH  17  18
HETATM   18  C2  UNK     1      18.595   1.570  29.564  1.00  0.00     0.182 C 
BRANCH  18  19
HETATM   19  C1  UNK     1      19.788   0.645  29.310  1.00  0.00     0.002 C 
HETATM   20  C3  UNK     1      19.406  -0.459  28.326  1.00  0.00     0.011 C 
HETATM   21  C4  UNK     1      20.309   0.036  30.614  1.00  0.00     0.011 C 
ENDBRANCH  18  19
ENDBRANCH  17  18
ENDBRANCH  15  17
ENDBRANCH  13  15
ENDBRANCH  12  13
ENDBRANCH   4  12
BRANCH  10  22
HETATM   22  O4  UNK     1      14.924  11.915  33.997  1.00  0.00    -0.305 OA
BRANCH  22  23
HETATM   23  C16 UNK     1      13.992  12.036  34.990  1.00  0.00     0.077 A 
HETATM   24  C20 UNK     1      14.269  11.540  36.261  1.00  0.00     0.044 A 
HETATM   25  C18 UNK     1      13.318  11.662  37.274  1.00  0.00    -0.059 A 
HETATM   26  C22 UNK     1      12.095  12.280  37.012  1.00  0.00     0.013 A 
HETATM   27  C24 UNK     1      13.609  11.134  38.638  1.00  0.00     0.048 C 
HETATM   28  C17 UNK     1      11.822  12.776  35.737  1.00  0.00    -0.059 A 
HETATM   29  C21 UNK     1      12.773  12.652  34.724  1.00  0.00     0.044 A 
HETATM   30  C23 UNK     1      10.515  13.436  35.456  1.00  0.00     0.048 C 
ENDBRANCH  22  23
ENDBRANCH  10  22
TORSDOF 8
ENDMDL
