MODEL 1
REMARK VINA RESULT:      -8.5      0.000      0.000
REMARK  3 active torsions:
REMARK  status: ('A' for Active; 'I' for Inactive)
REMARK    1  A    between atoms: C16_20  and  O2_2 
REMARK    2  A    between atoms: C8_12  and  O2_2 
REMARK    3  A    between atoms: C2_6  and  C4_8 
ROOT
HETATM    1  O1  UNK     1      17.856   3.258  34.088  1.00  0.00    -0.275 OA
HETATM    2  O3  UNK     1      17.686   1.220  35.110  1.00  0.00    -0.260 OA
HETATM    3  C1  UNK     1      18.583   3.362  31.762  1.00  0.00     0.009 A 
HETATM    4  C2  UNK     1      18.697   1.895  31.744  1.00  0.00    -0.007 A 
HETATM    5  C3  UNK     1      18.167   3.996  32.931  1.00  0.00     0.093 A 
HETATM    6  C5  UNK     1      18.872   4.160  30.648  1.00  0.00     0.018 A 
HETATM    7  C6  UNK     1      18.396   1.219  32.864  1.00  0.00     0.095 A 
HETATM    8  C7  UNK     1      18.038   5.384  33.016  1.00  0.00     0.075 A 
HETATM    9  C8  UNK     1      18.332   6.162  31.900  1.00  0.00     0.081 A 
HETATM   10  C9  UNK     1      18.747   5.551  30.718  1.00  0.00     0.038 A 
HETATM   11  C12 UNK     1      17.953   1.875  34.109  1.00  0.00     0.289 A 
ENDROOT
BRANCH   4  12
HETATM   12  C4  UNK     1      19.117   1.079  30.609  1.00  0.00    -0.025 A 
HETATM   13  C10 UNK     1      20.218   0.236  30.730  1.00  0.00     0.012 A 
HETATM   14  C13 UNK     1      20.616  -0.545  29.644  1.00  0.00     0.001 A 
HETATM   15  C15 UNK     1      19.912  -0.478  28.441  1.00  0.00     0.000 A 
HETATM   16  C14 UNK     1      18.810   0.369  28.325  1.00  0.00     0.001 A 
HETATM   17  C11 UNK     1      18.412   1.149  29.410  1.00  0.00     0.012 A 
ENDBRANCH   4  12
BRANCH   9  18
HETATM   18  O2  UNK     1      18.213   7.516  31.962  1.00  0.00    -0.279 OA
BRANCH  18  19
HETATM   19  C16 UNK     1      16.906   7.989  31.755  1.00  0.00     0.260 C 
HETATM   20  O4  UNK     1      16.351   8.103  30.670  1.00  0.00    -0.265 OA
HETATM   21  C17 UNK     1      16.274   8.346  33.067  1.00  0.00     0.126 C 
ENDBRANCH  18  19
ENDBRANCH   9  18
TORSDOF 3
ENDMDL
MODEL 2
REMARK VINA RESULT:      -8.2     22.316     23.857
REMARK  3 active torsions:
REMARK  status: ('A' for Active; 'I' for Inactive)
REMARK    1  A    between atoms: C16_20  and  O2_2 
REMARK    2  A    between atoms: C8_12  and  O2_2 
REMARK    3  A    between atoms: C2_6  and  C4_8 
ROOT
HETATM    1  O1  UNK     1      16.032   6.108   9.938  1.00  0.00    -0.275 OA
HETATM    2  O3  UNK     1      15.805   3.834   9.851  1.00  0.00    -0.260 OA
HETATM    3  C1  UNK     1      14.265   7.513   9.014  1.00  0.00     0.009 A 
HETATM    4  C2  UNK     1      13.513   6.304   8.645  1.00  0.00    -0.007 A 
HETATM    5  C3  UNK     1      15.499   7.378   9.648  1.00  0.00     0.093 A 
HETATM    6  C5  UNK     1      13.795   8.807   8.759  1.00  0.00     0.018 A 
HETATM    7  C6  UNK     1      14.049   5.107   8.933  1.00  0.00     0.095 A 
HETATM    8  C7  UNK     1      16.263   8.483  10.025  1.00  0.00     0.075 A 
HETATM    9  C8  UNK     1      15.783   9.762   9.762  1.00  0.00     0.081 A 
HETATM   10  C9  UNK     1      14.550   9.924   9.131  1.00  0.00     0.038 A 
HETATM   11  C12 UNK     1      15.352   4.947   9.605  1.00  0.00     0.289 A 
ENDROOT
BRANCH   4  12
HETATM   12  C4  UNK     1      12.214   6.268   7.978  1.00  0.00    -0.025 A 
HETATM   13  C10 UNK     1      12.144   6.339   6.590  1.00  0.00     0.012 A 
HETATM   14  C13 UNK     1      10.902   6.304   5.955  1.00  0.00     0.001 A 
HETATM   15  C15 UNK     1       9.735   6.198   6.712  1.00  0.00     0.000 A 
HETATM   16  C14 UNK     1       9.810   6.128   8.103  1.00  0.00     0.001 A 
HETATM   17  C11 UNK     1      11.051   6.164   8.737  1.00  0.00     0.012 A 
ENDBRANCH   4  12
BRANCH   9  18
HETATM   18  O2  UNK     1      16.513  10.853  10.120  1.00  0.00    -0.279 OA
BRANCH  18  19
HETATM   19  C16 UNK     1      17.707  11.009   9.396  1.00  0.00     0.260 C 
HETATM   20  O4  UNK     1      18.825  10.696   9.785  1.00  0.00    -0.265 OA
HETATM   21  C17 UNK     1      17.421  11.625   8.060  1.00  0.00     0.126 C 
ENDBRANCH  18  19
ENDBRANCH   9  18
TORSDOF 3
ENDMDL
MODEL 3
REMARK VINA RESULT:      -8.2     22.324     23.854
REMARK  3 active torsions:
REMARK  status: ('A' for Active; 'I' for Inactive)
REMARK    1  A    between atoms: C16_20  and  O2_2 
REMARK    2  A    between atoms: C8_12  and  O2_2 
REMARK    3  A    between atoms: C2_6  and  C4_8 
ROOT
HETATM    1  O1  UNK     1      16.042   6.120   9.930  1.00  0.00    -0.275 OA
HETATM    2  O3  UNK     1      15.820   3.846   9.840  1.00  0.00    -0.260 OA
HETATM    3  C1  UNK     1      14.269   7.522   9.014  1.00  0.00     0.009 A 
HETATM    4  C2  UNK     1      13.518   6.312   8.646  1.00  0.00    -0.007 A 
HETATM    5  C3  UNK     1      15.506   7.389   9.643  1.00  0.00     0.093 A 
HETATM    6  C5  UNK     1      13.795   8.816   8.763  1.00  0.00     0.018 A 
HETATM    7  C6  UNK     1      14.058   5.116   8.931  1.00  0.00     0.095 A 
HETATM    8  C7  UNK     1      16.269   8.495  10.018  1.00  0.00     0.075 A 
HETATM    9  C8  UNK     1      15.785   9.774   9.759  1.00  0.00     0.081 A 
HETATM   10  C9  UNK     1      14.549   9.934   9.133  1.00  0.00     0.038 A 
HETATM   11  C12 UNK     1      15.363   4.958   9.597  1.00  0.00     0.289 A 
ENDROOT
BRANCH   4  12
HETATM   12  C4  UNK     1      12.216   6.275   7.985  1.00  0.00    -0.025 A 
HETATM   13  C10 UNK     1      11.054   6.187   8.745  1.00  0.00     0.012 A 
HETATM   14  C13 UNK     1       9.811   6.153   8.112  1.00  0.00     0.001 A 
HETATM   15  C15 UNK     1       9.737   6.207   6.720  1.00  0.00     0.000 A 
HETATM   16  C14 UNK     1      10.904   6.295   5.962  1.00  0.00     0.001 A 
HETATM   17  C11 UNK     1      12.146   6.328   6.595  1.00  0.00     0.012 A 
ENDBRANCH   4  12
BRANCH   9  18
HETATM   18  O2  UNK     1      16.514  10.865  10.116  1.00  0.00    -0.279 OA
BRANCH  18  19
HETATM   19  C16 UNK     1      17.710  11.019   9.395  1.00  0.00     0.260 C 
HETATM   20  O4  UNK     1      18.827  10.710   9.790  1.00  0.00    -0.265 OA
HETATM   21  C17 UNK     1      17.428  11.627   8.054  1.00  0.00     0.126 C 
ENDBRANCH  18  19
ENDBRANCH   9  18
TORSDOF 3
ENDMDL
MODEL 4
REMARK VINA RESULT:      -8.0      2.555      4.962
REMARK  3 active torsions:
REMARK  status: ('A' for Active; 'I' for Inactive)
REMARK    1  A    between atoms: C16_20  and  O2_2 
REMARK    2  A    between atoms: C8_12  and  O2_2 
REMARK    3  A    between atoms: C2_6  and  C4_8 
ROOT
HETATM    1  O1  UNK     1      19.435  -0.059  30.986  1.00  0.00    -0.275 OA
HETATM    2  O3  UNK     1      19.719  -2.221  31.674  1.00  0.00    -0.260 OA
HETATM    3  C1  UNK     1      18.426   1.551  32.516  1.00  0.00     0.009 A 
HETATM    4  C2  UNK     1      18.301   0.492  33.530  1.00  0.00    -0.007 A 
HETATM    5  C3  UNK     1      18.987   1.243  31.278  1.00  0.00     0.093 A 
HETATM    6  C5  UNK     1      18.004   2.868  32.739  1.00  0.00     0.018 A 
HETATM    7  C6  UNK     1      18.736  -0.740  33.220  1.00  0.00     0.095 A 
HETATM    8  C7  UNK     1      19.134   2.200  30.273  1.00  0.00     0.075 A 
HETATM    9  C8  UNK     1      18.708   3.504  30.509  1.00  0.00     0.081 A 
HETATM   10  C9  UNK     1      18.145   3.838  31.740  1.00  0.00     0.038 A 
HETATM   11  C12 UNK     1      19.334  -1.082  31.916  1.00  0.00     0.289 A 
ENDROOT
BRANCH   4  12
HETATM   12  C4  UNK     1      17.739   0.644  34.869  1.00  0.00    -0.025 A 
HETATM   13  C10 UNK     1      18.544   1.088  35.914  1.00  0.00     0.012 A 
HETATM   14  C13 UNK     1      18.005   1.235  37.192  1.00  0.00     0.001 A 
HETATM   15  C15 UNK     1      16.661   0.935  37.420  1.00  0.00     0.000 A 
HETATM   16  C14 UNK     1      15.858   0.490  36.370  1.00  0.00     0.001 A 
HETATM   17  C11 UNK     1      16.398   0.343  35.093  1.00  0.00     0.012 A 
ENDBRANCH   4  12
BRANCH   9  18
HETATM   18  O2  UNK     1      18.841   4.451  29.542  1.00  0.00    -0.279 OA
BRANCH  18  19
HETATM   19  C16 UNK     1      19.100   5.742  30.033  1.00  0.00     0.260 C 
HETATM   20  O4  UNK     1      18.275   6.639  30.154  1.00  0.00    -0.265 OA
HETATM   21  C17 UNK     1      20.549   5.876  30.391  1.00  0.00     0.126 C 
ENDBRANCH  18  19
ENDBRANCH   9  18
TORSDOF 3
ENDMDL
MODEL 5
REMARK VINA RESULT:      -8.0     21.942     24.051
REMARK  3 active torsions:
REMARK  status: ('A' for Active; 'I' for Inactive)
REMARK    1  A    between atoms: C16_20  and  O2_2 
REMARK    2  A    between atoms: C8_12  and  O2_2 
REMARK    3  A    between atoms: C2_6  and  C4_8 
ROOT
HETATM    1  O1  UNK     1      13.877   4.643   9.180  1.00  0.00    -0.275 OA
HETATM    2  O3  UNK     1      16.069   4.196   9.649  1.00  0.00    -0.260 OA
HETATM    3  C1  UNK     1      13.081   6.945   9.307  1.00  0.00     0.009 A 
HETATM    4  C2  UNK     1      14.433   7.379   9.694  1.00  0.00    -0.007 A 
HETATM    5  C3  UNK     1      12.846   5.594   9.062  1.00  0.00     0.093 A 
HETATM    6  C5  UNK     1      12.009   7.836   9.168  1.00  0.00     0.018 A 
HETATM    7  C6  UNK     1      15.394   6.448   9.799  1.00  0.00     0.095 A 
HETATM    8  C7  UNK     1      11.588   5.116   8.692  1.00  0.00     0.075 A 
HETATM    9  C8  UNK     1      10.532   6.014   8.561  1.00  0.00     0.081 A 
HETATM   10  C9  UNK     1      10.742   7.372   8.797  1.00  0.00     0.038 A 
HETATM   11  C12 UNK     1      15.162   5.015   9.542  1.00  0.00     0.289 A 
ENDROOT
BRANCH   4  12
HETATM   12  C4  UNK     1      14.847   8.749   9.985  1.00  0.00    -0.025 A 
HETATM   13  C10 UNK     1      14.680   9.266  11.267  1.00  0.00     0.012 A 
HETATM   14  C13 UNK     1      15.078  10.575  11.543  1.00  0.00     0.001 A 
HETATM   15  C15 UNK     1      15.640  11.360  10.537  1.00  0.00     0.000 A 
HETATM   16  C14 UNK     1      15.804  10.838   9.254  1.00  0.00     0.001 A 
HETATM   17  C11 UNK     1      15.406   9.530   8.978  1.00  0.00     0.012 A 
ENDBRANCH   4  12
BRANCH   9  18
HETATM   18  O2  UNK     1       9.298   5.568   8.201  1.00  0.00    -0.279 OA
BRANCH  18  19
HETATM   19  C16 UNK     1       8.695   6.311   7.173  1.00  0.00     0.260 C 
HETATM   20  O4  UNK     1       7.692   7.004   7.286  1.00  0.00    -0.265 OA
HETATM   21  C17 UNK     1       9.458   6.134   5.895  1.00  0.00     0.126 C 
ENDBRANCH  18  19
ENDBRANCH   9  18
TORSDOF 3
ENDMDL
MODEL 6
REMARK VINA RESULT:      -7.9     15.753     17.963
REMARK  3 active torsions:
REMARK  status: ('A' for Active; 'I' for Inactive)
REMARK    1  A    between atoms: C16_20  and  O2_2 
REMARK    2  A    between atoms: C8_12  and  O2_2 
REMARK    3  A    between atoms: C2_6  and  C4_8 
ROOT
HETATM    1  O1  UNK     1      30.848  -4.447  39.010  1.00  0.00    -0.275 OA
HETATM    2  O3  UNK     1      28.930  -3.498  39.814  1.00  0.00    -0.260 OA
HETATM    3  C1  UNK     1      30.780  -6.738  38.175  1.00  0.00     0.009 A 
HETATM    4  C2  UNK     1      29.344  -6.798  38.490  1.00  0.00    -0.007 A 
HETATM    5  C3  UNK     1      31.486  -5.567  38.444  1.00  0.00     0.093 A 
HETATM    6  C5  UNK     1      31.478  -7.812  37.609  1.00  0.00     0.018 A 
HETATM    7  C6  UNK     1      28.765  -5.714  39.031  1.00  0.00     0.095 A 
HETATM    8  C7  UNK     1      32.849  -5.444  38.170  1.00  0.00     0.075 A 
HETATM    9  C8  UNK     1      33.528  -6.522  37.609  1.00  0.00     0.081 A 
HETATM   10  C9  UNK     1      32.844  -7.704  37.328  1.00  0.00     0.038 A 
HETATM   11  C12 UNK     1      29.498  -4.467  39.320  1.00  0.00     0.289 A 
ENDROOT
BRANCH   4  12
HETATM   12  C4  UNK     1      28.462  -7.941  38.274  1.00  0.00    -0.025 A 
HETATM   13  C10 UNK     1      28.032  -8.252  36.987  1.00  0.00     0.012 A 
HETATM   14  C13 UNK     1      27.190  -9.346  36.782  1.00  0.00     0.001 A 
HETATM   15  C15 UNK     1      26.783 -10.125  37.865  1.00  0.00     0.000 A 
HETATM   16  C14 UNK     1      27.216  -9.809  39.153  1.00  0.00     0.001 A 
HETATM   17  C11 UNK     1      28.057  -8.715  39.358  1.00  0.00     0.012 A 
ENDBRANCH   4  12
BRANCH   9  18
HETATM   18  O2  UNK     1      34.857  -6.422  37.335  1.00  0.00    -0.279 OA
BRANCH  18  19
HETATM   19  C16 UNK     1      35.145  -5.867  36.077  1.00  0.00     0.260 C 
HETATM   20  O4  UNK     1      34.893  -4.721  35.727  1.00  0.00    -0.265 OA
HETATM   21  C17 UNK     1      35.812  -6.888  35.204  1.00  0.00     0.126 C 
ENDBRANCH  18  19
ENDBRANCH   9  18
TORSDOF 3
ENDMDL
MODEL 7
REMARK VINA RESULT:      -7.8      2.731      6.915
REMARK  3 active torsions:
REMARK  status: ('A' for Active; 'I' for Inactive)
REMARK    1  A    between atoms: C16_20  and  O2_2 
REMARK    2  A    between atoms: C8_12  and  O2_2 
REMARK    3  A    between atoms: C2_6  and  C4_8 
ROOT
HETATM    1  O1  UNK     1      18.368   1.631  31.326  1.00  0.00    -0.275 OA
HETATM    2  O3  UNK     1      18.302   2.667  29.289  1.00  0.00    -0.260 OA
HETATM    3  C1  UNK     1      18.395   2.992  33.350  1.00  0.00     0.009 A 
HETATM    4  C2  UNK     1      18.354   4.206  32.520  1.00  0.00    -0.007 A 
HETATM    5  C3  UNK     1      18.401   1.744  32.728  1.00  0.00     0.093 A 
HETATM    6  C5  UNK     1      18.426   3.030  34.750  1.00  0.00     0.018 A 
HETATM    7  C6  UNK     1      18.326   4.064  31.185  1.00  0.00     0.095 A 
HETATM    8  C7  UNK     1      18.439   0.554  33.457  1.00  0.00     0.075 A 
HETATM    9  C8  UNK     1      18.472   0.610  34.846  1.00  0.00     0.081 A 
HETATM   10  C9  UNK     1      18.465   1.845  35.492  1.00  0.00     0.038 A 
HETATM   11  C12 UNK     1      18.330   2.752  30.512  1.00  0.00     0.289 A 
ENDROOT
BRANCH   4  12
HETATM   12  C4  UNK     1      18.344   5.582  33.008  1.00  0.00    -0.025 A 
HETATM   13  C10 UNK     1      17.139   6.268  33.126  1.00  0.00     0.012 A 
HETATM   14  C13 UNK     1      17.131   7.582  33.595  1.00  0.00     0.001 A 
HETATM   15  C15 UNK     1      18.330   8.206  33.942  1.00  0.00     0.000 A 
HETATM   16  C14 UNK     1      19.535   7.515  33.821  1.00  0.00     0.001 A 
HETATM   17  C11 UNK     1      19.543   6.201  33.353  1.00  0.00     0.012 A 
ENDBRANCH   4  12
BRANCH   9  18
HETATM   18  O2  UNK     1      18.511  -0.539  35.574  1.00  0.00    -0.279 OA
BRANCH  18  19
HETATM   19  C16 UNK     1      17.465  -0.667  36.504  1.00  0.00     0.260 C 
HETATM   20  O4  UNK     1      16.293  -0.375  36.305  1.00  0.00    -0.265 OA
HETATM   21  C17 UNK     1      17.990  -1.216  37.797  1.00  0.00     0.126 C 
ENDBRANCH  18  19
ENDBRANCH   9  18
TORSDOF 3
ENDMDL
MODEL 8
REMARK VINA RESULT:      -7.8     15.806     17.375
REMARK  3 active torsions:
REMARK  status: ('A' for Active; 'I' for Inactive)
REMARK    1  A    between atoms: C16_20  and  O2_2 
REMARK    2  A    between atoms: C8_12  and  O2_2 
REMARK    3  A    between atoms: C2_6  and  C4_8 
ROOT
HETATM    1  O1  UNK     1      28.675  -5.385  39.451  1.00  0.00    -0.275 OA
HETATM    2  O3  UNK     1      29.420  -3.300  40.023  1.00  0.00    -0.260 OA
HETATM    3  C1  UNK     1      30.018  -6.753  37.943  1.00  0.00     0.009 A 
HETATM    4  C2  UNK     1      31.012  -5.672  37.866  1.00  0.00    -0.007 A 
HETATM    5  C3  UNK     1      28.882  -6.576  38.731  1.00  0.00     0.093 A 
HETATM    6  C5  UNK     1      30.160  -7.966  37.257  1.00  0.00     0.018 A 
HETATM    7  C6  UNK     1      30.785  -4.547  38.562  1.00  0.00     0.095 A 
HETATM    8  C7  UNK     1      27.900  -7.562  38.848  1.00  0.00     0.075 A 
HETATM    9  C8  UNK     1      28.056  -8.760  38.159  1.00  0.00     0.081 A 
HETATM   10  C9  UNK     1      29.184  -8.963  37.365  1.00  0.00     0.038 A 
HETATM   11  C12 UNK     1      29.590  -4.344  39.402  1.00  0.00     0.289 A 
ENDROOT
BRANCH   4  12
HETATM   12  C4  UNK     1      32.249  -5.694  37.090  1.00  0.00    -0.025 A 
HETATM   13  C10 UNK     1      32.244  -5.270  35.764  1.00  0.00     0.012 A 
HETATM   14  C13 UNK     1      33.428  -5.290  35.025  1.00  0.00     0.001 A 
HETATM   15  C15 UNK     1      34.611  -5.736  35.615  1.00  0.00     0.000 A 
HETATM   16  C14 UNK     1      34.610  -6.161  36.943  1.00  0.00     0.001 A 
HETATM   17  C11 UNK     1      33.427  -6.141  37.682  1.00  0.00     0.012 A 
ENDBRANCH   4  12
BRANCH   9  18
HETATM   18  O2  UNK     1      27.110  -9.733  38.259  1.00  0.00    -0.279 OA
BRANCH  18  19
HETATM   19  C16 UNK     1      26.040  -9.589  37.360  1.00  0.00     0.260 C 
HETATM   20  O4  UNK     1      25.258  -8.648  37.324  1.00  0.00    -0.265 OA
HETATM   21  C17 UNK     1      25.982 -10.769  36.436  1.00  0.00     0.126 C 
ENDBRANCH  18  19
ENDBRANCH   9  18
TORSDOF 3
ENDMDL
MODEL 9
REMARK VINA RESULT:      -7.8      3.107      6.749
REMARK  3 active torsions:
REMARK  status: ('A' for Active; 'I' for Inactive)
REMARK    1  A    between atoms: C16_20  and  O2_2 
REMARK    2  A    between atoms: C8_12  and  O2_2 
REMARK    3  A    between atoms: C2_6  and  C4_8 
ROOT
HETATM    1  O1  UNK     1      19.217  -0.341  30.761  1.00  0.00    -0.275 OA
HETATM    2  O3  UNK     1      19.660   0.102  28.563  1.00  0.00    -0.260 OA
HETATM    3  C1  UNK     1      18.618   1.500  32.246  1.00  0.00     0.009 A 
HETATM    4  C2  UNK     1      18.744   2.436  31.118  1.00  0.00    -0.007 A 
HETATM    5  C3  UNK     1      18.858   0.144  32.033  1.00  0.00     0.093 A 
HETATM    6  C5  UNK     1      18.261   1.911  33.536  1.00  0.00     0.018 A 
HETATM    7  C6  UNK     1      19.091   1.943  29.917  1.00  0.00     0.095 A 
HETATM    8  C7  UNK     1      18.755  -0.797  33.060  1.00  0.00     0.075 A 
HETATM    9  C8  UNK     1      18.402  -0.372  34.337  1.00  0.00     0.081 A 
HETATM   10  C9  UNK     1      18.155   0.979  34.575  1.00  0.00     0.038 A 
HETATM   11  C12 UNK     1      19.346   0.511  29.675  1.00  0.00     0.289 A 
ENDROOT
BRANCH   4  12
HETATM   12  C4  UNK     1      18.530   3.879  31.169  1.00  0.00    -0.025 A 
HETATM   13  C10 UNK     1      17.734   4.427  32.170  1.00  0.00     0.012 A 
HETATM   14  C13 UNK     1      17.532   5.807  32.218  1.00  0.00     0.001 A 
HETATM   15  C15 UNK     1      18.127   6.633  31.264  1.00  0.00     0.000 A 
HETATM   16  C14 UNK     1      18.924   6.079  30.263  1.00  0.00     0.001 A 
HETATM   17  C11 UNK     1      19.125   4.700  30.215  1.00  0.00     0.012 A 
ENDBRANCH   4  12
BRANCH   9  18
HETATM   18  O2  UNK     1      18.298  -1.273  35.351  1.00  0.00    -0.279 OA
BRANCH  18  19
HETATM   19  C16 UNK     1      19.530  -1.773  35.806  1.00  0.00     0.260 C 
HETATM   20  O4  UNK     1      20.623  -1.255  35.620  1.00  0.00    -0.265 OA
HETATM   21  C17 UNK     1      19.319  -3.051  36.560  1.00  0.00     0.126 C 
ENDBRANCH  18  19
ENDBRANCH   9  18
TORSDOF 3
ENDMDL
MODEL 10
REMARK VINA RESULT:      -7.6      4.507      6.439
REMARK  3 active torsions:
REMARK  status: ('A' for Active; 'I' for Inactive)
REMARK    1  A    between atoms: C16_20  and  O2_2 
REMARK    2  A    between atoms: C8_12  and  O2_2 
REMARK    3  A    between atoms: C2_6  and  C4_8 
ROOT
HETATM    1  O1  UNK     1      14.379   8.635  33.037  1.00  0.00    -0.275 OA
HETATM    2  O3  UNK     1      13.448   6.834  31.981  1.00  0.00    -0.260 OA
HETATM    3  C1  UNK     1      16.807   8.855  33.090  1.00  0.00     0.009 A 
HETATM    4  C2  UNK     1      16.926   7.602  32.329  1.00  0.00    -0.007 A 
HETATM    5  C3  UNK     1      15.540   9.332  33.420  1.00  0.00     0.093 A 
HETATM    6  C5  UNK     1      17.919   9.602  33.501  1.00  0.00     0.018 A 
HETATM    7  C6  UNK     1      15.800   6.959  31.981  1.00  0.00     0.095 A 
HETATM    8  C7  UNK     1      15.357  10.514  34.140  1.00  0.00     0.075 A 
HETATM    9  C8  UNK     1      16.472  11.243  34.543  1.00  0.00     0.081 A 
HETATM   10  C9  UNK     1      17.751  10.788  34.223  1.00  0.00     0.038 A 
HETATM   11  C12 UNK     1      14.452   7.451  32.320  1.00  0.00     0.289 A 
ENDROOT
BRANCH   4  12
HETATM   12  C4  UNK     1      18.171   6.967  31.906  1.00  0.00    -0.025 A 
HETATM   13  C10 UNK     1      18.319   6.539  30.590  1.00  0.00     0.012 A 
HETATM   14  C13 UNK     1      19.510   5.934  30.187  1.00  0.00     0.001 A 
HETATM   15  C15 UNK     1      20.548   5.758  31.103  1.00  0.00     0.000 A 
HETATM   16  C14 UNK     1      20.394   6.188  32.421  1.00  0.00     0.001 A 
HETATM   17  C11 UNK     1      19.204   6.792  32.823  1.00  0.00     0.012 A 
ENDBRANCH   4  12
BRANCH   9  18
HETATM   18  O2  UNK     1      16.315  12.397  35.246  1.00  0.00    -0.279 OA
BRANCH  18  19
HETATM   19  C16 UNK     1      15.774  13.457  34.499  1.00  0.00     0.260 C 
HETATM   20  O4  UNK     1      16.236  13.906  33.458  1.00  0.00    -0.265 OA
HETATM   21  C17 UNK     1      14.534  13.975  35.165  1.00  0.00     0.126 C 
ENDBRANCH  18  19
ENDBRANCH   9  18
TORSDOF 3
ENDMDL
