MODEL 1
REMARK VINA RESULT:      -7.7      0.000      0.000
REMARK  2 active torsions:
REMARK  status: ('A' for Active; 'I' for Inactive)
REMARK    1  A    between atoms: C5_10  and  N1_4 
REMARK       I    between atoms: C6_11  and  N2_5 
REMARK    2  A    between atoms: C6_11  and  C8_13 
ROOT
HETATM    1  O2  UNK     1      10.691   5.529   9.327  1.00  0.00    -0.274 OA
HETATM    2  O3  UNK     1      12.269   5.137  10.933  1.00  0.00    -0.259 OA
HETATM    3  C8  UNK     1      13.061   5.857   8.819  1.00  0.00     0.108 A 
HETATM    4  C9  UNK     1      12.769   6.229   7.568  1.00  0.00     0.037 A 
HETATM    5  C10 UNK     1      12.004   5.478   9.785  1.00  0.00     0.304 A 
HETATM    6  C11 UNK     1      11.386   6.273   7.119  1.00  0.00    -0.001 A 
HETATM    7  C12 UNK     1      10.378   5.921   8.011  1.00  0.00     0.089 A 
HETATM    8  C13 UNK     1      11.035   6.655   5.822  1.00  0.00     0.014 A 
HETATM    9  C14 UNK     1       9.034   5.942   7.645  1.00  0.00     0.038 A 
HETATM   10  C15 UNK     1       9.691   6.681   5.440  1.00  0.00     0.001 A 
HETATM   11  C16 UNK     1       8.692   6.325   6.349  1.00  0.00     0.003 A 
ENDROOT
BRANCH   3  12
HETATM   12  C6  UNK     1      14.493   5.846   9.179  1.00  0.00     0.260 C 
HETATM   13  O1  UNK     1      15.152   4.852   8.866  1.00  0.00    -0.267 OA
HETATM   14  N2  UNK     1      15.000   6.953   9.856  1.00  0.00    -0.344 N 
HETATM   15  C3  UNK     1      16.414   6.969  10.233  1.00  0.00     0.156 C 
HETATM   16  C4  UNK     1      14.219   8.087  10.364  1.00  0.00     0.156 C 
HETATM   17  C1  UNK     1      17.062   8.322   9.951  1.00  0.00     0.292 C 
HETATM   18  N1  UNK     1      16.306   9.400  10.601  1.00  0.00     0.091 N 
HETATM   19  C2  UNK     1      14.924   9.420  10.103  1.00  0.00     0.292 C 
BRANCH  18  20
HETATM   20  C5  UNK     1      16.953  10.692  10.373  1.00  0.00     0.268 C 
HETATM   21  C7  UNK     1      17.343  10.867   8.919  1.00  0.00     0.037 C 
ENDBRANCH  18  20
ENDBRANCH   3  12
TORSDOF 2
ENDMDL
MODEL 2
REMARK VINA RESULT:      -7.6      1.752      2.198
REMARK  2 active torsions:
REMARK  status: ('A' for Active; 'I' for Inactive)
REMARK    1  A    between atoms: C5_10  and  N1_4 
REMARK       I    between atoms: C6_11  and  N2_5 
REMARK    2  A    between atoms: C6_11  and  C8_13 
ROOT
HETATM    1  O2  UNK     1      11.276   7.548   9.634  1.00  0.00    -0.274 OA
HETATM    2  O3  UNK     1      12.778   8.230  11.214  1.00  0.00    -0.259 OA
HETATM    3  C8  UNK     1      13.665   7.589   9.113  1.00  0.00     0.108 A 
HETATM    4  C9  UNK     1      13.430   7.141   7.874  1.00  0.00     0.037 A 
HETATM    5  C10 UNK     1      12.566   7.819  10.079  1.00  0.00     0.304 A 
HETATM    6  C11 UNK     1      12.069   6.867   7.439  1.00  0.00    -0.001 A 
HETATM    7  C12 UNK     1      11.022   7.077   8.331  1.00  0.00     0.089 A 
HETATM    8  C13 UNK     1      11.778   6.398   6.156  1.00  0.00     0.014 A 
HETATM    9  C14 UNK     1       9.697   6.834   7.978  1.00  0.00     0.038 A 
HETATM   10  C15 UNK     1      10.453   6.149   5.786  1.00  0.00     0.001 A 
HETATM   11  C16 UNK     1       9.415   6.366   6.695  1.00  0.00     0.003 A 
ENDROOT
BRANCH   3  12
HETATM   12  C6  UNK     1      15.078   7.839   9.459  1.00  0.00     0.260 C 
HETATM   13  O1  UNK     1      15.754   6.876   9.828  1.00  0.00    -0.267 OA
HETATM   14  N2  UNK     1      15.550   9.146   9.353  1.00  0.00    -0.344 N 
HETATM   15  C3  UNK     1      16.945   9.427   9.697  1.00  0.00     0.156 C 
HETATM   16  C4  UNK     1      14.744  10.334   9.051  1.00  0.00     0.156 C 
HETATM   17  C1  UNK     1      17.603  10.360   8.683  1.00  0.00     0.292 C 
HETATM   18  N1  UNK     1      16.814  11.589   8.528  1.00  0.00     0.091 N 
HETATM   19  C2  UNK     1      15.457  11.265   8.068  1.00  0.00     0.292 C 
BRANCH  18  20
HETATM   20  C5  UNK     1      17.468  12.505   7.594  1.00  0.00     0.268 C 
HETATM   21  C7  UNK     1      18.781  11.939   7.089  1.00  0.00     0.037 C 
ENDBRANCH  18  20
ENDBRANCH   3  12
TORSDOF 2
ENDMDL
MODEL 3
REMARK VINA RESULT:      -7.6     25.343     27.414
REMARK  2 active torsions:
REMARK  status: ('A' for Active; 'I' for Inactive)
REMARK    1  A    between atoms: C5_10  and  N1_4 
REMARK       I    between atoms: C6_11  and  N2_5 
REMARK    2  A    between atoms: C6_11  and  C8_13 
ROOT
HETATM    1  O2  UNK     1      18.801   1.228  31.697  1.00  0.00    -0.274 OA
HETATM    2  O3  UNK     1      17.734   1.867  33.613  1.00  0.00    -0.259 OA
HETATM    3  C8  UNK     1      18.368  -0.410  33.461  1.00  0.00     0.108 A 
HETATM    4  C9  UNK     1      18.948  -1.378  32.741  1.00  0.00     0.037 A 
HETATM    5  C10 UNK     1      18.264   0.978  32.956  1.00  0.00     0.304 A 
HETATM    6  C11 UNK     1      19.500  -1.085  31.428  1.00  0.00    -0.001 A 
HETATM    7  C12 UNK     1      19.413   0.214  30.936  1.00  0.00     0.089 A 
HETATM    8  C13 UNK     1      20.114  -2.064  30.642  1.00  0.00     0.014 A 
HETATM    9  C14 UNK     1      19.921   0.560  29.686  1.00  0.00     0.038 A 
HETATM   10  C15 UNK     1      20.629  -1.731  29.386  1.00  0.00     0.001 A 
HETATM   11  C16 UNK     1      20.533  -0.422  28.909  1.00  0.00     0.003 A 
ENDROOT
BRANCH   3  12
HETATM   12  C6  UNK     1      17.839  -0.807  34.781  1.00  0.00     0.260 C 
HETATM   13  O1  UNK     1      16.641  -0.615  34.996  1.00  0.00    -0.267 OA
HETATM   14  N2  UNK     1      18.731  -1.361  35.696  1.00  0.00    -0.344 N 
HETATM   15  C3  UNK     1      18.240  -1.757  37.017  1.00  0.00     0.156 C 
HETATM   16  C4  UNK     1      20.185  -1.476  35.526  1.00  0.00     0.156 C 
HETATM   17  C1  UNK     1      18.791  -3.115  37.445  1.00  0.00     0.292 C 
HETATM   18  N1  UNK     1      20.258  -3.117  37.379  1.00  0.00     0.091 N 
HETATM   19  C2  UNK     1      20.704  -2.832  36.009  1.00  0.00     0.292 C 
BRANCH  18  20
HETATM   20  C5  UNK     1      20.790  -4.402  37.835  1.00  0.00     0.268 C 
HETATM   21  C7  UNK     1      20.394  -5.529  36.903  1.00  0.00     0.037 C 
ENDBRANCH  18  20
ENDBRANCH   3  12
TORSDOF 2
ENDMDL
MODEL 4
REMARK VINA RESULT:      -7.6     22.128     24.450
REMARK  2 active torsions:
REMARK  status: ('A' for Active; 'I' for Inactive)
REMARK    1  A    between atoms: C5_10  and  N1_4 
REMARK       I    between atoms: C6_11  and  N2_5 
REMARK    2  A    between atoms: C6_11  and  C8_13 
ROOT
HETATM    1  O2  UNK     1      20.219   6.713  32.679  1.00  0.00    -0.274 OA
HETATM    2  O3  UNK     1      21.217   5.671  30.908  1.00  0.00    -0.259 OA
HETATM    3  C8  UNK     1      18.894   5.297  31.189  1.00  0.00     0.108 A 
HETATM    4  C9  UNK     1      17.786   5.540  31.899  1.00  0.00     0.037 A 
HETATM    5  C10 UNK     1      20.200   5.890  31.558  1.00  0.00     0.304 A 
HETATM    6  C11 UNK     1      17.839   6.405  33.067  1.00  0.00    -0.001 A 
HETATM    7  C12 UNK     1      19.056   6.973  33.431  1.00  0.00     0.089 A 
HETATM    8  C13 UNK     1      16.707   6.686  33.838  1.00  0.00     0.014 A 
HETATM    9  C14 UNK     1      19.174   7.810  34.537  1.00  0.00     0.038 A 
HETATM   10  C15 UNK     1      16.810   7.524  34.952  1.00  0.00     0.001 A 
HETATM   11  C16 UNK     1      18.041   8.085  35.301  1.00  0.00     0.003 A 
ENDROOT
BRANCH   3  12
HETATM   12  C6  UNK     1      18.739   4.408  30.021  1.00  0.00     0.260 C 
HETATM   13  O1  UNK     1      18.710   4.930  28.906  1.00  0.00    -0.267 OA
HETATM   14  N2  UNK     1      18.626   3.039  30.260  1.00  0.00    -0.344 N 
HETATM   15  C3  UNK     1      18.463   2.131  29.123  1.00  0.00     0.156 C 
HETATM   16  C4  UNK     1      18.517   2.397  31.575  1.00  0.00     0.156 C 
HETATM   17  C1  UNK     1      19.336   0.887  29.260  1.00  0.00     0.292 C 
HETATM   18  N1  UNK     1      19.080   0.218  30.542  1.00  0.00     0.091 N 
HETATM   19  C2  UNK     1      19.371   1.129  31.656  1.00  0.00     0.292 C 
BRANCH  18  20
HETATM   20  C5  UNK     1      19.881  -1.002  30.654  1.00  0.00     0.268 C 
HETATM   21  C7  UNK     1      20.532  -1.360  29.334  1.00  0.00     0.037 C 
ENDBRANCH  18  20
ENDBRANCH   3  12
TORSDOF 2
ENDMDL
MODEL 5
REMARK VINA RESULT:      -7.6     29.624     31.695
REMARK  2 active torsions:
REMARK  status: ('A' for Active; 'I' for Inactive)
REMARK    1  A    between atoms: C5_10  and  N1_4 
REMARK       I    between atoms: C6_11  and  N2_5 
REMARK    2  A    between atoms: C6_11  and  C8_13 
ROOT
HETATM    1  O2  UNK     1      19.012  -6.920  37.873  1.00  0.00    -0.274 OA
HETATM    2  O3  UNK     1      17.763  -5.682  36.415  1.00  0.00    -0.259 OA
HETATM    3  C8  UNK     1      20.016  -5.014  36.715  1.00  0.00     0.108 A 
HETATM    4  C9  UNK     1      21.189  -5.229  37.322  1.00  0.00     0.037 A 
HETATM    5  C10 UNK     1      18.838  -5.876  36.970  1.00  0.00     0.304 A 
HETATM    6  C11 UNK     1      21.338  -6.330  38.261  1.00  0.00    -0.001 A 
HETATM    7  C12 UNK     1      20.244  -7.151  38.515  1.00  0.00     0.089 A 
HETATM    8  C13 UNK     1      22.544  -6.591  38.918  1.00  0.00     0.014 A 
HETATM    9  C14 UNK     1      20.320  -8.222  39.402  1.00  0.00     0.038 A 
HETATM   10  C15 UNK     1      22.636  -7.662  39.812  1.00  0.00     0.001 A 
HETATM   11  C16 UNK     1      21.527  -8.476  40.053  1.00  0.00     0.003 A 
ENDROOT
BRANCH   3  12
HETATM   12  C6  UNK     1      19.965  -3.873  35.780  1.00  0.00     0.260 C 
HETATM   13  O1  UNK     1      20.364  -4.061  34.629  1.00  0.00    -0.267 OA
HETATM   14  N2  UNK     1      19.478  -2.661  36.263  1.00  0.00    -0.344 N 
HETATM   15  C3  UNK     1      19.422  -1.508  35.362  1.00  0.00     0.156 C 
HETATM   16  C4  UNK     1      19.125  -2.364  37.657  1.00  0.00     0.156 C 
HETATM   17  C1  UNK     1      18.109  -0.741  35.502  1.00  0.00     0.292 C 
HETATM   18  N1  UNK     1      17.884  -0.359  36.902  1.00  0.00     0.091 N 
HETATM   19  C2  UNK     1      17.829  -1.556  37.751  1.00  0.00     0.292 C 
BRANCH  18  20
HETATM   20  C5  UNK     1      16.651   0.418  37.030  1.00  0.00     0.268 C 
HETATM   21  C7  UNK     1      15.796   0.311  35.784  1.00  0.00     0.037 C 
ENDBRANCH  18  20
ENDBRANCH   3  12
TORSDOF 2
ENDMDL
MODEL 6
REMARK VINA RESULT:      -7.6      1.233      2.032
REMARK  2 active torsions:
REMARK  status: ('A' for Active; 'I' for Inactive)
REMARK    1  A    between atoms: C5_10  and  N1_4 
REMARK       I    between atoms: C6_11  and  N2_5 
REMARK    2  A    between atoms: C6_11  and  C8_13 
ROOT
HETATM    1  O2  UNK     1      11.720   6.724   6.450  1.00  0.00    -0.274 OA
HETATM    2  O3  UNK     1      13.991   6.960   6.354  1.00  0.00    -0.259 OA
HETATM    3  C8  UNK     1      13.094   6.123   8.382  1.00  0.00     0.108 A 
HETATM    4  C9  UNK     1      12.008   5.768   9.077  1.00  0.00     0.037 A 
HETATM    5  C10 UNK     1      12.998   6.634   6.994  1.00  0.00     0.304 A 
HETATM    6  C11 UNK     1      10.686   5.874   8.479  1.00  0.00    -0.001 A 
HETATM    7  C12 UNK     1      10.574   6.351   7.176  1.00  0.00     0.089 A 
HETATM    8  C13 UNK     1       9.525   5.515   9.168  1.00  0.00     0.014 A 
HETATM    9  C14 UNK     1       9.338   6.477   6.546  1.00  0.00     0.038 A 
HETATM   10  C15 UNK     1       8.278   5.636   8.548  1.00  0.00     0.001 A 
HETATM   11  C16 UNK     1       8.185   6.116   7.240  1.00  0.00     0.003 A 
ENDROOT
BRANCH   3  12
HETATM   12  C6  UNK     1      14.389   5.978   9.075  1.00  0.00     0.260 C 
HETATM   13  O1  UNK     1      14.912   4.862   9.080  1.00  0.00    -0.267 OA
HETATM   14  N2  UNK     1      14.929   7.109   9.684  1.00  0.00    -0.344 N 
HETATM   15  C3  UNK     1      16.208   6.996  10.386  1.00  0.00     0.156 C 
HETATM   16  C4  UNK     1      14.273   8.416   9.816  1.00  0.00     0.156 C 
HETATM   17  C1  UNK     1      17.133   8.170  10.074  1.00  0.00     0.292 C 
HETATM   18  N1  UNK     1      16.460   9.444  10.356  1.00  0.00     0.091 N 
HETATM   19  C2  UNK     1      15.244   9.566   9.541  1.00  0.00     0.292 C 
BRANCH  18  20
HETATM   20  C5  UNK     1      17.362  10.568  10.104  1.00  0.00     0.268 C 
HETATM   21  C7  UNK     1      17.464  10.876   8.624  1.00  0.00     0.037 C 
ENDBRANCH  18  20
ENDBRANCH   3  12
TORSDOF 2
ENDMDL
MODEL 7
REMARK VINA RESULT:      -7.5     22.031     23.869
REMARK  2 active torsions:
REMARK  status: ('A' for Active; 'I' for Inactive)
REMARK    1  A    between atoms: C5_10  and  N1_4 
REMARK       I    between atoms: C6_11  and  N2_5 
REMARK    2  A    between atoms: C6_11  and  C8_13 
ROOT
HETATM    1  O2  UNK     1      18.648   0.545  32.132  1.00  0.00    -0.274 OA
HETATM    2  O3  UNK     1      17.640   2.576  32.417  1.00  0.00    -0.259 OA
HETATM    3  C8  UNK     1      18.817   2.250  30.386  1.00  0.00     0.108 A 
HETATM    4  C9  UNK     1      19.553   1.434  29.624  1.00  0.00     0.037 A 
HETATM    5  C10 UNK     1      18.316   1.830  31.716  1.00  0.00     0.304 A 
HETATM    6  C11 UNK     1      19.883   0.095  30.087  1.00  0.00    -0.001 A 
HETATM    7  C12 UNK     1      19.422  -0.319  31.333  1.00  0.00     0.089 A 
HETATM    8  C13 UNK     1      20.649  -0.790  29.324  1.00  0.00     0.014 A 
HETATM    9  C14 UNK     1      19.702  -1.587  31.835  1.00  0.00     0.038 A 
HETATM   10  C15 UNK     1      20.939  -2.067  29.815  1.00  0.00     0.001 A 
HETATM   11  C16 UNK     1      20.467  -2.464  31.067  1.00  0.00     0.003 A 
ENDROOT
BRANCH   3  12
HETATM   12  C6  UNK     1      18.535   3.587  29.828  1.00  0.00     0.260 C 
HETATM   13  O1  UNK     1      17.985   3.641  28.727  1.00  0.00    -0.267 OA
HETATM   14  N2  UNK     1      18.917   4.696  30.579  1.00  0.00    -0.344 N 
HETATM   15  C3  UNK     1      18.658   6.036  30.050  1.00  0.00     0.156 C 
HETATM   16  C4  UNK     1      19.694   4.671  31.825  1.00  0.00     0.156 C 
HETATM   17  C1  UNK     1      18.110   6.975  31.122  1.00  0.00     0.292 C 
HETATM   18  N1  UNK     1      19.005   7.005  32.285  1.00  0.00     0.091 N 
HETATM   19  C2  UNK     1      19.140   5.658  32.855  1.00  0.00     0.292 C 
BRANCH  18  20
HETATM   20  C5  UNK     1      18.506   7.941  33.293  1.00  0.00     0.268 C 
HETATM   21  C7  UNK     1      19.594   8.337  34.270  1.00  0.00     0.037 C 
ENDBRANCH  18  20
ENDBRANCH   3  12
TORSDOF 2
ENDMDL
MODEL 8
REMARK VINA RESULT:      -7.5      2.127      6.665
REMARK  2 active torsions:
REMARK  status: ('A' for Active; 'I' for Inactive)
REMARK    1  A    between atoms: C5_10  and  N1_4 
REMARK       I    between atoms: C6_11  and  N2_5 
REMARK    2  A    between atoms: C6_11  and  C8_13 
ROOT
HETATM    1  O2  UNK     1      14.269  10.097  11.375  1.00  0.00    -0.274 OA
HETATM    2  O3  UNK     1      12.690   8.447  11.440  1.00  0.00    -0.259 OA
HETATM    3  C8  UNK     1      14.680   7.966  10.247  1.00  0.00     0.108 A 
HETATM    4  C9  UNK     1      15.882   8.386   9.835  1.00  0.00     0.037 A 
HETATM    5  C10 UNK     1      13.792   8.829  11.060  1.00  0.00     0.304 A 
HETATM    6  C11 UNK     1      16.352   9.719  10.180  1.00  0.00    -0.001 A 
HETATM    7  C12 UNK     1      15.533  10.544  10.944  1.00  0.00     0.089 A 
HETATM    8  C13 UNK     1      17.599  10.198   9.771  1.00  0.00     0.014 A 
HETATM    9  C14 UNK     1      15.924  11.831  11.309  1.00  0.00     0.038 A 
HETATM   10  C15 UNK     1      18.005  11.487  10.129  1.00  0.00     0.001 A 
HETATM   11  C16 UNK     1      17.169  12.301  10.897  1.00  0.00     0.003 A 
ENDROOT
BRANCH   3  12
HETATM   12  C6  UNK     1      14.293   6.599   9.846  1.00  0.00     0.260 C 
HETATM   13  O1  UNK     1      14.629   5.672  10.585  1.00  0.00    -0.267 OA
HETATM   14  N2  UNK     1      13.584   6.450   8.656  1.00  0.00    -0.344 N 
HETATM   15  C3  UNK     1      13.192   5.106   8.227  1.00  0.00     0.156 C 
HETATM   16  C4  UNK     1      13.288   7.511   7.686  1.00  0.00     0.156 C 
HETATM   17  C1  UNK     1      11.755   5.070   7.713  1.00  0.00     0.292 C 
HETATM   18  N1  UNK     1      11.564   6.066   6.651  1.00  0.00     0.091 N 
HETATM   19  C2  UNK     1      11.854   7.413   7.161  1.00  0.00     0.292 C 
BRANCH  18  20
HETATM   20  C5  UNK     1      10.200   5.999   6.124  1.00  0.00     0.268 C 
HETATM   21  C7  UNK     1       9.172   6.195   7.220  1.00  0.00     0.037 C 
ENDBRANCH  18  20
ENDBRANCH   3  12
TORSDOF 2
ENDMDL
MODEL 9
REMARK VINA RESULT:      -7.3      3.475      5.658
REMARK  2 active torsions:
REMARK  status: ('A' for Active; 'I' for Inactive)
REMARK    1  A    between atoms: C5_10  and  N1_4 
REMARK       I    between atoms: C6_11  and  N2_5 
REMARK    2  A    between atoms: C6_11  and  C8_13 
ROOT
HETATM    1  O2  UNK     1       6.476   5.346   9.894  1.00  0.00    -0.274 OA
HETATM    2  O3  UNK     1       7.450   4.151   8.207  1.00  0.00    -0.259 OA
HETATM    3  C8  UNK     1       8.255   6.352   8.551  1.00  0.00     0.108 A 
HETATM    4  C9  UNK     1       8.177   7.489   9.252  1.00  0.00     0.037 A 
HETATM    5  C10 UNK     1       7.381   5.194   8.848  1.00  0.00     0.304 A 
HETATM    6  C11 UNK     1       7.220   7.616  10.340  1.00  0.00    -0.001 A 
HETATM    7  C12 UNK     1       6.390   6.539  10.636  1.00  0.00     0.089 A 
HETATM    8  C13 UNK     1       7.105   8.784  11.099  1.00  0.00     0.014 A 
HETATM    9  C14 UNK     1       5.453   6.596  11.665  1.00  0.00     0.038 A 
HETATM   10  C15 UNK     1       6.168   8.856  12.134  1.00  0.00     0.001 A 
HETATM   11  C16 UNK     1       5.344   7.765  12.417  1.00  0.00     0.003 A 
ENDROOT
BRANCH   3  12
HETATM   12  C6  UNK     1       9.257   6.321   7.468  1.00  0.00     0.260 C 
HETATM   13  O1  UNK     1       8.905   6.709   6.353  1.00  0.00    -0.267 OA
HETATM   14  N2  UNK     1      10.530   5.847   7.777  1.00  0.00    -0.344 N 
HETATM   15  C3  UNK     1      11.545   5.796   6.723  1.00  0.00     0.156 C 
HETATM   16  C4  UNK     1      10.945   5.250   9.053  1.00  0.00     0.156 C 
HETATM   17  C1  UNK     1      12.900   6.301   7.213  1.00  0.00     0.292 C 
HETATM   18  N1  UNK     1      13.317   5.569   8.416  1.00  0.00     0.091 N 
HETATM   19  C2  UNK     1      12.326   5.746   9.486  1.00  0.00     0.292 C 
BRANCH  18  20
HETATM   20  C5  UNK     1      14.637   6.018   8.859  1.00  0.00     0.268 C 
HETATM   21  C7  UNK     1      15.258   5.039   9.835  1.00  0.00     0.037 C 
ENDBRANCH  18  20
ENDBRANCH   3  12
TORSDOF 2
ENDMDL
MODEL 10
REMARK VINA RESULT:      -7.3      2.122      6.753
REMARK  2 active torsions:
REMARK  status: ('A' for Active; 'I' for Inactive)
REMARK    1  A    between atoms: C5_10  and  N1_4 
REMARK       I    between atoms: C6_11  and  N2_5 
REMARK    2  A    between atoms: C6_11  and  C8_13 
ROOT
HETATM    1  O2  UNK     1      17.278   9.038   9.708  1.00  0.00    -0.274 OA
HETATM    2  O3  UNK     1      16.444   7.220  10.811  1.00  0.00    -0.259 OA
HETATM    3  C8  UNK     1      14.874   8.589   9.682  1.00  0.00     0.108 A 
HETATM    4  C9  UNK     1      14.653   9.672   8.927  1.00  0.00     0.037 A 
HETATM    5  C10 UNK     1      16.238   8.211  10.121  1.00  0.00     0.304 A 
HETATM    6  C11 UNK     1      15.763  10.516   8.513  1.00  0.00    -0.001 A 
HETATM    7  C12 UNK     1      17.052  10.179   8.914  1.00  0.00     0.089 A 
HETATM    8  C13 UNK     1      15.578  11.656   7.725  1.00  0.00     0.014 A 
HETATM    9  C14 UNK     1      18.157  10.944   8.551  1.00  0.00     0.038 A 
HETATM   10  C15 UNK     1      16.678  12.434   7.353  1.00  0.00     0.001 A 
HETATM   11  C16 UNK     1      17.965  12.079   7.765  1.00  0.00     0.003 A 
ENDROOT
BRANCH   3  12
HETATM   12  C6  UNK     1      13.685   7.797  10.050  1.00  0.00     0.260 C 
HETATM   13  O1  UNK     1      13.280   7.881  11.211  1.00  0.00    -0.267 OA
HETATM   14  N2  UNK     1      13.106   7.000   9.064  1.00  0.00    -0.344 N 
HETATM   15  C3  UNK     1      11.929   6.197   9.400  1.00  0.00     0.156 C 
HETATM   16  C4  UNK     1      13.639   6.769   7.716  1.00  0.00     0.156 C 
HETATM   17  C1  UNK     1      10.863   6.267   8.310  1.00  0.00     0.292 C 
HETATM   18  N1  UNK     1      11.433   5.893   7.009  1.00  0.00     0.091 N 
HETATM   19  C2  UNK     1      12.533   6.801   6.659  1.00  0.00     0.292 C 
BRANCH  18  20
HETATM   20  C5  UNK     1      10.401   5.913   5.972  1.00  0.00     0.268 C 
HETATM   21  C7  UNK     1       9.037   6.223   6.553  1.00  0.00     0.037 C 
ENDBRANCH  18  20
ENDBRANCH   3  12
TORSDOF 2
ENDMDL
