MODEL 1
REMARK VINA RESULT:      -9.0      0.000      0.000
REMARK  6 active torsions:
REMARK  status: ('A' for Active; 'I' for Inactive)
REMARK    1  A    between atoms: C1_7  and  O1_4 
REMARK    2  A    between atoms: C4_10  and  O1_4 
REMARK    3  A    between atoms: C3_9  and  O2_5 
REMARK    4  A    between atoms: C2_8  and  C9_15 
REMARK    5  A    between atoms: C4_10  and  C8_14 
REMARK    6  A    between atoms: C10_16  and  C11_17 
ROOT
HETATM    1  N1  UNK     1      17.967   2.448  33.556  1.00  0.00    -0.191 NA
HETATM    2  C9  UNK     1      18.705   4.389  30.803  1.00  0.00     0.036 C 
HETATM    3  C10 UNK     1      18.556   3.071  31.102  1.00  0.00     0.055 C 
HETATM    4  C23 UNK     1      18.230   2.735  32.463  1.00  0.00     0.100 C 
ENDROOT
BRANCH   3   5
HETATM    5  C11 UNK     1      18.700   2.000  30.128  1.00  0.00    -0.014 A 
HETATM    6  C16 UNK     1      19.624   0.977  30.346  1.00  0.00     0.036 A 
HETATM    7  C19 UNK     1      19.762  -0.049  29.412  1.00  0.00     0.034 A 
HETATM    8 Cl2  UNK     1      20.900  -1.311  29.681  1.00  0.00    -0.084 Cl
HETATM    9  C21 UNK     1      18.975  -0.054  28.260  1.00  0.00     0.024 A 
HETATM   10  C20 UNK     1      18.051   0.967  28.042  1.00  0.00     0.003 A 
HETATM   11  C17 UNK     1      17.913   1.995  28.976  1.00  0.00     0.013 A 
ENDBRANCH   3   5
BRANCH   2  12
HETATM   12  C2  UNK     1      18.562   5.504  31.751  1.00  0.00    -0.015 A 
HETATM   13  C5  UNK     1      17.280   5.794  32.199  1.00  0.00     0.052 A 
HETATM   14  C3  UNK     1      17.086   6.842  33.099  1.00  0.00     0.102 A 
HETATM   15  C1  UNK     1      18.176   7.589  33.546  1.00  0.00     0.103 A 
HETATM   16  C7  UNK     1      19.460   7.289  33.091  1.00  0.00     0.059 A 
HETATM   17  C6  UNK     1      19.654   6.242  32.189  1.00  0.00     0.024 A 
HETATM   18 Br1  UNK     1      21.429   5.886  31.611  1.00  0.00    -0.050 Br
BRANCH  14  19
HETATM   19  O2  UNK     1      15.827   7.125  33.537  1.00  0.00    -0.353 OA
HETATM   20  C22 UNK     1      14.855   7.453  32.548  1.00  0.00     0.210 C 
ENDBRANCH  14  19
BRANCH  15  21
HETATM   21  O1  UNK     1      17.998   8.614  34.425  1.00  0.00    -0.344 OA
BRANCH  21  22
HETATM   22  C4  UNK     1      18.717   9.819  34.168  1.00  0.00     0.214 C 
BRANCH  22  23
HETATM   23  C8  UNK     1      17.746  10.961  34.096  1.00  0.00    -0.034 A 
HETATM   24  C12 UNK     1      16.380  10.706  34.116  1.00  0.00     0.011 A 
HETATM   25  C14 UNK     1      15.478  11.768  34.048  1.00  0.00     0.024 A 
HETATM   26  C18 UNK     1      15.948  13.078  33.959  1.00  0.00     0.034 A 
HETATM   27  C15 UNK     1      17.321  13.326  33.939  1.00  0.00     0.024 A 
HETATM   28 Cl1  UNK     1      14.835  14.388  33.873  1.00  0.00    -0.084 Cl
HETATM   29  C13 UNK     1      18.222  12.264  34.007  1.00  0.00     0.011 A 
ENDBRANCH  22  23
ENDBRANCH  21  22
ENDBRANCH  15  21
ENDBRANCH   2  12
TORSDOF 6
ENDMDL
MODEL 2
REMARK VINA RESULT:      -8.6     18.330     19.953
REMARK  6 active torsions:
REMARK  status: ('A' for Active; 'I' for Inactive)
REMARK    1  A    between atoms: C1_7  and  O1_4 
REMARK    2  A    between atoms: C4_10  and  O1_4 
REMARK    3  A    between atoms: C3_9  and  O2_5 
REMARK    4  A    between atoms: C2_8  and  C9_15 
REMARK    5  A    between atoms: C4_10  and  C8_14 
REMARK    6  A    between atoms: C10_16  and  C11_17 
ROOT
HETATM    1  N1  UNK     1      27.367 -10.466  39.715  1.00  0.00    -0.191 NA
HETATM    2  C9  UNK     1      27.429  -8.835  36.677  1.00  0.00     0.036 C 
HETATM    3  C10 UNK     1      26.645  -9.737  37.326  1.00  0.00     0.055 C 
HETATM    4  C23 UNK     1      27.052 -10.135  38.648  1.00  0.00     0.100 C 
ENDROOT
BRANCH   3   5
HETATM    5  C11 UNK     1      25.429 -10.304  36.763  1.00  0.00    -0.014 A 
HETATM    6  C16 UNK     1      24.279  -9.522  36.655  1.00  0.00     0.036 A 
HETATM    7  C19 UNK     1      23.114 -10.066  36.116  1.00  0.00     0.034 A 
HETATM    8 Cl2  UNK     1      21.695  -9.102  35.979  1.00  0.00    -0.084 Cl
HETATM    9  C21 UNK     1      23.098 -11.392  35.684  1.00  0.00     0.024 A 
HETATM   10  C20 UNK     1      24.248 -12.175  35.792  1.00  0.00     0.003 A 
HETATM   11  C17 UNK     1      25.414 -11.631  36.332  1.00  0.00     0.013 A 
ENDBRANCH   3   5
BRANCH   2  12
HETATM   12  C2  UNK     1      28.660  -8.231  37.208  1.00  0.00    -0.015 A 
HETATM   13  C5  UNK     1      29.861  -8.844  36.873  1.00  0.00     0.052 A 
HETATM   14  C3  UNK     1      31.060  -8.314  37.350  1.00  0.00     0.102 A 
HETATM   15  C1  UNK     1      31.048  -7.176  38.156  1.00  0.00     0.103 A 
HETATM   16  C7  UNK     1      29.837  -6.568  38.486  1.00  0.00     0.059 A 
HETATM   17  C6  UNK     1      28.638  -7.098  38.010  1.00  0.00     0.024 A 
HETATM   18 Br1  UNK     1      27.024  -6.220  38.497  1.00  0.00    -0.050 Br
BRANCH  14  19
HETATM   19  O2  UNK     1      32.237  -8.916  37.020  1.00  0.00    -0.353 OA
HETATM   20  C22 UNK     1      32.562  -8.989  35.634  1.00  0.00     0.210 C 
ENDBRANCH  14  19
BRANCH  15  21
HETATM   21  O1  UNK     1      32.213  -6.650  38.627  1.00  0.00    -0.344 OA
BRANCH  21  22
HETATM   22  C4  UNK     1      32.586  -5.363  38.138  1.00  0.00     0.214 C 
BRANCH  22  23
HETATM   23  C8  UNK     1      33.339  -5.528  36.850  1.00  0.00    -0.034 A 
HETATM   24  C12 UNK     1      34.618  -6.073  36.866  1.00  0.00     0.011 A 
HETATM   25  C14 UNK     1      35.318  -6.226  35.669  1.00  0.00     0.024 A 
HETATM   26  C18 UNK     1      34.734  -5.832  34.464  1.00  0.00     0.034 A 
HETATM   27  C15 UNK     1      33.451  -5.286  34.457  1.00  0.00     0.024 A 
HETATM   28 Cl1  UNK     1      35.599  -6.019  32.987  1.00  0.00    -0.084 Cl
HETATM   29  C13 UNK     1      32.751  -5.133  35.654  1.00  0.00     0.011 A 
ENDBRANCH  22  23
ENDBRANCH  21  22
ENDBRANCH  15  21
ENDBRANCH   2  12
TORSDOF 6
ENDMDL
MODEL 3
REMARK VINA RESULT:      -8.6      6.282      8.020
REMARK  6 active torsions:
REMARK  status: ('A' for Active; 'I' for Inactive)
REMARK    1  A    between atoms: C1_7  and  O1_4 
REMARK    2  A    between atoms: C4_10  and  O1_4 
REMARK    3  A    between atoms: C3_9  and  O2_5 
REMARK    4  A    between atoms: C2_8  and  C9_15 
REMARK    5  A    between atoms: C4_10  and  C8_14 
REMARK    6  A    between atoms: C10_16  and  C11_17 
ROOT
HETATM    1  N1  UNK     1      21.961  -1.707  35.350  1.00  0.00    -0.191 NA
HETATM    2  C9  UNK     1      18.626  -2.312  35.989  1.00  0.00     0.036 C 
HETATM    3  C10 UNK     1      19.823  -2.930  36.180  1.00  0.00     0.055 C 
HETATM    4  C23 UNK     1      21.001  -2.246  35.718  1.00  0.00     0.100 C 
ENDROOT
BRANCH   3   5
HETATM    5  C11 UNK     1      19.969  -4.225  36.827  1.00  0.00    -0.014 A 
HETATM    6  C16 UNK     1      21.120  -4.512  37.561  1.00  0.00     0.036 A 
HETATM    7  C19 UNK     1      21.260  -5.754  38.181  1.00  0.00     0.034 A 
HETATM    8 Cl2  UNK     1      22.679  -6.109  39.088  1.00  0.00    -0.084 Cl
HETATM    9  C21 UNK     1      20.249  -6.708  38.068  1.00  0.00     0.024 A 
HETATM   10  C20 UNK     1      19.098  -6.421  37.334  1.00  0.00     0.003 A 
HETATM   11  C17 UNK     1      18.957  -5.179  36.714  1.00  0.00     0.013 A 
ENDBRANCH   3   5
BRANCH   2  12
HETATM   12  C2  UNK     1      18.432  -1.003  35.348  1.00  0.00    -0.015 A 
HETATM   13  C5  UNK     1      18.644  -0.932  33.977  1.00  0.00     0.052 A 
HETATM   14  C3  UNK     1      18.475   0.284  33.316  1.00  0.00     0.102 A 
HETATM   15  C1  UNK     1      18.093   1.420  34.032  1.00  0.00     0.103 A 
HETATM   16  C7  UNK     1      17.882   1.338  35.408  1.00  0.00     0.059 A 
HETATM   17  C6  UNK     1      18.053   0.121  36.069  1.00  0.00     0.024 A 
HETATM   18 Br1  UNK     1      17.748   0.079  37.944  1.00  0.00    -0.050 Br
BRANCH  14  19
HETATM   19  O2  UNK     1      18.683   0.352  31.971  1.00  0.00    -0.353 OA
HETATM   20  C22 UNK     1      19.626  -0.560  31.414  1.00  0.00     0.210 C 
ENDBRANCH  14  19
BRANCH  15  21
HETATM   21  O1  UNK     1      17.924   2.613  33.397  1.00  0.00    -0.344 OA
BRANCH  21  22
HETATM   22  C4  UNK     1      18.562   3.750  33.976  1.00  0.00     0.214 C 
BRANCH  22  23
HETATM   23  C8  UNK     1      17.919   4.996  33.441  1.00  0.00    -0.034 A 
HETATM   24  C12 UNK     1      17.354   5.912  34.322  1.00  0.00     0.011 A 
HETATM   25  C14 UNK     1      16.756   7.070  33.824  1.00  0.00     0.024 A 
HETATM   26  C18 UNK     1      16.727   7.304  32.450  1.00  0.00     0.034 A 
HETATM   27  C15 UNK     1      17.296   6.381  31.573  1.00  0.00     0.024 A 
HETATM   28 Cl1  UNK     1      15.987   8.733  31.836  1.00  0.00    -0.084 Cl
HETATM   29  C13 UNK     1      17.893   5.223  32.070  1.00  0.00     0.011 A 
ENDBRANCH  22  23
ENDBRANCH  21  22
ENDBRANCH  15  21
ENDBRANCH   2  12
TORSDOF 6
ENDMDL
MODEL 4
REMARK VINA RESULT:      -8.3      7.772     10.233
REMARK  6 active torsions:
REMARK  status: ('A' for Active; 'I' for Inactive)
REMARK    1  A    between atoms: C1_7  and  O1_4 
REMARK    2  A    between atoms: C4_10  and  O1_4 
REMARK    3  A    between atoms: C3_9  and  O2_5 
REMARK    4  A    between atoms: C2_8  and  C9_15 
REMARK    5  A    between atoms: C4_10  and  C8_14 
REMARK    6  A    between atoms: C10_16  and  C11_17 
ROOT
HETATM    1  N1  UNK     1      17.630  -5.392  36.291  1.00  0.00    -0.191 NA
HETATM    2  C9  UNK     1      20.534  -3.590  36.752  1.00  0.00     0.036 C 
HETATM    3  C10 UNK     1      20.023  -4.798  37.116  1.00  0.00     0.055 C 
HETATM    4  C23 UNK     1      18.697  -5.118  36.655  1.00  0.00     0.100 C 
ENDROOT
BRANCH   3   5
HETATM    5  C11 UNK     1      20.740  -5.769  37.926  1.00  0.00    -0.014 A 
HETATM    6  C16 UNK     1      20.120  -6.962  38.298  1.00  0.00     0.036 A 
HETATM    7  C19 UNK     1      20.808  -7.892  39.076  1.00  0.00     0.034 A 
HETATM    8 Cl2  UNK     1      20.044  -9.365  39.534  1.00  0.00    -0.084 Cl
HETATM    9  C21 UNK     1      22.117  -7.632  39.481  1.00  0.00     0.024 A 
HETATM   10  C20 UNK     1      22.738  -6.440  39.108  1.00  0.00     0.003 A 
HETATM   11  C17 UNK     1      22.050  -5.508  38.331  1.00  0.00     0.013 A 
ENDBRANCH   3   5
BRANCH   2  12
HETATM   12  C2  UNK     1      19.849  -2.582  35.930  1.00  0.00    -0.015 A 
HETATM   13  C5  UNK     1      20.161  -2.550  34.577  1.00  0.00     0.052 A 
HETATM   14  C3  UNK     1      19.542  -1.614  33.750  1.00  0.00     0.102 A 
HETATM   15  C1  UNK     1      18.614  -0.718  34.282  1.00  0.00     0.103 A 
HETATM   16  C7  UNK     1      18.307  -0.759  35.642  1.00  0.00     0.059 A 
HETATM   17  C6  UNK     1      18.927  -1.695  36.470  1.00  0.00     0.024 A 
HETATM   18 Br1  UNK     1      18.462  -1.696  38.313  1.00  0.00    -0.050 Br
BRANCH  14  19
HETATM   19  O2  UNK     1      19.849  -1.585  32.422  1.00  0.00    -0.353 OA
HETATM   20  C22 UNK     1      20.904  -2.436  31.983  1.00  0.00     0.210 C 
ENDBRANCH  14  19
BRANCH  15  21
HETATM   21  O1  UNK     1      18.003   0.200  33.483  1.00  0.00    -0.344 OA
BRANCH  21  22
HETATM   22  C4  UNK     1      17.797   1.500  34.033  1.00  0.00     0.214 C 
BRANCH  22  23
HETATM   23  C8  UNK     1      18.136   2.530  32.994  1.00  0.00    -0.034 A 
HETATM   24  C12 UNK     1      18.172   3.875  33.344  1.00  0.00     0.011 A 
HETATM   25  C14 UNK     1      18.486   4.831  32.378  1.00  0.00     0.024 A 
HETATM   26  C18 UNK     1      18.762   4.436  31.069  1.00  0.00     0.034 A 
HETATM   27  C15 UNK     1      18.723   3.085  30.726  1.00  0.00     0.024 A 
HETATM   28 Cl1  UNK     1      19.148   5.617  29.877  1.00  0.00    -0.084 Cl
HETATM   29  C13 UNK     1      18.409   2.129  31.691  1.00  0.00     0.011 A 
ENDBRANCH  22  23
ENDBRANCH  21  22
ENDBRANCH  15  21
ENDBRANCH   2  12
TORSDOF 6
ENDMDL
MODEL 5
REMARK VINA RESULT:      -8.3      1.885      2.184
REMARK  6 active torsions:
REMARK  status: ('A' for Active; 'I' for Inactive)
REMARK    1  A    between atoms: C1_7  and  O1_4 
REMARK    2  A    between atoms: C4_10  and  O1_4 
REMARK    3  A    between atoms: C3_9  and  O2_5 
REMARK    4  A    between atoms: C2_8  and  C9_15 
REMARK    5  A    between atoms: C4_10  and  C8_14 
REMARK    6  A    between atoms: C10_16  and  C11_17 
ROOT
HETATM    1  N1  UNK     1      20.103   6.173  29.731  1.00  0.00    -0.191 NA
HETATM    2  C9  UNK     1      17.826   4.807  31.932  1.00  0.00     0.036 C 
HETATM    3  C10 UNK     1      18.600   4.397  30.890  1.00  0.00     0.055 C 
HETATM    4  C23 UNK     1      19.429   5.387  30.254  1.00  0.00     0.100 C 
ENDROOT
BRANCH   3   5
HETATM    5  C11 UNK     1      18.637   3.028  30.401  1.00  0.00    -0.014 A 
HETATM    6  C16 UNK     1      19.048   1.996  31.245  1.00  0.00     0.036 A 
HETATM    7  C19 UNK     1      19.084   0.683  30.774  1.00  0.00     0.034 A 
HETATM    8 Cl2  UNK     1      19.589  -0.591  31.815  1.00  0.00    -0.084 Cl
HETATM    9  C21 UNK     1      18.707   0.402  29.462  1.00  0.00     0.024 A 
HETATM   10  C20 UNK     1      18.295   1.434  28.618  1.00  0.00     0.003 A 
HETATM   11  C17 UNK     1      18.260   2.747  29.087  1.00  0.00     0.013 A 
ENDBRANCH   3   5
BRANCH   2  12
HETATM   12  C2  UNK     1      17.762   6.176  32.464  1.00  0.00    -0.015 A 
HETATM   13  C5  UNK     1      16.727   6.984  32.011  1.00  0.00     0.052 A 
HETATM   14  C3  UNK     1      16.618   8.292  32.481  1.00  0.00     0.102 A 
HETATM   15  C1  UNK     1      17.544   8.781  33.403  1.00  0.00     0.103 A 
HETATM   16  C7  UNK     1      18.580   7.962  33.852  1.00  0.00     0.059 A 
HETATM   17  C6  UNK     1      18.689   6.654  33.380  1.00  0.00     0.024 A 
HETATM   18 Br1  UNK     1      20.123   5.592  34.035  1.00  0.00    -0.050 Br
BRANCH  14  19
HETATM   19  O2  UNK     1      15.601   9.082  32.036  1.00  0.00    -0.353 OA
HETATM   20  C22 UNK     1      14.455   9.198  32.875  1.00  0.00     0.210 C 
ENDBRANCH  14  19
BRANCH  15  21
HETATM   21  O1  UNK     1      17.447  10.057  33.870  1.00  0.00    -0.344 OA
BRANCH  21  22
HETATM   22  C4  UNK     1      18.639  10.840  33.867  1.00  0.00     0.214 C 
BRANCH  22  23
HETATM   23  C8  UNK     1      18.272  12.291  33.982  1.00  0.00    -0.034 A 
HETATM   24  C12 UNK     1      17.341  12.692  34.933  1.00  0.00     0.011 A 
HETATM   25  C14 UNK     1      17.000  14.040  35.039  1.00  0.00     0.024 A 
HETATM   26  C18 UNK     1      17.591  14.978  34.193  1.00  0.00     0.034 A 
HETATM   27  C15 UNK     1      18.524  14.568  33.240  1.00  0.00     0.024 A 
HETATM   28 Cl1  UNK     1      17.168  16.642  34.322  1.00  0.00    -0.084 Cl
HETATM   29  C13 UNK     1      18.865  13.220  33.135  1.00  0.00     0.011 A 
ENDBRANCH  22  23
ENDBRANCH  21  22
ENDBRANCH  15  21
ENDBRANCH   2  12
TORSDOF 6
ENDMDL
MODEL 6
REMARK VINA RESULT:      -8.2     17.426     19.722
REMARK  6 active torsions:
REMARK  status: ('A' for Active; 'I' for Inactive)
REMARK    1  A    between atoms: C1_7  and  O1_4 
REMARK    2  A    between atoms: C4_10  and  O1_4 
REMARK    3  A    between atoms: C3_9  and  O2_5 
REMARK    4  A    between atoms: C2_8  and  C9_15 
REMARK    5  A    between atoms: C4_10  and  C8_14 
REMARK    6  A    between atoms: C10_16  and  C11_17 
ROOT
HETATM    1  N1  UNK     1      27.316 -10.114  39.714  1.00  0.00    -0.191 NA
HETATM    2  C9  UNK     1      27.482  -8.866  36.504  1.00  0.00     0.036 C 
HETATM    3  C10 UNK     1      26.669  -9.675  37.235  1.00  0.00     0.055 C 
HETATM    4  C23 UNK     1      27.035  -9.913  38.606  1.00  0.00     0.100 C 
ENDROOT
BRANCH   3   5
HETATM    5  C11 UNK     1      25.462 -10.295  36.711  1.00  0.00    -0.014 A 
HETATM    6  C16 UNK     1      24.285  -9.553  36.605  1.00  0.00     0.036 A 
HETATM    7  C19 UNK     1      23.129 -10.149  36.103  1.00  0.00     0.034 A 
HETATM    8 Cl2  UNK     1      21.676  -9.234  35.971  1.00  0.00    -0.084 Cl
HETATM    9  C21 UNK     1      23.148 -11.485  35.705  1.00  0.00     0.024 A 
HETATM   10  C20 UNK     1      24.325 -12.226  35.809  1.00  0.00     0.003 A 
HETATM   11  C17 UNK     1      25.482 -11.632  36.312  1.00  0.00     0.013 A 
ENDBRANCH   3   5
BRANCH   2  12
HETATM   12  C2  UNK     1      28.706  -8.214  36.993  1.00  0.00    -0.015 A 
HETATM   13  C5  UNK     1      28.548  -7.157  37.880  1.00  0.00     0.052 A 
HETATM   14  C3  UNK     1      29.674  -6.501  38.376  1.00  0.00     0.102 A 
HETATM   15  C1  UNK     1      30.949  -6.908  37.981  1.00  0.00     0.103 A 
HETATM   16  C7  UNK     1      31.097  -7.970  37.090  1.00  0.00     0.059 A 
HETATM   17  C6  UNK     1      29.970  -8.626  36.594  1.00  0.00     0.024 A 
HETATM   18 Br1  UNK     1      30.243 -10.066  35.384  1.00  0.00    -0.050 Br
BRANCH  14  19
HETATM   19  O2  UNK     1      29.518  -5.464  39.247  1.00  0.00    -0.353 OA
HETATM   20  C22 UNK     1      28.938  -4.268  38.733  1.00  0.00     0.210 C 
ENDBRANCH  14  19
BRANCH  15  21
HETATM   21  O1  UNK     1      32.056  -6.274  38.459  1.00  0.00    -0.344 OA
BRANCH  21  22
HETATM   22  C4  UNK     1      32.457  -5.080  37.791  1.00  0.00     0.214 C 
BRANCH  22  23
HETATM   23  C8  UNK     1      33.357  -5.439  36.645  1.00  0.00    -0.034 A 
HETATM   24  C12 UNK     1      32.917  -5.249  35.339  1.00  0.00     0.011 A 
HETATM   25  C14 UNK     1      33.752  -5.584  34.274  1.00  0.00     0.024 A 
HETATM   26  C18 UNK     1      35.021  -6.107  34.520  1.00  0.00     0.034 A 
HETATM   27  C15 UNK     1      35.455  -6.295  35.832  1.00  0.00     0.024 A 
HETATM   28 Cl1  UNK     1      36.052  -6.522  33.205  1.00  0.00    -0.084 Cl
HETATM   29  C13 UNK     1      34.620  -5.960  36.898  1.00  0.00     0.011 A 
ENDBRANCH  22  23
ENDBRANCH  21  22
ENDBRANCH  15  21
ENDBRANCH   2  12
TORSDOF 6
ENDMDL
MODEL 7
REMARK VINA RESULT:      -8.2     17.303     19.098
REMARK  6 active torsions:
REMARK  status: ('A' for Active; 'I' for Inactive)
REMARK    1  A    between atoms: C1_7  and  O1_4 
REMARK    2  A    between atoms: C4_10  and  O1_4 
REMARK    3  A    between atoms: C3_9  and  O2_5 
REMARK    4  A    between atoms: C2_8  and  C9_15 
REMARK    5  A    between atoms: C4_10  and  C8_14 
REMARK    6  A    between atoms: C10_16  and  C11_17 
ROOT
HETATM    1  N1  UNK     1      29.267  -6.249  34.619  1.00  0.00    -0.191 NA
HETATM    2  C9  UNK     1      30.752  -7.091  37.616  1.00  0.00     0.036 C 
HETATM    3  C10 UNK     1      31.132  -6.658  36.383  1.00  0.00     0.055 C 
HETATM    4  C23 UNK     1      30.093  -6.434  35.413  1.00  0.00     0.100 C 
ENDROOT
BRANCH   3   5
HETATM    5  C11 UNK     1      32.514  -6.405  36.006  1.00  0.00    -0.014 A 
HETATM    6  C16 UNK     1      32.866  -5.188  35.421  1.00  0.00     0.036 A 
HETATM    7  C19 UNK     1      34.191  -4.947  35.058  1.00  0.00     0.034 A 
HETATM    8 Cl2  UNK     1      34.627  -3.446  34.338  1.00  0.00    -0.084 Cl
HETATM    9  C21 UNK     1      35.164  -5.921  35.282  1.00  0.00     0.024 A 
HETATM   10  C20 UNK     1      34.812  -7.137  35.867  1.00  0.00     0.003 A 
HETATM   11  C17 UNK     1      33.487  -7.380  36.229  1.00  0.00     0.013 A 
ENDBRANCH   3   5
BRANCH   2  12
HETATM   12  C2  UNK     1      29.370  -7.353  38.043  1.00  0.00    -0.015 A 
HETATM   13  C5  UNK     1      28.858  -8.618  37.790  1.00  0.00     0.052 A 
HETATM   14  C3  UNK     1      27.552  -8.922  38.173  1.00  0.00     0.102 A 
HETATM   15  C1  UNK     1      26.769  -7.958  38.808  1.00  0.00     0.103 A 
HETATM   16  C7  UNK     1      27.293  -6.689  39.059  1.00  0.00     0.059 A 
HETATM   17  C6  UNK     1      28.599  -6.386  38.674  1.00  0.00     0.024 A 
HETATM   18 Br1  UNK     1      29.251  -4.639  39.047  1.00  0.00    -0.050 Br
BRANCH  14  19
HETATM   19  O2  UNK     1      27.051 -10.165  37.924  1.00  0.00    -0.353 OA
HETATM   20  C22 UNK     1      26.412 -10.365  36.665  1.00  0.00     0.210 C 
ENDBRANCH  14  19
BRANCH  15  21
HETATM   21  O1  UNK     1      25.492  -8.243  39.187  1.00  0.00    -0.344 OA
BRANCH  21  22
HETATM   22  C4  UNK     1      24.476  -7.330  38.777  1.00  0.00     0.214 C 
BRANCH  22  23
HETATM   23  C8  UNK     1      23.195  -8.084  38.570  1.00  0.00    -0.034 A 
HETATM   24  C12 UNK     1      22.283  -8.192  39.613  1.00  0.00     0.011 A 
HETATM   25  C14 UNK     1      21.093  -8.894  39.420  1.00  0.00     0.024 A 
HETATM   26  C18 UNK     1      20.824  -9.484  38.186  1.00  0.00     0.034 A 
HETATM   27  C15 UNK     1      21.744  -9.372  37.143  1.00  0.00     0.024 A 
HETATM   28 Cl1  UNK     1      19.356 -10.352  37.948  1.00  0.00    -0.084 Cl
HETATM   29  C13 UNK     1      22.934  -8.670  37.337  1.00  0.00     0.011 A 
ENDBRANCH  22  23
ENDBRANCH  21  22
ENDBRANCH  15  21
ENDBRANCH   2  12
TORSDOF 6
ENDMDL
MODEL 8
REMARK VINA RESULT:      -7.9     17.134     19.057
REMARK  6 active torsions:
REMARK  status: ('A' for Active; 'I' for Inactive)
REMARK    1  A    between atoms: C1_7  and  O1_4 
REMARK    2  A    between atoms: C4_10  and  O1_4 
REMARK    3  A    between atoms: C3_9  and  O2_5 
REMARK    4  A    between atoms: C2_8  and  C9_15 
REMARK    5  A    between atoms: C4_10  and  C8_14 
REMARK    6  A    between atoms: C10_16  and  C11_17 
ROOT
HETATM    1  N1  UNK     1      26.468  -5.869  38.879  1.00  0.00    -0.191 NA
HETATM    2  C9  UNK     1      25.904  -9.071  37.730  1.00  0.00     0.036 C 
HETATM    3  C10 UNK     1      25.179  -8.026  38.213  1.00  0.00     0.055 C 
HETATM    4  C23 UNK     1      25.901  -6.836  38.579  1.00  0.00     0.100 C 
ENDROOT
BRANCH   3   5
HETATM    5  C11 UNK     1      23.733  -8.047  38.367  1.00  0.00    -0.014 A 
HETATM    6  C16 UNK     1      22.940  -8.704  37.425  1.00  0.00     0.036 A 
HETATM    7  C19 UNK     1      21.554  -8.724  37.573  1.00  0.00     0.034 A 
HETATM    8 Cl2  UNK     1      20.575  -9.535  36.413  1.00  0.00    -0.084 Cl
HETATM    9  C21 UNK     1      20.959  -8.088  38.663  1.00  0.00     0.024 A 
HETATM   10  C20 UNK     1      21.751  -7.432  39.605  1.00  0.00     0.003 A 
HETATM   11  C17 UNK     1      23.139  -7.411  39.457  1.00  0.00     0.013 A 
ENDBRANCH   3   5
BRANCH   2  12
HETATM   12  C2  UNK     1      27.363  -9.092  37.551  1.00  0.00    -0.015 A 
HETATM   13  C5  UNK     1      27.856  -8.676  36.321  1.00  0.00     0.052 A 
HETATM   14  C3  UNK     1      29.232  -8.676  36.095  1.00  0.00     0.102 A 
HETATM   15  C1  UNK     1      30.104  -9.089  37.102  1.00  0.00     0.103 A 
HETATM   16  C7  UNK     1      29.599  -9.504  38.335  1.00  0.00     0.059 A 
HETATM   17  C6  UNK     1      28.222  -9.505  38.559  1.00  0.00     0.024 A 
HETATM   18 Br1  UNK     1      27.602 -10.081  40.261  1.00  0.00    -0.050 Br
BRANCH  14  19
HETATM   19  O2  UNK     1      29.714  -8.268  34.887  1.00  0.00    -0.353 OA
HETATM   20  C22 UNK     1      29.732  -6.865  34.637  1.00  0.00     0.210 C 
ENDBRANCH  14  19
BRANCH  15  21
HETATM   21  O1  UNK     1      31.450  -9.093  36.893  1.00  0.00    -0.344 OA
BRANCH  21  22
HETATM   22  C4  UNK     1      32.254  -8.388  37.837  1.00  0.00     0.214 C 
BRANCH  22  23
HETATM   23  C8  UNK     1      32.207  -6.921  37.520  1.00  0.00    -0.034 A 
HETATM   24  C12 UNK     1      31.410  -6.077  38.284  1.00  0.00     0.011 A 
HETATM   25  C14 UNK     1      31.366  -4.714  37.989  1.00  0.00     0.024 A 
HETATM   26  C18 UNK     1      32.119  -4.205  36.931  1.00  0.00     0.034 A 
HETATM   27  C15 UNK     1      32.917  -5.059  36.169  1.00  0.00     0.024 A 
HETATM   28 Cl1  UNK     1      32.064  -2.524  36.566  1.00  0.00    -0.084 Cl
HETATM   29  C13 UNK     1      32.960  -6.421  36.464  1.00  0.00     0.011 A 
ENDBRANCH  22  23
ENDBRANCH  21  22
ENDBRANCH  15  21
ENDBRANCH   2  12
TORSDOF 6
ENDMDL
MODEL 9
REMARK VINA RESULT:      -7.9      1.953      2.548
REMARK  6 active torsions:
REMARK  status: ('A' for Active; 'I' for Inactive)
REMARK    1  A    between atoms: C1_7  and  O1_4 
REMARK    2  A    between atoms: C4_10  and  O1_4 
REMARK    3  A    between atoms: C3_9  and  O2_5 
REMARK    4  A    between atoms: C2_8  and  C9_15 
REMARK    5  A    between atoms: C4_10  and  C8_14 
REMARK    6  A    between atoms: C10_16  and  C11_17 
ROOT
HETATM    1  N1  UNK     1      19.022   5.539  29.612  1.00  0.00    -0.191 NA
HETATM    2  C9  UNK     1      17.827   4.670  32.728  1.00  0.00     0.036 C 
HETATM    3  C10 UNK     1      18.383   4.056  31.649  1.00  0.00     0.055 C 
HETATM    4  C23 UNK     1      18.734   4.885  30.526  1.00  0.00     0.100 C 
ENDROOT
BRANCH   3   5
HETATM    5  C11 UNK     1      18.645   2.627  31.578  1.00  0.00    -0.014 A 
HETATM    6  C16 UNK     1      19.052   2.051  30.374  1.00  0.00     0.036 A 
HETATM    7  C19 UNK     1      19.303   0.681  30.307  1.00  0.00     0.034 A 
HETATM    8 Cl2  UNK     1      19.806  -0.031  28.823  1.00  0.00    -0.084 Cl
HETATM    9  C21 UNK     1      19.149  -0.114  31.443  1.00  0.00     0.024 A 
HETATM   10  C20 UNK     1      18.743   0.462  32.646  1.00  0.00     0.003 A 
HETATM   11  C17 UNK     1      18.491   1.833  32.715  1.00  0.00     0.013 A 
ENDBRANCH   3   5
BRANCH   2  12
HETATM   12  C2  UNK     1      17.550   6.109  32.846  1.00  0.00    -0.015 A 
HETATM   13  C5  UNK     1      16.241   6.522  32.635  1.00  0.00     0.052 A 
HETATM   14  C3  UNK     1      15.922   7.875  32.733  1.00  0.00     0.102 A 
HETATM   15  C1  UNK     1      16.914   8.806  33.044  1.00  0.00     0.103 A 
HETATM   16  C7  UNK     1      18.226   8.381  33.255  1.00  0.00     0.059 A 
HETATM   17  C6  UNK     1      18.545   7.027  33.155  1.00  0.00     0.024 A 
HETATM   18 Br1  UNK     1      20.351   6.517  33.456  1.00  0.00    -0.050 Br
BRANCH  14  19
HETATM   19  O2  UNK     1      14.636   8.278  32.526  1.00  0.00    -0.353 OA
HETATM   20  C22 UNK     1      13.673   7.262  32.262  1.00  0.00     0.210 C 
ENDBRANCH  14  19
BRANCH  15  21
HETATM   21  O1  UNK     1      16.613  10.131  33.143  1.00  0.00    -0.344 OA
BRANCH  21  22
HETATM   22  C4  UNK     1      17.159  10.837  34.256  1.00  0.00     0.214 C 
BRANCH  22  23
HETATM   23  C8  UNK     1      16.044  11.505  35.006  1.00  0.00    -0.034 A 
HETATM   24  C12 UNK     1      14.882  10.796  35.289  1.00  0.00     0.011 A 
HETATM   25  C14 UNK     1      13.846  11.418  35.985  1.00  0.00     0.024 A 
HETATM   26  C18 UNK     1      13.977  12.745  36.392  1.00  0.00     0.034 A 
HETATM   27  C15 UNK     1      15.145  13.451  36.104  1.00  0.00     0.024 A 
HETATM   28 Cl1  UNK     1      12.697  13.513  37.250  1.00  0.00    -0.084 Cl
HETATM   29  C13 UNK     1      16.182  12.829  35.408  1.00  0.00     0.011 A 
ENDBRANCH  22  23
ENDBRANCH  21  22
ENDBRANCH  15  21
ENDBRANCH   2  12
TORSDOF 6
ENDMDL
MODEL 10
REMARK VINA RESULT:      -7.8     17.316     18.886
REMARK  6 active torsions:
REMARK  status: ('A' for Active; 'I' for Inactive)
REMARK    1  A    between atoms: C1_7  and  O1_4 
REMARK    2  A    between atoms: C4_10  and  O1_4 
REMARK    3  A    between atoms: C3_9  and  O2_5 
REMARK    4  A    between atoms: C2_8  and  C9_15 
REMARK    5  A    between atoms: C4_10  and  C8_14 
REMARK    6  A    between atoms: C10_16  and  C11_17 
ROOT
HETATM    1  N1  UNK     1      31.654  -8.513  38.114  1.00  0.00    -0.191 NA
HETATM    2  C9  UNK     1      30.097  -5.926  36.449  1.00  0.00     0.036 C 
HETATM    3  C10 UNK     1      31.351  -6.438  36.578  1.00  0.00     0.055 C 
HETATM    4  C23 UNK     1      31.509  -7.587  37.430  1.00  0.00     0.100 C 
ENDROOT
BRANCH   3   5
HETATM    5  C11 UNK     1      32.519  -5.897  35.902  1.00  0.00    -0.014 A 
HETATM    6  C16 UNK     1      33.605  -6.725  35.615  1.00  0.00     0.036 A 
HETATM    7  C19 UNK     1      34.726  -6.205  34.967  1.00  0.00     0.034 A 
HETATM    8 Cl2  UNK     1      36.066  -7.225  34.612  1.00  0.00    -0.084 Cl
HETATM    9  C21 UNK     1      34.760  -4.859  34.604  1.00  0.00     0.024 A 
HETATM   10  C20 UNK     1      33.674  -4.032  34.890  1.00  0.00     0.003 A 
HETATM   11  C17 UNK     1      32.553  -4.551  35.538  1.00  0.00     0.013 A 
ENDBRANCH   3   5
BRANCH   2  12
HETATM   12  C2  UNK     1      28.888  -6.443  37.106  1.00  0.00    -0.015 A 
HETATM   13  C5  UNK     1      28.223  -7.487  36.477  1.00  0.00     0.052 A 
HETATM   14  C3  UNK     1      27.070  -8.016  37.056  1.00  0.00     0.102 A 
HETATM   15  C1  UNK     1      26.592  -7.498  38.260  1.00  0.00     0.103 A 
HETATM   16  C7  UNK     1      27.268  -6.450  38.885  1.00  0.00     0.059 A 
HETATM   17  C6  UNK     1      28.421  -5.920  38.305  1.00  0.00     0.024 A 
HETATM   18 Br1  UNK     1      29.294  -4.494  39.209  1.00  0.00    -0.050 Br
BRANCH  14  19
HETATM   19  O2  UNK     1      26.418  -9.041  36.437  1.00  0.00    -0.353 OA
HETATM   20  C22 UNK     1      27.176 -10.214  36.154  1.00  0.00     0.210 C 
ENDBRANCH  14  19
BRANCH  15  21
HETATM   21  O1  UNK     1      25.467  -8.008  38.835  1.00  0.00    -0.344 OA
BRANCH  21  22
HETATM   22  C4  UNK     1      24.343  -7.137  38.939  1.00  0.00     0.214 C 
BRANCH  22  23
HETATM   23  C8  UNK     1      23.090  -7.923  38.686  1.00  0.00    -0.034 A 
HETATM   24  C12 UNK     1      22.094  -7.963  39.656  1.00  0.00     0.011 A 
HETATM   25  C14 UNK     1      20.930  -8.695  39.421  1.00  0.00     0.024 A 
HETATM   26  C18 UNK     1      20.769  -9.383  38.219  1.00  0.00     0.034 A 
HETATM   27  C15 UNK     1      21.773  -9.339  37.251  1.00  0.00     0.024 A 
HETATM   28 Cl1  UNK     1      19.334 -10.288  37.930  1.00  0.00    -0.084 Cl
HETATM   29  C13 UNK     1      22.937  -8.607  37.486  1.00  0.00     0.011 A 
ENDBRANCH  22  23
ENDBRANCH  21  22
ENDBRANCH  15  21
ENDBRANCH   2  12
TORSDOF 6
ENDMDL
