MODEL 1
REMARK VINA RESULT:      -9.3      0.000      0.000
REMARK  5 active torsions:
REMARK  status: ('A' for Active; 'I' for Inactive)
REMARK       I    between atoms: C5_14  and  N1_7 
REMARK    1  A    between atoms: N1_7  and  N2_8 
REMARK    2  A    between atoms: C6_15  and  N2_8 
REMARK    3  A    between atoms: C6_15  and  N3_9 
REMARK    4  A    between atoms: C7_16  and  N3_9 
REMARK    5  A    between atoms: C1_10  and  C5_14 
ROOT
HETATM    1  N3  UNK     1      17.567   4.150  32.162  1.00  0.00    -0.332 N 
HETATM    2  H8  UNK     1      16.615   3.916  32.435  1.00  0.00     0.168 HD
ENDROOT
BRANCH   1   3
HETATM    3  C6  UNK     1      18.157   3.179  31.333  1.00  0.00     0.191 C 
HETATM    4  S1  UNK     1      18.727   3.346  29.765  1.00  0.00    -0.039 SA
BRANCH   3   5
HETATM    5  N2  UNK     1      18.298   1.929  31.925  1.00  0.00    -0.274 N 
HETATM    6  H7  UNK     1      18.784   1.172  31.455  1.00  0.00     0.189 HD
BRANCH   5   7
HETATM    7  N1  UNK     1      17.767   1.647  33.162  1.00  0.00    -0.267 N 
HETATM    8  C5  UNK     1      18.193   0.519  33.829  1.00  0.00     0.247 C 
HETATM    9  O1  UNK     1      19.022  -0.292  33.432  1.00  0.00    -0.271 OA
HETATM   10  H6  UNK     1      17.024   2.248  33.502  1.00  0.00     0.190 HD
BRANCH   8  11
HETATM   11  C1  UNK     1      17.545   0.326  35.159  1.00  0.00     0.077 A 
HETATM   12  C2  UNK     1      18.073   1.089  36.332  1.00  0.00     0.130 A 
HETATM   13 Cl1  UNK     1      16.970   1.599  37.613  1.00  0.00    -0.100 Cl
HETATM   14 Cl2  UNK     1      19.434   2.197  36.140  1.00  0.00    -0.100 Cl
HETATM   15  C3  UNK     1      18.354  -0.379  36.201  1.00  0.00     0.065 A 
HETATM   16  C4  UNK     1      16.090  -0.008  35.109  1.00  0.00     0.029 C 
ENDBRANCH   8  11
ENDBRANCH   5   7
ENDBRANCH   3   5
ENDBRANCH   1   3
BRANCH   1  17
HETATM   17  C7  UNK     1      17.976   5.397  32.635  1.00  0.00     0.037 A 
HETATM   18  C10 UNK     1      17.064   6.444  32.720  1.00  0.00     0.067 A 
HETATM   19  C9  UNK     1      17.493   7.684  33.196  1.00  0.00     0.092 A 
HETATM   20  C8  UNK     1      18.812   7.914  33.592  1.00  0.00     0.004 A 
HETATM   21  O2  UNK     1      16.525   8.705  33.260  1.00  0.00    -0.275 OA
HETATM   22  C11 UNK     1      19.177   9.251  34.081  1.00  0.00    -0.043 A 
HETATM   23  C13 UNK     1      19.715   6.847  33.499  1.00  0.00     0.017 A 
HETATM   24  C14 UNK     1      18.234  10.203  34.131  1.00  0.00     0.090 A 
HETATM   25  C15 UNK     1      20.586   9.531  34.514  1.00  0.00     0.049 C 
HETATM   26  C16 UNK     1      16.840   9.976  33.717  1.00  0.00     0.288 A 
HETATM   27  O3  UNK     1      16.005  10.872  33.777  1.00  0.00    -0.260 OA
HETATM   28  C12 UNK     1      19.299   5.598  33.023  1.00  0.00     0.030 A 
ENDBRANCH   1  17
TORSDOF 5
ENDMDL
MODEL 2
REMARK VINA RESULT:      -9.3      6.474      8.697
REMARK  5 active torsions:
REMARK  status: ('A' for Active; 'I' for Inactive)
REMARK       I    between atoms: C5_14  and  N1_7 
REMARK    1  A    between atoms: N1_7  and  N2_8 
REMARK    2  A    between atoms: C6_15  and  N2_8 
REMARK    3  A    between atoms: C6_15  and  N3_9 
REMARK    4  A    between atoms: C7_16  and  N3_9 
REMARK    5  A    between atoms: C1_10  and  C5_14 
ROOT
HETATM    1  N3  UNK     1      19.643  -2.537  35.310  1.00  0.00    -0.332 N 
HETATM    2  H8  UNK     1      20.486  -3.046  35.566  1.00  0.00     0.168 HD
ENDROOT
BRANCH   1   3
HETATM    3  C6  UNK     1      18.685  -2.505  36.340  1.00  0.00     0.191 C 
HETATM    4  S1  UNK     1      18.150  -1.192  37.234  1.00  0.00    -0.039 SA
BRANCH   3   5
HETATM    5  N2  UNK     1      18.102  -3.736  36.617  1.00  0.00    -0.274 N 
HETATM    6  H7  UNK     1      17.093  -3.847  36.660  1.00  0.00     0.189 HD
BRANCH   5   7
HETATM    7  N1  UNK     1      18.856  -4.858  36.870  1.00  0.00    -0.267 N 
HETATM    8  C5  UNK     1      18.236  -6.089  36.887  1.00  0.00     0.247 C 
HETATM    9  O1  UNK     1      17.045  -6.307  36.695  1.00  0.00    -0.271 OA
HETATM   10  H6  UNK     1      19.833  -4.723  37.107  1.00  0.00     0.190 HD
BRANCH   8  11
HETATM   11  C1  UNK     1      19.161  -7.225  37.169  1.00  0.00     0.077 A 
HETATM   12  C2  UNK     1      20.038  -7.727  36.066  1.00  0.00     0.130 A 
HETATM   13 Cl1  UNK     1      21.637  -8.373  36.444  1.00  0.00    -0.100 Cl
HETATM   14 Cl2  UNK     1      19.976  -6.986  34.464  1.00  0.00    -0.100 Cl
HETATM   15  C3  UNK     1      18.845  -8.526  36.502  1.00  0.00     0.065 A 
HETATM   16  C4  UNK     1      19.655  -7.301  38.577  1.00  0.00     0.029 C 
ENDBRANCH   8  11
ENDBRANCH   5   7
ENDBRANCH   3   5
ENDBRANCH   1   3
BRANCH   1  17
HETATM   17  C7  UNK     1      19.721  -1.963  34.042  1.00  0.00     0.037 A 
HETATM   18  C10 UNK     1      19.005  -0.805  33.754  1.00  0.00     0.067 A 
HETATM   19  C9  UNK     1      19.097  -0.246  32.479  1.00  0.00     0.092 A 
HETATM   20  C8  UNK     1      19.885  -0.810  31.474  1.00  0.00     0.004 A 
HETATM   21  O2  UNK     1      18.351   0.926  32.248  1.00  0.00    -0.275 OA
HETATM   22  C11 UNK     1      19.923  -0.155  30.159  1.00  0.00    -0.043 A 
HETATM   23  C13 UNK     1      20.598  -1.976  31.783  1.00  0.00     0.017 A 
HETATM   24  C14 UNK     1      19.203   0.960  29.968  1.00  0.00     0.090 A 
HETATM   25  C15 UNK     1      20.761  -0.735  29.057  1.00  0.00     0.049 C 
HETATM   26  C16 UNK     1      18.367   1.566  31.018  1.00  0.00     0.288 A 
HETATM   27  O3  UNK     1      17.722   2.587  30.807  1.00  0.00    -0.260 OA
HETATM   28  C12 UNK     1      20.516  -2.548  33.057  1.00  0.00     0.030 A 
ENDBRANCH   1  17
TORSDOF 5
ENDMDL
MODEL 3
REMARK VINA RESULT:      -9.3      3.610      8.436
REMARK  5 active torsions:
REMARK  status: ('A' for Active; 'I' for Inactive)
REMARK       I    between atoms: C5_14  and  N1_7 
REMARK    1  A    between atoms: N1_7  and  N2_8 
REMARK    2  A    between atoms: C6_15  and  N2_8 
REMARK    3  A    between atoms: C6_15  and  N3_9 
REMARK    4  A    between atoms: C7_16  and  N3_9 
REMARK    5  A    between atoms: C1_10  and  C5_14 
ROOT
HETATM    1  N3  UNK     1      18.564  -0.090  31.635  1.00  0.00    -0.332 N 
HETATM    2  H8  UNK     1      17.612   0.065  31.310  1.00  0.00     0.168 HD
ENDROOT
BRANCH   1   3
HETATM    3  C6  UNK     1      19.534   0.212  30.662  1.00  0.00     0.191 C 
HETATM    4  S1  UNK     1      20.956  -0.604  30.310  1.00  0.00    -0.039 SA
BRANCH   3   5
HETATM    5  N2  UNK     1      19.239   1.327  29.886  1.00  0.00    -0.274 N 
HETATM    6  H7  UNK     1      18.906   1.235  28.932  1.00  0.00     0.189 HD
BRANCH   5   7
HETATM    7  N1  UNK     1      19.405   2.607  30.361  1.00  0.00    -0.267 N 
HETATM    8  C5  UNK     1      18.333   3.245  30.947  1.00  0.00     0.247 C 
HETATM    9  O1  UNK     1      17.207   2.785  31.101  1.00  0.00    -0.271 OA
HETATM   10  H6  UNK     1      20.297   3.059  30.191  1.00  0.00     0.190 HD
BRANCH   8  11
HETATM   11  C1  UNK     1      18.641   4.625  31.423  1.00  0.00     0.077 A 
HETATM   12  C2  UNK     1      18.666   4.889  32.895  1.00  0.00     0.130 A 
HETATM   13 Cl1  UNK     1      19.774   6.096  33.550  1.00  0.00    -0.100 Cl
HETATM   14 Cl2  UNK     1      18.337   3.588  34.043  1.00  0.00    -0.100 Cl
HETATM   15  C3  UNK     1      17.518   5.379  32.062  1.00  0.00     0.065 A 
HETATM   16  C4  UNK     1      19.548   5.411  30.532  1.00  0.00     0.029 C 
ENDBRANCH   8  11
ENDBRANCH   5   7
ENDBRANCH   3   5
ENDBRANCH   1   3
BRANCH   1  17
HETATM   17  C7  UNK     1      18.624  -0.487  32.971  1.00  0.00     0.037 A 
HETATM   18  C10 UNK     1      19.396  -1.584  33.340  1.00  0.00     0.067 A 
HETATM   19  C9  UNK     1      19.443  -1.964  34.682  1.00  0.00     0.092 A 
HETATM   20  C8  UNK     1      18.737  -1.281  35.674  1.00  0.00     0.004 A 
HETATM   21  O2  UNK     1      20.242  -3.081  34.995  1.00  0.00    -0.275 OA
HETATM   22  C11 UNK     1      18.843  -1.750  37.062  1.00  0.00    -0.043 A 
HETATM   23  C13 UNK     1      17.965  -0.179  35.282  1.00  0.00     0.017 A 
HETATM   24  C14 UNK     1      19.612  -2.816  37.331  1.00  0.00     0.090 A 
HETATM   25  C15 UNK     1      18.098  -1.038  38.153  1.00  0.00     0.049 C 
HETATM   26  C16 UNK     1      20.361  -3.546  36.295  1.00  0.00     0.288 A 
HETATM   27  O3  UNK     1      21.055  -4.517  36.578  1.00  0.00    -0.260 OA
HETATM   28  C12 UNK     1      17.909   0.214  33.941  1.00  0.00     0.030 A 
ENDBRANCH   1  17
TORSDOF 5
ENDMDL
MODEL 4
REMARK VINA RESULT:      -9.1      6.499      8.516
REMARK  5 active torsions:
REMARK  status: ('A' for Active; 'I' for Inactive)
REMARK       I    between atoms: C5_14  and  N1_7 
REMARK    1  A    between atoms: N1_7  and  N2_8 
REMARK    2  A    between atoms: C6_15  and  N2_8 
REMARK    3  A    between atoms: C6_15  and  N3_9 
REMARK    4  A    between atoms: C7_16  and  N3_9 
REMARK    5  A    between atoms: C1_10  and  C5_14 
ROOT
HETATM    1  N3  UNK     1      19.579  -2.472  35.010  1.00  0.00    -0.332 N 
HETATM    2  H8  UNK     1      20.174  -3.285  35.153  1.00  0.00     0.168 HD
ENDROOT
BRANCH   1   3
HETATM    3  C6  UNK     1      18.856  -2.109  36.161  1.00  0.00     0.191 C 
HETATM    4  S1  UNK     1      18.017  -0.690  36.468  1.00  0.00    -0.039 SA
BRANCH   3   5
HETATM    5  N2  UNK     1      18.829  -3.084  37.151  1.00  0.00    -0.274 N 
HETATM    6  H7  UNK     1      18.801  -2.838  38.136  1.00  0.00     0.189 HD
BRANCH   5   7
HETATM    7  N1  UNK     1      18.863  -4.426  36.851  1.00  0.00    -0.267 N 
HETATM    8  C5  UNK     1      20.081  -5.069  36.812  1.00  0.00     0.247 C 
HETATM    9  O1  UNK     1      21.178  -4.565  37.022  1.00  0.00    -0.271 OA
HETATM   10  H6  UNK     1      17.988  -4.873  36.598  1.00  0.00     0.190 HD
BRANCH   8  11
HETATM   11  C1  UNK     1      19.985  -6.520  36.479  1.00  0.00     0.077 A 
HETATM   12  C2  UNK     1      19.903  -7.510  37.598  1.00  0.00     0.130 A 
HETATM   13 Cl1  UNK     1      18.977  -8.998  37.385  1.00  0.00    -0.100 Cl
HETATM   14 Cl2  UNK     1      19.920  -6.966  39.277  1.00  0.00    -0.100 Cl
HETATM   15  C3  UNK     1      21.174  -7.364  36.813  1.00  0.00     0.065 A 
HETATM   16  C4  UNK     1      19.292  -6.826  35.191  1.00  0.00     0.029 C 
ENDBRANCH   8  11
ENDBRANCH   5   7
ENDBRANCH   3   5
ENDBRANCH   1   3
BRANCH   1  17
HETATM   17  C7  UNK     1      19.713  -1.919  33.737  1.00  0.00     0.037 A 
HETATM   18  C10 UNK     1      19.013  -0.765  33.399  1.00  0.00     0.067 A 
HETATM   19  C9  UNK     1      19.162  -0.227  32.119  1.00  0.00     0.092 A 
HETATM   20  C8  UNK     1      19.993  -0.808  31.160  1.00  0.00     0.004 A 
HETATM   21  O2  UNK     1      18.428   0.941  31.836  1.00  0.00    -0.275 OA
HETATM   22  C11 UNK     1      20.090  -0.175  29.838  1.00  0.00    -0.043 A 
HETATM   23  C13 UNK     1      20.690  -1.970  31.519  1.00  0.00     0.017 A 
HETATM   24  C14 UNK     1      19.381   0.937  29.596  1.00  0.00     0.090 A 
HETATM   25  C15 UNK     1      20.974  -0.775  28.783  1.00  0.00     0.049 C 
HETATM   26  C16 UNK     1      18.500   1.561  30.599  1.00  0.00     0.288 A 
HETATM   27  O3  UNK     1      17.867   2.579  30.342  1.00  0.00    -0.260 OA
HETATM   28  C12 UNK     1      20.550  -2.520  32.798  1.00  0.00     0.030 A 
ENDBRANCH   1  17
TORSDOF 5
ENDMDL
MODEL 5
REMARK VINA RESULT:      -9.0      6.247      8.218
REMARK  5 active torsions:
REMARK  status: ('A' for Active; 'I' for Inactive)
REMARK       I    between atoms: C5_14  and  N1_7 
REMARK    1  A    between atoms: N1_7  and  N2_8 
REMARK    2  A    between atoms: C6_15  and  N2_8 
REMARK    3  A    between atoms: C6_15  and  N3_9 
REMARK    4  A    between atoms: C7_16  and  N3_9 
REMARK    5  A    between atoms: C1_10  and  C5_14 
ROOT
HETATM    1  N3  UNK     1      18.444  -1.821  35.058  1.00  0.00    -0.332 N 
HETATM    2  H8  UNK     1      18.176  -2.761  34.777  1.00  0.00     0.168 HD
ENDROOT
BRANCH   1   3
HETATM    3  C6  UNK     1      18.666  -1.701  36.441  1.00  0.00     0.191 C 
HETATM    4  S1  UNK     1      17.810  -0.798  37.566  1.00  0.00    -0.039 SA
BRANCH   3   5
HETATM    5  N2  UNK     1      19.727  -2.461  36.919  1.00  0.00    -0.274 N 
HETATM    6  H7  UNK     1      20.663  -2.077  36.993  1.00  0.00     0.189 HD
BRANCH   5   7
HETATM    7  N1  UNK     1      19.569  -3.776  37.292  1.00  0.00    -0.267 N 
HETATM    8  C5  UNK     1      19.859  -4.767  36.379  1.00  0.00     0.247 C 
HETATM    9  O1  UNK     1      20.257  -4.606  35.231  1.00  0.00    -0.271 OA
HETATM   10  H6  UNK     1      19.172  -3.960  38.207  1.00  0.00     0.190 HD
BRANCH   8  11
HETATM   11  C1  UNK     1      19.651  -6.148  36.904  1.00  0.00     0.077 A 
HETATM   12  C2  UNK     1      20.641  -6.702  37.879  1.00  0.00     0.130 A 
HETATM   13 Cl1  UNK     1      20.103  -7.825  39.131  1.00  0.00    -0.100 Cl
HETATM   14 Cl2  UNK     1      22.026  -5.737  38.396  1.00  0.00    -0.100 Cl
HETATM   15  C3  UNK     1      20.629  -7.188  36.459  1.00  0.00     0.065 A 
HETATM   16  C4  UNK     1      18.223  -6.577  37.001  1.00  0.00     0.029 C 
ENDBRANCH   8  11
ENDBRANCH   5   7
ENDBRANCH   3   5
ENDBRANCH   1   3
BRANCH   1  17
HETATM   17  C7  UNK     1      18.581  -0.950  33.976  1.00  0.00     0.037 A 
HETATM   18  C10 UNK     1      19.119  -1.405  32.777  1.00  0.00     0.067 A 
HETATM   19  C9  UNK     1      19.246  -0.518  31.707  1.00  0.00     0.092 A 
HETATM   20  C8  UNK     1      18.851   0.818  31.796  1.00  0.00     0.004 A 
HETATM   21  O2  UNK     1      19.798  -1.037  30.519  1.00  0.00    -0.275 OA
HETATM   22  C11 UNK     1      19.022   1.682  30.620  1.00  0.00    -0.043 A 
HETATM   23  C13 UNK     1      18.311   1.257  33.013  1.00  0.00     0.017 A 
HETATM   24  C14 UNK     1      19.549   1.161  29.503  1.00  0.00     0.090 A 
HETATM   25  C15 UNK     1      18.607   3.123  30.683  1.00  0.00     0.049 C 
HETATM   26  C16 UNK     1      19.970  -0.246  29.394  1.00  0.00     0.288 A 
HETATM   27  O3  UNK     1      20.449  -0.688  28.354  1.00  0.00    -0.260 OA
HETATM   28  C12 UNK     1      18.178   0.379  34.094  1.00  0.00     0.030 A 
ENDBRANCH   1  17
TORSDOF 5
ENDMDL
MODEL 6
REMARK VINA RESULT:      -8.9      3.033      4.204
REMARK  5 active torsions:
REMARK  status: ('A' for Active; 'I' for Inactive)
REMARK       I    between atoms: C5_14  and  N1_7 
REMARK    1  A    between atoms: N1_7  and  N2_8 
REMARK    2  A    between atoms: C6_15  and  N2_8 
REMARK    3  A    between atoms: C6_15  and  N3_9 
REMARK    4  A    between atoms: C7_16  and  N3_9 
REMARK    5  A    between atoms: C1_10  and  C5_14 
ROOT
HETATM    1  N3  UNK     1      18.631  -0.252  31.105  1.00  0.00    -0.332 N 
HETATM    2  H8  UNK     1      18.146  -0.678  30.318  1.00  0.00     0.168 HD
ENDROOT
BRANCH   1   3
HETATM    3  C6  UNK     1      19.193  -1.197  31.982  1.00  0.00     0.191 C 
HETATM    4  S1  UNK     1      20.706  -1.917  31.920  1.00  0.00    -0.039 SA
BRANCH   3   5
HETATM    5  N2  UNK     1      18.372  -1.546  33.049  1.00  0.00    -0.274 N 
HETATM    6  H7  UNK     1      18.041  -2.498  33.173  1.00  0.00     0.189 HD
BRANCH   5   7
HETATM    7  N1  UNK     1      17.948  -0.620  33.972  1.00  0.00    -0.267 N 
HETATM    8  C5  UNK     1      18.731  -0.374  35.079  1.00  0.00     0.247 C 
HETATM    9  O1  UNK     1      19.803  -0.906  35.345  1.00  0.00    -0.271 OA
HETATM   10  H6  UNK     1      17.032  -0.206  33.835  1.00  0.00     0.190 HD
BRANCH   8  11
HETATM   11  C1  UNK     1      18.164   0.651  36.002  1.00  0.00     0.077 A 
HETATM   12  C2  UNK     1      17.618   0.206  37.322  1.00  0.00     0.130 A 
HETATM   13 Cl1  UNK     1      17.738   1.272  38.724  1.00  0.00    -0.100 Cl
HETATM   14 Cl2  UNK     1      17.648  -1.501  37.773  1.00  0.00    -0.100 Cl
HETATM   15  C3  UNK     1      16.684   0.612  36.219  1.00  0.00     0.065 A 
HETATM   16  C4  UNK     1      18.785   2.006  35.897  1.00  0.00     0.029 C 
ENDBRANCH   8  11
ENDBRANCH   5   7
ENDBRANCH   3   5
ENDBRANCH   1   3
BRANCH   1  17
HETATM   17  C7  UNK     1      18.656   1.141  31.038  1.00  0.00     0.037 A 
HETATM   18  C10 UNK     1      18.284   1.900  32.142  1.00  0.00     0.067 A 
HETATM   19  C9  UNK     1      18.317   3.293  32.054  1.00  0.00     0.092 A 
HETATM   20  C8  UNK     1      18.712   3.956  30.891  1.00  0.00     0.004 A 
HETATM   21  O2  UNK     1      17.929   4.007  33.205  1.00  0.00    -0.275 OA
HETATM   22  C11 UNK     1      18.716   5.425  30.887  1.00  0.00    -0.043 A 
HETATM   23  C13 UNK     1      19.083   3.174  29.790  1.00  0.00     0.017 A 
HETATM   24  C14 UNK     1      18.343   6.079  31.997  1.00  0.00     0.090 A 
HETATM   25  C15 UNK     1      19.136   6.170  29.653  1.00  0.00     0.049 C 
HETATM   26  C16 UNK     1      17.924   5.393  33.230  1.00  0.00     0.288 A 
HETATM   27  O3  UNK     1      17.589   6.025  34.227  1.00  0.00    -0.260 OA
HETATM   28  C12 UNK     1      19.055   1.777  29.863  1.00  0.00     0.030 A 
ENDBRANCH   1  17
TORSDOF 5
ENDMDL
MODEL 7
REMARK VINA RESULT:      -8.9      3.292      7.593
REMARK  5 active torsions:
REMARK  status: ('A' for Active; 'I' for Inactive)
REMARK       I    between atoms: C5_14  and  N1_7 
REMARK    1  A    between atoms: N1_7  and  N2_8 
REMARK    2  A    between atoms: C6_15  and  N2_8 
REMARK    3  A    between atoms: C6_15  and  N3_9 
REMARK    4  A    between atoms: C7_16  and  N3_9 
REMARK    5  A    between atoms: C1_10  and  C5_14 
ROOT
HETATM    1  N3  UNK     1      18.476   0.807  31.675  1.00  0.00    -0.332 N 
HETATM    2  H8  UNK     1      17.634   1.367  31.559  1.00  0.00     0.168 HD
ENDROOT
BRANCH   1   3
HETATM    3  C6  UNK     1      19.343   0.881  30.571  1.00  0.00     0.191 C 
HETATM    4  S1  UNK     1      20.583  -0.163  30.139  1.00  0.00    -0.039 SA
BRANCH   3   5
HETATM    5  N2  UNK     1      19.105   1.958  29.726  1.00  0.00    -0.274 N 
HETATM    6  H7  UNK     1      18.704   1.829  28.802  1.00  0.00     0.189 HD
BRANCH   5   7
HETATM    7  N1  UNK     1      19.419   3.248  30.086  1.00  0.00    -0.267 N 
HETATM    8  C5  UNK     1      18.537   3.954  30.875  1.00  0.00     0.247 C 
HETATM    9  O1  UNK     1      17.465   3.551  31.309  1.00  0.00    -0.271 OA
HETATM   10  H6  UNK     1      20.262   3.653  29.691  1.00  0.00     0.190 HD
BRANCH   8  11
HETATM   11  C1  UNK     1      18.994   5.337  31.198  1.00  0.00     0.077 A 
HETATM   12  C2  UNK     1      19.091   5.745  32.634  1.00  0.00     0.130 A 
HETATM   13 Cl1  UNK     1      20.332   6.894  33.136  1.00  0.00    -0.100 Cl
HETATM   14 Cl2  UNK     1      18.672   4.606  33.917  1.00  0.00    -0.100 Cl
HETATM   15  C3  UNK     1      17.971   6.261  31.778  1.00  0.00     0.065 A 
HETATM   16  C4  UNK     1      19.945   5.933  30.211  1.00  0.00     0.029 C 
ENDBRANCH   8  11
ENDBRANCH   5   7
ENDBRANCH   3   5
ENDBRANCH   1   3
BRANCH   1  17
HETATM   17  C7  UNK     1      18.550   0.193  32.925  1.00  0.00     0.037 A 
HETATM   18  C10 UNK     1      18.202   0.898  34.072  1.00  0.00     0.067 A 
HETATM   19  C9  UNK     1      18.283   0.264  35.313  1.00  0.00     0.092 A 
HETATM   20  C8  UNK     1      18.702  -1.061  35.447  1.00  0.00     0.004 A 
HETATM   21  O2  UNK     1      17.918   1.029  36.438  1.00  0.00    -0.275 OA
HETATM   22  C11 UNK     1      18.758  -1.648  36.792  1.00  0.00    -0.043 A 
HETATM   23  C13 UNK     1      19.048  -1.754  34.279  1.00  0.00     0.017 A 
HETATM   24  C14 UNK     1      18.403  -0.897  37.844  1.00  0.00     0.090 A 
HETATM   25  C15 UNK     1      19.204  -3.070  36.970  1.00  0.00     0.049 C 
HETATM   26  C16 UNK     1      17.959   0.502  37.719  1.00  0.00     0.288 A 
HETATM   27  O3  UNK     1      17.643   1.159  38.705  1.00  0.00    -0.260 OA
HETATM   28  C12 UNK     1      18.973  -1.132  33.029  1.00  0.00     0.030 A 
ENDBRANCH   1  17
TORSDOF 5
ENDMDL
MODEL 8
REMARK VINA RESULT:      -8.7      5.323      7.671
REMARK  5 active torsions:
REMARK  status: ('A' for Active; 'I' for Inactive)
REMARK       I    between atoms: C5_14  and  N1_7 
REMARK    1  A    between atoms: N1_7  and  N2_8 
REMARK    2  A    between atoms: C6_15  and  N2_8 
REMARK    3  A    between atoms: C6_15  and  N3_9 
REMARK    4  A    between atoms: C7_16  and  N3_9 
REMARK    5  A    between atoms: C1_10  and  C5_14 
ROOT
HETATM    1  N3  UNK     1      18.637  -1.963  35.035  1.00  0.00    -0.332 N 
HETATM    2  H8  UNK     1      18.523  -2.927  34.730  1.00  0.00     0.168 HD
ENDROOT
BRANCH   1   3
HETATM    3  C6  UNK     1      18.772  -1.839  36.429  1.00  0.00     0.191 C 
HETATM    4  S1  UNK     1      17.976  -0.794  37.471  1.00  0.00    -0.039 SA
BRANCH   3   5
HETATM    5  N2  UNK     1      19.676  -2.729  36.998  1.00  0.00    -0.274 N 
HETATM    6  H7  UNK     1      20.630  -2.454  37.207  1.00  0.00     0.189 HD
BRANCH   5   7
HETATM    7  N1  UNK     1      19.332  -4.030  37.283  1.00  0.00    -0.267 N 
HETATM    8  C5  UNK     1      20.334  -4.957  37.476  1.00  0.00     0.247 C 
HETATM    9  O1  UNK     1      21.540  -4.747  37.421  1.00  0.00    -0.271 OA
HETATM   10  H6  UNK     1      18.347  -4.270  37.267  1.00  0.00     0.190 HD
BRANCH   8  11
HETATM   11  C1  UNK     1      19.833  -6.329  37.781  1.00  0.00     0.077 A 
HETATM   12  C2  UNK     1      19.753  -7.327  36.670  1.00  0.00     0.130 A 
HETATM   13 Cl1  UNK     1      20.018  -9.039  37.011  1.00  0.00    -0.100 Cl
HETATM   14 Cl2  UNK     1      20.243  -6.886  35.032  1.00  0.00    -0.100 Cl
HETATM   15  C3  UNK     1      18.502  -6.698  37.209  1.00  0.00     0.065 A 
HETATM   16  C4  UNK     1      20.118  -6.810  39.167  1.00  0.00     0.029 C 
ENDBRANCH   8  11
ENDBRANCH   5   7
ENDBRANCH   3   5
ENDBRANCH   1   3
BRANCH   1  17
HETATM   17  C7  UNK     1      18.696  -1.062  33.972  1.00  0.00     0.037 A 
HETATM   18  C10 UNK     1      18.298   0.259  34.153  1.00  0.00     0.067 A 
HETATM   19  C9  UNK     1      18.366   1.145  33.077  1.00  0.00     0.092 A 
HETATM   20  C8  UNK     1      18.822   0.753  31.817  1.00  0.00     0.004 A 
HETATM   21  O2  UNK     1      17.949   2.468  33.321  1.00  0.00    -0.275 OA
HETATM   22  C11 UNK     1      18.860   1.752  30.740  1.00  0.00    -0.043 A 
HETATM   23  C13 UNK     1      19.218  -0.582  31.654  1.00  0.00     0.017 A 
HETATM   24  C14 UNK     1      18.458   3.004  31.002  1.00  0.00     0.090 A 
HETATM   25  C15 UNK     1      19.344   1.363  29.374  1.00  0.00     0.049 C 
HETATM   26  C16 UNK     1      17.975   3.432  32.325  1.00  0.00     0.288 A 
HETATM   27  O3  UNK     1      17.615   4.587  32.528  1.00  0.00    -0.260 OA
HETATM   28  C12 UNK     1      19.155  -1.481  32.724  1.00  0.00     0.030 A 
ENDBRANCH   1  17
TORSDOF 5
ENDMDL
MODEL 9
REMARK VINA RESULT:      -8.7      6.475     12.090
REMARK  5 active torsions:
REMARK  status: ('A' for Active; 'I' for Inactive)
REMARK       I    between atoms: C5_14  and  N1_7 
REMARK    1  A    between atoms: N1_7  and  N2_8 
REMARK    2  A    between atoms: C6_15  and  N2_8 
REMARK    3  A    between atoms: C6_15  and  N3_9 
REMARK    4  A    between atoms: C7_16  and  N3_9 
REMARK    5  A    between atoms: C1_10  and  C5_14 
ROOT
HETATM    1  N3  UNK     1      19.583  -3.665  35.648  1.00  0.00    -0.332 N 
HETATM    2  H8  UNK     1      18.574  -3.547  35.691  1.00  0.00     0.168 HD
ENDROOT
BRANCH   1   3
HETATM    3  C6  UNK     1      20.223  -2.670  34.888  1.00  0.00     0.191 C 
HETATM    4  S1  UNK     1      20.701  -2.723  33.282  1.00  0.00    -0.039 SA
BRANCH   3   5
HETATM    5  N2  UNK     1      20.458  -1.486  35.577  1.00  0.00    -0.274 N 
HETATM    6  H7  UNK     1      21.359  -1.291  36.004  1.00  0.00     0.189 HD
BRANCH   5   7
HETATM    7  N1  UNK     1      19.481  -0.532  35.737  1.00  0.00    -0.267 N 
HETATM    8  C5  UNK     1      18.589  -0.659  36.780  1.00  0.00     0.247 C 
HETATM    9  O1  UNK     1      18.566  -1.557  37.613  1.00  0.00    -0.271 OA
HETATM   10  H6  UNK     1      19.412   0.193  35.030  1.00  0.00     0.190 HD
BRANCH   8  11
HETATM   11  C1  UNK     1      17.582   0.440  36.847  1.00  0.00     0.077 A 
HETATM   12  C2  UNK     1      16.342   0.328  36.018  1.00  0.00     0.130 A 
HETATM   13 Cl1  UNK     1      14.827   1.014  36.610  1.00  0.00    -0.100 Cl
HETATM   14 Cl2  UNK     1      16.081  -1.079  34.982  1.00  0.00    -0.100 Cl
HETATM   15  C3  UNK     1      17.429   1.284  35.622  1.00  0.00     0.065 A 
HETATM   16  C4  UNK     1      17.513   1.152  38.159  1.00  0.00     0.029 C 
ENDBRANCH   8  11
ENDBRANCH   5   7
ENDBRANCH   3   5
ENDBRANCH   1   3
BRANCH   1  17
HETATM   17  C7  UNK     1      20.036  -4.738  36.417  1.00  0.00     0.037 A 
HETATM   18  C10 UNK     1      19.574  -6.025  36.161  1.00  0.00     0.067 A 
HETATM   19  C9  UNK     1      20.041  -7.084  36.941  1.00  0.00     0.092 A 
HETATM   20  C8  UNK     1      20.960  -6.899  37.976  1.00  0.00     0.004 A 
HETATM   21  O2  UNK     1      19.537  -8.363  36.635  1.00  0.00    -0.275 OA
HETATM   22  C11 UNK     1      21.397  -8.070  38.747  1.00  0.00    -0.043 A 
HETATM   23  C13 UNK     1      21.413  -5.595  38.218  1.00  0.00     0.017 A 
HETATM   24  C14 UNK     1      20.901  -9.276  38.432  1.00  0.00     0.090 A 
HETATM   25  C15 UNK     1      22.384  -7.906  39.865  1.00  0.00     0.049 C 
HETATM   26  C16 UNK     1      19.931  -9.487  37.344  1.00  0.00     0.288 A 
HETATM   27  O3  UNK     1      19.499 -10.605  37.086  1.00  0.00    -0.260 OA
HETATM   28  C12 UNK     1      20.954  -4.523  37.444  1.00  0.00     0.030 A 
ENDBRANCH   1  17
TORSDOF 5
ENDMDL
MODEL 10
REMARK VINA RESULT:      -8.6      7.218     13.160
REMARK  5 active torsions:
REMARK  status: ('A' for Active; 'I' for Inactive)
REMARK       I    between atoms: C5_14  and  N1_7 
REMARK    1  A    between atoms: N1_7  and  N2_8 
REMARK    2  A    between atoms: C6_15  and  N2_8 
REMARK    3  A    between atoms: C6_15  and  N3_9 
REMARK    4  A    between atoms: C7_16  and  N3_9 
REMARK    5  A    between atoms: C1_10  and  C5_14 
ROOT
HETATM    1  N3  UNK     1      18.357  -5.055  36.612  1.00  0.00    -0.332 N 
HETATM    2  H8  UNK     1      17.347  -5.126  36.708  1.00  0.00     0.168 HD
ENDROOT
BRANCH   1   3
HETATM    3  C6  UNK     1      18.829  -3.734  36.712  1.00  0.00     0.191 C 
HETATM    4  S1  UNK     1      20.382  -3.197  37.048  1.00  0.00    -0.039 SA
BRANCH   3   5
HETATM    5  N2  UNK     1      17.865  -2.763  36.471  1.00  0.00    -0.274 N 
HETATM    6  H7  UNK     1      16.900  -3.011  36.275  1.00  0.00     0.189 HD
BRANCH   5   7
HETATM    7  N1  UNK     1      18.170  -1.422  36.460  1.00  0.00    -0.267 N 
HETATM    8  C5  UNK     1      17.260  -0.534  35.928  1.00  0.00     0.247 C 
HETATM    9  O1  UNK     1      16.168  -0.813  35.446  1.00  0.00    -0.271 OA
HETATM   10  H6  UNK     1      19.093  -1.148  36.782  1.00  0.00     0.190 HD
BRANCH   8  11
HETATM   11  C1  UNK     1      17.707   0.888  35.978  1.00  0.00     0.077 A 
HETATM   12  C2  UNK     1      18.346   1.483  34.764  1.00  0.00     0.130 A 
HETATM   13 Cl1  UNK     1      18.120   3.197  34.406  1.00  0.00    -0.100 Cl
HETATM   14 Cl2  UNK     1      18.564   0.517  33.302  1.00  0.00    -0.100 Cl
HETATM   15  C3  UNK     1      19.183   1.127  35.958  1.00  0.00     0.065 A 
HETATM   16  C4  UNK     1      16.903   1.770  36.878  1.00  0.00     0.029 C 
ENDBRANCH   8  11
ENDBRANCH   5   7
ENDBRANCH   3   5
ENDBRANCH   1   3
BRANCH   1  17
HETATM   17  C7  UNK     1      18.978  -6.298  36.483  1.00  0.00     0.037 A 
HETATM   18  C10 UNK     1      18.685  -7.322  37.377  1.00  0.00     0.067 A 
HETATM   19  C9  UNK     1      19.317  -8.558  37.229  1.00  0.00     0.092 A 
HETATM   20  C8  UNK     1      20.239  -8.806  36.210  1.00  0.00     0.004 A 
HETATM   21  O2  UNK     1      18.980  -9.555  38.165  1.00  0.00    -0.275 OA
HETATM   22  C11 UNK     1      20.857 -10.136  36.130  1.00  0.00    -0.043 A 
HETATM   23  C13 UNK     1      20.521  -7.761  35.320  1.00  0.00     0.017 A 
HETATM   24  C14 UNK     1      20.516 -11.066  37.034  1.00  0.00     0.090 A 
HETATM   25  C15 UNK     1      21.851 -10.435  35.046  1.00  0.00     0.049 C 
HETATM   26  C16 UNK     1      19.546 -10.819  38.114  1.00  0.00     0.288 A 
HETATM   27  O3  UNK     1      19.259 -11.695  38.923  1.00  0.00    -0.260 OA
HETATM   28  C12 UNK     1      19.895  -6.517  35.455  1.00  0.00     0.030 A 
ENDBRANCH   1  17
TORSDOF 5
ENDMDL
