MODEL 1
REMARK VINA RESULT:      -7.6      0.000      0.000
REMARK  4 active torsions:
REMARK  status: ('A' for Active; 'I' for Inactive)
REMARK    1  A    between atoms: C12_16  and  O2_2 
REMARK    2  A    between atoms: C20_24  and  O2_2 
REMARK    3  A    between atoms: C1_5  and  C2_6 
REMARK    4  A    between atoms: C11_15  and  C8_12 
ROOT
HETATM    1  N1  UNK     1      15.199   4.257   9.741  1.00  0.00    -0.195 NA
HETATM    2  C20 UNK     1      16.442   6.568   9.737  1.00  0.00     0.299 C 
HETATM    3  C21 UNK     1      15.748   5.280   9.740  1.00  0.00     0.085 C 
ENDROOT
BRANCH   2   4
HETATM    4  O2  UNK     1      15.605   7.581  10.265  1.00  0.00    -0.331 OA
BRANCH   4   5
HETATM    5  C12 UNK     1      15.732   8.747   9.541  1.00  0.00     0.155 A 
HETATM    6  C11 UNK     1      14.751   9.246   8.768  1.00  0.00     0.123 A 
HETATM    7  O1  UNK     1      14.848  10.400   8.009  1.00  0.00    -0.306 OA
HETATM    8  C14 UNK     1      16.023  11.107   8.049  1.00  0.00     0.090 A 
HETATM    9  C13 UNK     1      17.119  10.709   8.813  1.00  0.00     0.051 A 
HETATM   10  C17 UNK     1      16.092  12.270   7.281  1.00  0.00     0.038 A 
HETATM   11  C15 UNK     1      17.021   9.478   9.613  1.00  0.00     0.221 A 
HETATM   12  C16 UNK     1      18.290  11.470   8.815  1.00  0.00     0.018 A 
HETATM   13  O3  UNK     1      17.950   9.078  10.301  1.00  0.00    -0.284 OA
HETATM   14  C18 UNK     1      18.357  12.633   8.047  1.00  0.00     0.001 A 
HETATM   15  C19 UNK     1      17.260  13.032   7.281  1.00  0.00     0.003 A 
BRANCH   6  16
HETATM   16  C8  UNK     1      13.485   8.593   8.648  1.00  0.00     0.001 A 
HETATM   17  C10 UNK     1      12.403   9.022   9.417  1.00  0.00     0.015 A 
HETATM   18  C7  UNK     1      11.167   8.385   9.300  1.00  0.00     0.009 A 
HETATM   19  C2  UNK     1      11.013   7.319   8.414  1.00  0.00    -0.051 A 
HETATM   20  C6  UNK     1      12.095   6.891   7.644  1.00  0.00     0.009 A 
HETATM   21  C9  UNK     1      13.330   7.528   7.762  1.00  0.00     0.015 A 
BRANCH  19  22
HETATM   22  C1  UNK     1       9.693   6.638   8.289  1.00  0.00    -0.024 C 
HETATM   23  C3  UNK     1       9.620   5.375   9.203  1.00  0.00     0.019 C 
HETATM   24  C4  UNK     1       9.432   6.172   6.822  1.00  0.00     0.019 C 
HETATM   25  C5  UNK     1       8.450   7.506   8.676  1.00  0.00     0.019 C 
ENDBRANCH  19  22
ENDBRANCH   6  16
ENDBRANCH   4   5
ENDBRANCH   2   4
TORSDOF 4
ENDMDL
MODEL 2
REMARK VINA RESULT:      -7.5     28.511     31.024
REMARK  4 active torsions:
REMARK  status: ('A' for Active; 'I' for Inactive)
REMARK    1  A    between atoms: C12_16  and  O2_2 
REMARK    2  A    between atoms: C20_24  and  O2_2 
REMARK    3  A    between atoms: C1_5  and  C2_6 
REMARK    4  A    between atoms: C11_15  and  C8_12 
ROOT
HETATM    1  N1  UNK     1      20.794  -2.867  30.896  1.00  0.00    -0.195 NA
HETATM    2  C20 UNK     1      21.149  -2.499  33.470  1.00  0.00     0.299 C 
HETATM    3  C21 UNK     1      20.951  -2.704  32.034  1.00  0.00     0.085 C 
ENDROOT
BRANCH   2   4
HETATM    4  O2  UNK     1      20.194  -3.235  34.211  1.00  0.00    -0.331 OA
BRANCH   4   5
HETATM    5  C12 UNK     1      19.618  -2.448  35.185  1.00  0.00     0.155 A 
HETATM    6  C11 UNK     1      19.508  -2.827  36.471  1.00  0.00     0.123 A 
HETATM    7  O1  UNK     1      18.916  -2.076  37.472  1.00  0.00    -0.306 OA
HETATM    8  C14 UNK     1      18.411  -0.843  37.146  1.00  0.00     0.090 A 
HETATM    9  C13 UNK     1      18.463  -0.322  35.854  1.00  0.00     0.051 A 
HETATM   10  C17 UNK     1      17.827  -0.103  38.175  1.00  0.00     0.038 A 
HETATM   11  C15 UNK     1      19.083  -1.122  34.787  1.00  0.00     0.221 A 
HETATM   12  C16 UNK     1      17.931   0.940  35.582  1.00  0.00     0.018 A 
HETATM   13  O3  UNK     1      19.155  -0.719  33.635  1.00  0.00    -0.284 OA
HETATM   14  C18 UNK     1      17.347   1.679  36.612  1.00  0.00     0.001 A 
HETATM   15  C19 UNK     1      17.295   1.159  37.906  1.00  0.00     0.003 A 
BRANCH   6  16
HETATM   16  C8  UNK     1      19.998  -4.091  36.925  1.00  0.00     0.001 A 
HETATM   17  C10 UNK     1      21.215  -4.166  37.601  1.00  0.00     0.015 A 
HETATM   18  C7  UNK     1      21.693  -5.400  38.044  1.00  0.00     0.009 A 
HETATM   19  C2  UNK     1      20.953  -6.559  37.810  1.00  0.00    -0.051 A 
HETATM   20  C6  UNK     1      19.735  -6.483  37.135  1.00  0.00     0.009 A 
HETATM   21  C9  UNK     1      19.258  -5.250  36.692  1.00  0.00     0.015 A 
BRANCH  19  22
HETATM   22  C1  UNK     1      21.463  -7.877  38.284  1.00  0.00    -0.024 C 
HETATM   23  C3  UNK     1      22.200  -7.739  39.653  1.00  0.00     0.019 C 
HETATM   24  C4  UNK     1      22.473  -8.493  37.266  1.00  0.00     0.019 C 
HETATM   25  C5  UNK     1      20.374  -8.979  38.506  1.00  0.00     0.019 C 
ENDBRANCH  19  22
ENDBRANCH   6  16
ENDBRANCH   4   5
ENDBRANCH   2   4
TORSDOF 4
ENDMDL
MODEL 3
REMARK VINA RESULT:      -7.4     29.270     31.866
REMARK  4 active torsions:
REMARK  status: ('A' for Active; 'I' for Inactive)
REMARK    1  A    between atoms: C12_16  and  O2_2 
REMARK    2  A    between atoms: C20_24  and  O2_2 
REMARK    3  A    between atoms: C1_5  and  C2_6 
REMARK    4  A    between atoms: C11_15  and  C8_12 
ROOT
HETATM    1  N1  UNK     1      15.239  -6.952  34.857  1.00  0.00    -0.195 NA
HETATM    2  C20 UNK     1      17.685  -6.921  35.807  1.00  0.00     0.299 C 
HETATM    3  C21 UNK     1      16.321  -6.938  35.277  1.00  0.00     0.085 C 
ENDROOT
BRANCH   2   4
HETATM    4  O2  UNK     1      17.822  -5.909  36.787  1.00  0.00    -0.331 OA
BRANCH   4   5
HETATM    5  C12 UNK     1      19.106  -5.883  37.288  1.00  0.00     0.155 A 
HETATM    6  C11 UNK     1      19.905  -4.804  37.215  1.00  0.00     0.123 A 
HETATM    7  O1  UNK     1      21.206  -4.747  37.685  1.00  0.00    -0.306 OA
HETATM    8  C14 UNK     1      21.730  -5.864  38.285  1.00  0.00     0.090 A 
HETATM    9  C13 UNK     1      21.012  -7.049  38.434  1.00  0.00     0.051 A 
HETATM   10  C17 UNK     1      23.040  -5.777  38.756  1.00  0.00     0.038 A 
HETATM   11  C15 UNK     1      19.632  -7.114  37.927  1.00  0.00     0.221 A 
HETATM   12  C16 UNK     1      21.597  -8.155  39.054  1.00  0.00     0.018 A 
HETATM   13  O3  UNK     1      18.954  -8.128  38.027  1.00  0.00    -0.284 OA
HETATM   14  C18 UNK     1      22.908  -8.067  39.525  1.00  0.00     0.001 A 
HETATM   15  C19 UNK     1      23.628  -6.880  39.377  1.00  0.00     0.003 A 
BRANCH   6  16
HETATM   16  C8  UNK     1      19.467  -3.585  36.610  1.00  0.00     0.001 A 
HETATM   17  C10 UNK     1      20.068  -3.132  35.436  1.00  0.00     0.015 A 
HETATM   18  C7  UNK     1      19.641  -1.942  34.846  1.00  0.00     0.009 A 
HETATM   19  C2  UNK     1      18.612  -1.204  35.432  1.00  0.00    -0.051 A 
HETATM   20  C6  UNK     1      18.010  -1.658  36.606  1.00  0.00     0.009 A 
HETATM   21  C9  UNK     1      18.438  -2.847  37.195  1.00  0.00     0.015 A 
BRANCH  19  22
HETATM   22  C1  UNK     1      18.155   0.067  34.802  1.00  0.00    -0.024 C 
HETATM   23  C3  UNK     1      16.600   0.199  34.858  1.00  0.00     0.019 C 
HETATM   24  C4  UNK     1      18.579   0.141  33.302  1.00  0.00     0.019 C 
HETATM   25  C5  UNK     1      18.707   1.377  35.455  1.00  0.00     0.019 C 
ENDBRANCH  19  22
ENDBRANCH   6  16
ENDBRANCH   4   5
ENDBRANCH   2   4
TORSDOF 4
ENDMDL
MODEL 4
REMARK VINA RESULT:      -7.4     31.265     34.409
REMARK  4 active torsions:
REMARK  status: ('A' for Active; 'I' for Inactive)
REMARK    1  A    between atoms: C12_16  and  O2_2 
REMARK    2  A    between atoms: C20_24  and  O2_2 
REMARK    3  A    between atoms: C1_5  and  C2_6 
REMARK    4  A    between atoms: C11_15  and  C8_12 
ROOT
HETATM    1  N1  UNK     1      32.897  -4.329  35.084  1.00  0.00    -0.195 NA
HETATM    2  C20 UNK     1      31.451  -6.416  34.422  1.00  0.00     0.299 C 
HETATM    3  C21 UNK     1      32.257  -5.252  34.791  1.00  0.00     0.085 C 
ENDROOT
BRANCH   2   4
HETATM    4  O2  UNK     1      30.074  -6.090  34.441  1.00  0.00    -0.331 OA
BRANCH   4   5
HETATM    5  C12 UNK     1      29.377  -6.959  35.253  1.00  0.00     0.155 A 
HETATM    6  C11 UNK     1      28.821  -8.100  34.807  1.00  0.00     0.123 A 
HETATM    7  O1  UNK     1      28.094  -8.985  35.586  1.00  0.00    -0.306 OA
HETATM    8  C14 UNK     1      27.931  -8.698  36.917  1.00  0.00     0.090 A 
HETATM    9  C13 UNK     1      28.458  -7.553  37.513  1.00  0.00     0.051 A 
HETATM   10  C17 UNK     1      27.201  -9.609  37.679  1.00  0.00     0.038 A 
HETATM   11  C15 UNK     1      29.223  -6.607  36.686  1.00  0.00     0.221 A 
HETATM   12  C16 UNK     1      28.260  -7.312  38.874  1.00  0.00     0.018 A 
HETATM   13  O3  UNK     1      29.707  -5.585  37.153  1.00  0.00    -0.284 OA
HETATM   14  C18 UNK     1      27.530  -8.226  39.636  1.00  0.00     0.001 A 
HETATM   15  C19 UNK     1      27.001  -9.372  39.040  1.00  0.00     0.003 A 
BRANCH   6  16
HETATM   16  C8  UNK     1      28.926  -8.502  33.440  1.00  0.00     0.001 A 
HETATM   17  C10 UNK     1      28.165  -7.859  32.463  1.00  0.00     0.015 A 
HETATM   18  C7  UNK     1      28.267  -8.251  31.128  1.00  0.00     0.009 A 
HETATM   19  C2  UNK     1      29.130  -9.287  30.770  1.00  0.00    -0.051 A 
HETATM   20  C6  UNK     1      29.891  -9.930  31.747  1.00  0.00     0.009 A 
HETATM   21  C9  UNK     1      29.788  -9.537  33.081  1.00  0.00     0.015 A 
BRANCH  19  22
HETATM   22  C1  UNK     1      29.239  -9.707  29.343  1.00  0.00    -0.024 C 
HETATM   23  C3  UNK     1      30.113  -8.705  28.525  1.00  0.00     0.019 C 
HETATM   24  C4  UNK     1      27.836  -9.772  28.663  1.00  0.00     0.019 C 
HETATM   25  C5  UNK     1      29.882 -11.113  29.104  1.00  0.00     0.019 C 
ENDBRANCH  19  22
ENDBRANCH   6  16
ENDBRANCH   4   5
ENDBRANCH   2   4
TORSDOF 4
ENDMDL
MODEL 5
REMARK VINA RESULT:      -7.3     36.166     37.075
REMARK  4 active torsions:
REMARK  status: ('A' for Active; 'I' for Inactive)
REMARK    1  A    between atoms: C12_16  and  O2_2 
REMARK    2  A    between atoms: C20_24  and  O2_2 
REMARK    3  A    between atoms: C1_5  and  C2_6 
REMARK    4  A    between atoms: C11_15  and  C8_12 
ROOT
HETATM    1  N1  UNK     1      30.324  -4.556  39.028  1.00  0.00    -0.195 NA
HETATM    2  C20 UNK     1      32.466  -4.940  37.561  1.00  0.00     0.299 C 
HETATM    3  C21 UNK     1      31.272  -4.726  38.379  1.00  0.00     0.085 C 
ENDROOT
BRANCH   2   4
HETATM    4  O2  UNK     1      33.104  -6.150  37.925  1.00  0.00    -0.331 OA
BRANCH   4   5
HETATM    5  C12 UNK     1      33.471  -6.866  36.806  1.00  0.00     0.155 A 
HETATM    6  C11 UNK     1      32.717  -7.847  36.277  1.00  0.00     0.123 A 
HETATM    7  O1  UNK     1      33.061  -8.603  35.170  1.00  0.00    -0.306 OA
HETATM    8  C14 UNK     1      34.252  -8.335  34.545  1.00  0.00     0.090 A 
HETATM    9  C13 UNK     1      35.128  -7.343  34.981  1.00  0.00     0.051 A 
HETATM   10  C17 UNK     1      34.572  -9.107  33.428  1.00  0.00     0.038 A 
HETATM   11  C15 UNK     1      34.769  -6.544  36.163  1.00  0.00     0.221 A 
HETATM   12  C16 UNK     1      36.328  -7.115  34.305  1.00  0.00     0.018 A 
HETATM   13  O3  UNK     1      35.498  -5.661  36.594  1.00  0.00    -0.284 OA
HETATM   14  C18 UNK     1      36.646  -7.888  33.187  1.00  0.00     0.001 A 
HETATM   15  C19 UNK     1      35.770  -8.882  32.749  1.00  0.00     0.003 A 
BRANCH   6  16
HETATM   16  C8  UNK     1      31.457  -8.214  36.845  1.00  0.00     0.001 A 
HETATM   17  C10 UNK     1      30.284  -7.612  36.390  1.00  0.00     0.015 A 
HETATM   18  C7  UNK     1      29.055  -7.970  36.944  1.00  0.00     0.009 A 
HETATM   19  C2  UNK     1      28.999  -8.930  37.955  1.00  0.00    -0.051 A 
HETATM   20  C6  UNK     1      30.172  -9.532  38.409  1.00  0.00     0.009 A 
HETATM   21  C9  UNK     1      31.401  -9.174  37.855  1.00  0.00     0.015 A 
BRANCH  19  22
HETATM   22  C1  UNK     1      27.686  -9.313  38.547  1.00  0.00    -0.024 C 
HETATM   23  C3  UNK     1      27.876 -10.198  39.819  1.00  0.00     0.019 C 
HETATM   24  C4  UNK     1      26.822 -10.126  37.533  1.00  0.00     0.019 C 
HETATM   25  C5  UNK     1      26.780  -8.120  39.002  1.00  0.00     0.019 C 
ENDBRANCH  19  22
ENDBRANCH   6  16
ENDBRANCH   4   5
ENDBRANCH   2   4
TORSDOF 4
ENDMDL
MODEL 6
REMARK VINA RESULT:      -7.3     30.969     34.194
REMARK  4 active torsions:
REMARK  status: ('A' for Active; 'I' for Inactive)
REMARK    1  A    between atoms: C12_16  and  O2_2 
REMARK    2  A    between atoms: C20_24  and  O2_2 
REMARK    3  A    between atoms: C1_5  and  C2_6 
REMARK    4  A    between atoms: C11_15  and  C8_12 
ROOT
HETATM    1  N1  UNK     1      35.905  -7.704  28.463  1.00  0.00    -0.195 NA
HETATM    2  C20 UNK     1      34.191  -7.298  30.408  1.00  0.00     0.299 C 
HETATM    3  C21 UNK     1      35.147  -7.525  29.323  1.00  0.00     0.085 C 
ENDROOT
BRANCH   2   4
HETATM    4  O2  UNK     1      33.723  -8.531  30.920  1.00  0.00    -0.331 OA
BRANCH   4   5
HETATM    5  C12 UNK     1      32.358  -8.639  30.766  1.00  0.00     0.155 A 
HETATM    6  C11 UNK     1      31.476  -8.258  31.707  1.00  0.00     0.123 A 
HETATM    7  O1  UNK     1      30.100  -8.373  31.598  1.00  0.00    -0.306 OA
HETATM    8  C14 UNK     1      29.581  -8.900  30.443  1.00  0.00     0.090 A 
HETATM    9  C13 UNK     1      30.378  -9.330  29.384  1.00  0.00     0.051 A 
HETATM   10  C17 UNK     1      28.192  -8.997  30.357  1.00  0.00     0.038 A 
HETATM   11  C15 UNK     1      31.841  -9.218  29.501  1.00  0.00     0.221 A 
HETATM   12  C16 UNK     1      29.794  -9.859  28.232  1.00  0.00     0.018 A 
HETATM   13  O3  UNK     1      32.591  -9.580  28.605  1.00  0.00    -0.284 OA
HETATM   14  C18 UNK     1      28.404  -9.955  28.146  1.00  0.00     0.001 A 
HETATM   15  C19 UNK     1      27.604  -9.525  29.206  1.00  0.00     0.003 A 
BRANCH   6  16
HETATM   16  C8  UNK     1      31.901  -7.696  32.951  1.00  0.00     0.001 A 
HETATM   17  C10 UNK     1      31.853  -6.316  33.147  1.00  0.00     0.015 A 
HETATM   18  C7  UNK     1      32.268  -5.768  34.361  1.00  0.00     0.009 A 
HETATM   19  C2  UNK     1      32.733  -6.601  35.379  1.00  0.00    -0.051 A 
HETATM   20  C6  UNK     1      32.781  -7.981  35.183  1.00  0.00     0.009 A 
HETATM   21  C9  UNK     1      32.366  -8.528  33.969  1.00  0.00     0.015 A 
BRANCH  19  22
HETATM   22  C1  UNK     1      33.177  -6.015  36.676  1.00  0.00    -0.024 C 
HETATM   23  C3  UNK     1      32.531  -4.614  36.914  1.00  0.00     0.019 C 
HETATM   24  C4  UNK     1      34.726  -5.830  36.713  1.00  0.00     0.019 C 
HETATM   25  C5  UNK     1      32.828  -6.857  37.948  1.00  0.00     0.019 C 
ENDBRANCH  19  22
ENDBRANCH   6  16
ENDBRANCH   4   5
ENDBRANCH   2   4
TORSDOF 4
ENDMDL
MODEL 7
REMARK VINA RESULT:      -7.3     35.471     36.980
REMARK  4 active torsions:
REMARK  status: ('A' for Active; 'I' for Inactive)
REMARK    1  A    between atoms: C12_16  and  O2_2 
REMARK    2  A    between atoms: C20_24  and  O2_2 
REMARK    3  A    between atoms: C1_5  and  C2_6 
REMARK    4  A    between atoms: C11_15  and  C8_12 
ROOT
HETATM    1  N1  UNK     1      34.195  -3.555  34.925  1.00  0.00    -0.195 NA
HETATM    2  C20 UNK     1      32.069  -3.752  36.451  1.00  0.00     0.299 C 
HETATM    3  C21 UNK     1      33.255  -3.642  35.600  1.00  0.00     0.085 C 
ENDROOT
BRANCH   2   4
HETATM    4  O2  UNK     1      32.352  -4.534  37.596  1.00  0.00    -0.331 OA
BRANCH   4   5
HETATM    5  C12 UNK     1      31.486  -5.603  37.685  1.00  0.00     0.155 A 
HETATM    6  C11 UNK     1      31.646  -6.742  36.988  1.00  0.00     0.123 A 
HETATM    7  O1  UNK     1      30.787  -7.827  37.033  1.00  0.00    -0.306 OA
HETATM    8  C14 UNK     1      29.692  -7.755  37.857  1.00  0.00     0.090 A 
HETATM    9  C13 UNK     1      29.408  -6.638  38.640  1.00  0.00     0.051 A 
HETATM   10  C17 UNK     1      28.847  -8.864  37.889  1.00  0.00     0.038 A 
HETATM   11  C15 UNK     1      30.314  -5.480  38.587  1.00  0.00     0.221 A 
HETATM   12  C16 UNK     1      28.278  -6.621  39.460  1.00  0.00     0.018 A 
HETATM   13  O3  UNK     1      30.115  -4.471  39.250  1.00  0.00    -0.284 OA
HETATM   14  C18 UNK     1      27.433  -7.732  39.492  1.00  0.00     0.001 A 
HETATM   15  C19 UNK     1      27.717  -8.851  38.708  1.00  0.00     0.003 A 
BRANCH   6  16
HETATM   16  C8  UNK     1      32.749  -6.929  36.098  1.00  0.00     0.001 A 
HETATM   17  C10 UNK     1      34.050  -6.979  36.599  1.00  0.00     0.015 A 
HETATM   18  C7  UNK     1      35.126  -7.162  35.731  1.00  0.00     0.009 A 
HETATM   19  C2  UNK     1      34.901  -7.293  34.360  1.00  0.00    -0.051 A 
HETATM   20  C6  UNK     1      33.600  -7.244  33.860  1.00  0.00     0.009 A 
HETATM   21  C9  UNK     1      32.525  -7.062  34.728  1.00  0.00     0.015 A 
BRANCH  19  22
HETATM   22  C1  UNK     1      36.051  -7.488  33.432  1.00  0.00    -0.024 C 
HETATM   23  C3  UNK     1      37.412  -7.392  34.190  1.00  0.00     0.019 C 
HETATM   24  C4  UNK     1      36.062  -6.406  32.308  1.00  0.00     0.019 C 
HETATM   25  C5  UNK     1      36.087  -8.863  32.685  1.00  0.00     0.019 C 
ENDBRANCH  19  22
ENDBRANCH   6  16
ENDBRANCH   4   5
ENDBRANCH   2   4
TORSDOF 4
ENDMDL
MODEL 8
REMARK VINA RESULT:      -7.3     35.112     36.123
REMARK  4 active torsions:
REMARK  status: ('A' for Active; 'I' for Inactive)
REMARK    1  A    between atoms: C12_16  and  O2_2 
REMARK    2  A    between atoms: C20_24  and  O2_2 
REMARK    3  A    between atoms: C1_5  and  C2_6 
REMARK    4  A    between atoms: C11_15  and  C8_12 
ROOT
HETATM    1  N1  UNK     1      29.078  -4.348  39.451  1.00  0.00    -0.195 NA
HETATM    2  C20 UNK     1      31.244  -4.676  38.007  1.00  0.00     0.299 C 
HETATM    3  C21 UNK     1      30.036  -4.493  38.812  1.00  0.00     0.085 C 
ENDROOT
BRANCH   2   4
HETATM    4  O2  UNK     1      30.912  -4.797  36.637  1.00  0.00    -0.331 OA
BRANCH   4   5
HETATM    5  C12 UNK     1      31.769  -5.668  36.000  1.00  0.00     0.155 A 
HETATM    6  C11 UNK     1      31.544  -6.991  35.910  1.00  0.00     0.123 A 
HETATM    7  O1  UNK     1      32.392  -7.901  35.301  1.00  0.00    -0.306 OA
HETATM    8  C14 UNK     1      33.546  -7.430  34.728  1.00  0.00     0.090 A 
HETATM    9  C13 UNK     1      33.902  -6.083  34.742  1.00  0.00     0.051 A 
HETATM   10  C17 UNK     1      34.378  -8.366  34.114  1.00  0.00     0.038 A 
HETATM   11  C15 UNK     1      33.007  -5.116  35.397  1.00  0.00     0.221 A 
HETATM   12  C16 UNK     1      35.091  -5.661  34.142  1.00  0.00     0.018 A 
HETATM   13  O3  UNK     1      33.268  -3.921  35.443  1.00  0.00    -0.284 OA
HETATM   14  C18 UNK     1      35.922  -6.599  33.528  1.00  0.00     0.001 A 
HETATM   15  C19 UNK     1      35.567  -7.949  33.513  1.00  0.00     0.003 A 
BRANCH   6  16
HETATM   16  C8  UNK     1      30.375  -7.594  36.471  1.00  0.00     0.001 A 
HETATM   17  C10 UNK     1      29.137  -7.421  35.854  1.00  0.00     0.015 A 
HETATM   18  C7  UNK     1      27.996  -8.009  36.401  1.00  0.00     0.009 A 
HETATM   19  C2  UNK     1      28.094  -8.769  37.566  1.00  0.00    -0.051 A 
HETATM   20  C6  UNK     1      29.334  -8.942  38.183  1.00  0.00     0.009 A 
HETATM   21  C9  UNK     1      30.473  -8.354  37.636  1.00  0.00     0.015 A 
BRANCH  19  22
HETATM   22  C1  UNK     1      26.875  -9.397  38.152  1.00  0.00    -0.024 C 
HETATM   23  C3  UNK     1      27.234 -10.286  39.384  1.00  0.00     0.019 C 
HETATM   24  C4  UNK     1      26.151 -10.307  37.111  1.00  0.00     0.019 C 
HETATM   25  C5  UNK     1      25.783  -8.399  38.662  1.00  0.00     0.019 C 
ENDBRANCH  19  22
ENDBRANCH   6  16
ENDBRANCH   4   5
ENDBRANCH   2   4
TORSDOF 4
ENDMDL
MODEL 9
REMARK VINA RESULT:      -7.1     30.973     34.046
REMARK  4 active torsions:
REMARK  status: ('A' for Active; 'I' for Inactive)
REMARK    1  A    between atoms: C12_16  and  O2_2 
REMARK    2  A    between atoms: C20_24  and  O2_2 
REMARK    3  A    between atoms: C1_5  and  C2_6 
REMARK    4  A    between atoms: C11_15  and  C8_12 
ROOT
HETATM    1  N1  UNK     1      36.452  -7.327  32.290  1.00  0.00    -0.195 NA
HETATM    2  C20 UNK     1      34.128  -7.668  31.121  1.00  0.00     0.299 C 
HETATM    3  C21 UNK     1      35.424  -7.478  31.773  1.00  0.00     0.085 C 
ENDROOT
BRANCH   2   4
HETATM    4  O2  UNK     1      33.386  -8.677  31.780  1.00  0.00    -0.331 OA
BRANCH   4   5
HETATM    5  C12 UNK     1      32.099  -8.737  31.291  1.00  0.00     0.155 A 
HETATM    6  C11 UNK     1      31.056  -8.124  31.880  1.00  0.00     0.123 A 
HETATM    7  O1  UNK     1      29.747  -8.180  31.433  1.00  0.00    -0.306 OA
HETATM    8  C14 UNK     1      29.478  -8.899  30.297  1.00  0.00     0.090 A 
HETATM    9  C13 UNK     1      30.463  -9.579  29.582  1.00  0.00     0.051 A 
HETATM   10  C17 UNK     1      28.153  -8.933  29.865  1.00  0.00     0.038 A 
HETATM   11  C15 UNK     1      31.854  -9.529  30.061  1.00  0.00     0.221 A 
HETATM   12  C16 UNK     1      30.131 -10.297  28.432  1.00  0.00     0.018 A 
HETATM   13  O3  UNK     1      32.760 -10.107  29.476  1.00  0.00    -0.284 OA
HETATM   14  C18 UNK     1      28.804 -10.329  28.000  1.00  0.00     0.001 A 
HETATM   15  C19 UNK     1      27.816  -9.649  28.714  1.00  0.00     0.003 A 
BRANCH   6  16
HETATM   16  C8  UNK     1      31.217  -7.347  33.070  1.00  0.00     0.001 A 
HETATM   17  C10 UNK     1      31.477  -5.980  32.981  1.00  0.00     0.015 A 
HETATM   18  C7  UNK     1      31.633  -5.222  34.142  1.00  0.00     0.009 A 
HETATM   19  C2  UNK     1      31.531  -5.832  35.392  1.00  0.00    -0.051 A 
HETATM   20  C6  UNK     1      31.270  -7.200  35.480  1.00  0.00     0.009 A 
HETATM   21  C9  UNK     1      31.113  -7.957  34.320  1.00  0.00     0.015 A 
BRANCH  19  22
HETATM   22  C1  UNK     1      31.698  -5.023  36.633  1.00  0.00    -0.024 C 
HETATM   23  C3  UNK     1      32.728  -5.683  37.603  1.00  0.00     0.019 C 
HETATM   24  C4  UNK     1      30.349  -4.882  37.404  1.00  0.00     0.019 C 
HETATM   25  C5  UNK     1      32.208  -3.560  36.417  1.00  0.00     0.019 C 
ENDBRANCH  19  22
ENDBRANCH   6  16
ENDBRANCH   4   5
ENDBRANCH   2   4
TORSDOF 4
ENDMDL
MODEL 10
REMARK VINA RESULT:      -7.0     31.609     34.492
REMARK  4 active torsions:
REMARK  status: ('A' for Active; 'I' for Inactive)
REMARK    1  A    between atoms: C12_16  and  O2_2 
REMARK    2  A    between atoms: C20_24  and  O2_2 
REMARK    3  A    between atoms: C1_5  and  C2_6 
REMARK    4  A    between atoms: C11_15  and  C8_12 
ROOT
HETATM    1  N1  UNK     1      35.566  -6.229  33.104  1.00  0.00    -0.195 NA
HETATM    2  C20 UNK     1      34.232  -4.843  34.889  1.00  0.00     0.299 C 
HETATM    3  C21 UNK     1      34.976  -5.616  33.893  1.00  0.00     0.085 C 
ENDROOT
BRANCH   2   4
HETATM    4  O2  UNK     1      32.994  -4.411  34.355  1.00  0.00    -0.331 OA
BRANCH   4   5
HETATM    5  C12 UNK     1      31.943  -4.900  35.099  1.00  0.00     0.155 A 
HETATM    6  C11 UNK     1      31.144  -5.899  34.680  1.00  0.00     0.123 A 
HETATM    7  O1  UNK     1      30.065  -6.401  35.387  1.00  0.00    -0.306 OA
HETATM    8  C14 UNK     1      29.784  -5.860  36.616  1.00  0.00     0.090 A 
HETATM    9  C13 UNK     1      30.532  -4.826  37.175  1.00  0.00     0.051 A 
HETATM   10  C17 UNK     1      28.696  -6.390  37.310  1.00  0.00     0.038 A 
HETATM   11  C15 UNK     1      31.674  -4.283  36.421  1.00  0.00     0.221 A 
HETATM   12  C16 UNK     1      30.199  -4.313  38.430  1.00  0.00     0.018 A 
HETATM   13  O3  UNK     1      32.365  -3.374  36.860  1.00  0.00    -0.284 OA
HETATM   14  C18 UNK     1      29.110  -4.845  39.124  1.00  0.00     0.001 A 
HETATM   15  C19 UNK     1      28.360  -5.881  38.565  1.00  0.00     0.003 A 
BRANCH   6  16
HETATM   16  C8  UNK     1      31.342  -6.537  33.416  1.00  0.00     0.001 A 
HETATM   17  C10 UNK     1      30.738  -6.020  32.271  1.00  0.00     0.015 A 
HETATM   18  C7  UNK     1      30.931  -6.643  31.037  1.00  0.00     0.009 A 
HETATM   19  C2  UNK     1      31.726  -7.786  30.951  1.00  0.00    -0.051 A 
HETATM   20  C6  UNK     1      32.330  -8.303  32.097  1.00  0.00     0.009 A 
HETATM   21  C9  UNK     1      32.137  -7.679  33.329  1.00  0.00     0.015 A 
BRANCH  19  22
HETATM   22  C1  UNK     1      31.932  -8.453  29.633  1.00  0.00    -0.024 C 
HETATM   23  C3  UNK     1      30.833  -8.030  28.608  1.00  0.00     0.019 C 
HETATM   24  C4  UNK     1      31.875 -10.006  29.769  1.00  0.00     0.019 C 
HETATM   25  C5  UNK     1      33.297  -8.147  28.931  1.00  0.00     0.019 C 
ENDBRANCH  19  22
ENDBRANCH   6  16
ENDBRANCH   4   5
ENDBRANCH   2   4
TORSDOF 4
ENDMDL
