MODEL 1
REMARK VINA RESULT:     -10.6      0.000      0.000
REMARK  5 active torsions:
REMARK  status: ('A' for Active; 'I' for Inactive)
REMARK    1  A    between atoms: C11_15  and  O1_1 
REMARK    2  A    between atoms: C17_21  and  O1_1 
REMARK    3  A    between atoms: C12_16  and  O4_4 
REMARK    4  A    between atoms: C6_10  and  C7_11 
REMARK    5  A    between atoms: C17_21  and  C18_22 
ROOT
HETATM    1  C7  UNK     1      18.863   5.607  32.289  1.00  0.00    -0.032 A 
HETATM    2  C10 UNK     1      18.326   4.546  32.998  1.00  0.00     0.051 A 
HETATM    3  C11 UNK     1      18.364   3.220  30.979  1.00  0.00     0.102 A 
HETATM    4  C12 UNK     1      18.074   3.344  32.337  1.00  0.00     0.102 A 
HETATM    5  C13 UNK     1      19.156   5.503  30.940  1.00  0.00     0.014 A 
HETATM    6  C14 UNK     1      18.905   4.299  30.280  1.00  0.00     0.040 A 
ENDROOT
BRANCH   1   7
HETATM    7  C6  UNK     1      19.129   6.879  32.989  1.00  0.00     0.031 C 
HETATM    8  C1  UNK     1      18.254   7.866  33.176  1.00  0.00     0.067 A 
HETATM    9  C4  UNK     1      18.545   9.139  33.885  1.00  0.00     0.197 A 
HETATM   10  C5  UNK     1      16.845   7.856  32.706  1.00  0.00     0.197 A 
HETATM   11  C2  UNK     1      17.280   9.886  33.827  1.00  0.00     0.029 A 
HETATM   12  O2  UNK     1      19.583   9.494  34.399  1.00  0.00    -0.286 OA
HETATM   13  C3  UNK     1      16.303   9.148  33.150  1.00  0.00     0.029 A 
HETATM   14  C8  UNK     1      17.013  11.139  34.343  1.00  0.00     0.016 A 
HETATM   15  C9  UNK     1      15.024   9.638  32.964  1.00  0.00     0.016 A 
HETATM   16  C16 UNK     1      14.740  10.905  33.481  1.00  0.00     0.001 A 
HETATM   17  C15 UNK     1      15.724  11.648  34.164  1.00  0.00     0.001 A 
HETATM   18  O3  UNK     1      16.262   6.987  32.096  1.00  0.00    -0.286 OA
ENDBRANCH   1   7
BRANCH   4  19
HETATM   19  O4  UNK     1      17.546   2.296  33.031  1.00  0.00    -0.353 OA
HETATM   20  C24 UNK     1      18.229   1.893  34.215  1.00  0.00     0.210 C 
ENDBRANCH   4  19
BRANCH   3  21
HETATM   21  O1  UNK     1      18.123   2.051  30.323  1.00  0.00    -0.344 OA
BRANCH  21  22
HETATM   22  C17 UNK     1      19.142   1.580  29.442  1.00  0.00     0.214 C 
BRANCH  22  23
HETATM   23  C18 UNK     1      19.597   0.226  29.900  1.00  0.00    -0.034 A 
HETATM   24  C19 UNK     1      19.451  -0.133  31.236  1.00  0.00     0.009 A 
HETATM   25  C21 UNK     1      19.875  -1.391  31.664  1.00  0.00     0.001 A 
HETATM   26  C23 UNK     1      20.441  -2.283  30.752  1.00  0.00     0.000 A 
HETATM   27  C22 UNK     1      20.583  -1.916  29.414  1.00  0.00     0.001 A 
HETATM   28  C20 UNK     1      20.160  -0.658  28.987  1.00  0.00     0.009 A 
ENDBRANCH  22  23
ENDBRANCH  21  22
ENDBRANCH   3  21
TORSDOF 5
ENDMDL
MODEL 2
REMARK VINA RESULT:      -9.1      6.759     12.539
REMARK  5 active torsions:
REMARK  status: ('A' for Active; 'I' for Inactive)
REMARK    1  A    between atoms: C11_15  and  O1_1 
REMARK    2  A    between atoms: C17_21  and  O1_1 
REMARK    3  A    between atoms: C12_16  and  O4_4 
REMARK    4  A    between atoms: C6_10  and  C7_11 
REMARK    5  A    between atoms: C17_21  and  C18_22 
ROOT
HETATM    1  C7  UNK     1      20.329  -3.463  37.021  1.00  0.00    -0.032 A 
HETATM    2  C10 UNK     1      19.190  -2.746  37.347  1.00  0.00     0.051 A 
HETATM    3  C11 UNK     1      19.403  -1.526  35.273  1.00  0.00     0.102 A 
HETATM    4  C12 UNK     1      18.725  -1.771  36.466  1.00  0.00     0.102 A 
HETATM    5  C13 UNK     1      21.016  -3.234  35.841  1.00  0.00     0.014 A 
HETATM    6  C14 UNK     1      20.549  -2.258  34.960  1.00  0.00     0.040 A 
ENDROOT
BRANCH   1   7
HETATM    7  C6  UNK     1      20.822  -4.496  37.953  1.00  0.00     0.031 C 
HETATM    8  C1  UNK     1      20.482  -5.784  37.943  1.00  0.00     0.067 A 
HETATM    9  C4  UNK     1      20.993  -6.806  38.892  1.00  0.00     0.197 A 
HETATM   10  C5  UNK     1      19.539  -6.409  36.982  1.00  0.00     0.197 A 
HETATM   11  C2  UNK     1      20.333  -8.052  38.476  1.00  0.00     0.029 A 
HETATM   12  O2  UNK     1      21.775  -6.661  39.806  1.00  0.00    -0.286 OA
HETATM   13  C3  UNK     1      19.498  -7.824  37.378  1.00  0.00     0.029 A 
HETATM   14  C8  UNK     1      20.466  -9.308  39.036  1.00  0.00     0.016 A 
HETATM   15  C9  UNK     1      18.766  -8.843  36.800  1.00  0.00     0.016 A 
HETATM   16  C16 UNK     1      18.891 -10.119  37.356  1.00  0.00     0.001 A 
HETATM   17  C15 UNK     1      19.732 -10.350  38.462  1.00  0.00     0.001 A 
HETATM   18  O3  UNK     1      18.934  -5.885  36.073  1.00  0.00    -0.286 OA
ENDBRANCH   1   7
BRANCH   4  19
HETATM   19  O4  UNK     1      17.604  -1.062  36.783  1.00  0.00    -0.353 OA
HETATM   20  C24 UNK     1      17.765   0.044  37.668  1.00  0.00     0.210 C 
ENDBRANCH   4  19
BRANCH   3  21
HETATM   21  O1  UNK     1      18.958  -0.576  34.405  1.00  0.00    -0.344 OA
BRANCH  21  22
HETATM   22  C17 UNK     1      18.223  -1.028  33.269  1.00  0.00     0.214 C 
BRANCH  22  23
HETATM   23  C18 UNK     1      19.065  -0.853  32.040  1.00  0.00    -0.034 A 
HETATM   24  C19 UNK     1      19.194   0.408  31.467  1.00  0.00     0.009 A 
HETATM   25  C21 UNK     1      19.976   0.571  30.324  1.00  0.00     0.001 A 
HETATM   26  C23 UNK     1      20.624  -0.529  29.760  1.00  0.00     0.000 A 
HETATM   27  C22 UNK     1      20.490  -1.790  30.339  1.00  0.00     0.001 A 
HETATM   28  C20 UNK     1      19.707  -1.953  31.482  1.00  0.00     0.009 A 
ENDBRANCH  22  23
ENDBRANCH  21  22
ENDBRANCH   3  21
TORSDOF 5
ENDMDL
MODEL 3
REMARK VINA RESULT:      -8.9      0.896      2.005
REMARK  5 active torsions:
REMARK  status: ('A' for Active; 'I' for Inactive)
REMARK    1  A    between atoms: C11_15  and  O1_1 
REMARK    2  A    between atoms: C17_21  and  O1_1 
REMARK    3  A    between atoms: C12_16  and  O4_4 
REMARK    4  A    between atoms: C6_10  and  C7_11 
REMARK    5  A    between atoms: C17_21  and  C18_22 
ROOT
HETATM    1  C7  UNK     1      18.939   5.799  33.183  1.00  0.00    -0.032 A 
HETATM    2  C10 UNK     1      18.981   5.475  31.837  1.00  0.00     0.051 A 
HETATM    3  C11 UNK     1      18.265   3.234  32.387  1.00  0.00     0.102 A 
HETATM    4  C12 UNK     1      18.641   4.183  31.437  1.00  0.00     0.102 A 
HETATM    5  C13 UNK     1      18.569   4.870  34.140  1.00  0.00     0.014 A 
HETATM    6  C14 UNK     1      18.228   3.578  33.739  1.00  0.00     0.040 A 
ENDROOT
BRANCH   1   7
HETATM    7  C6  UNK     1      19.299   7.166  33.606  1.00  0.00     0.031 C 
HETATM    8  C1  UNK     1      18.467   8.203  33.689  1.00  0.00     0.067 A 
HETATM    9  C4  UNK     1      18.852   9.572  34.119  1.00  0.00     0.197 A 
HETATM   10  C5  UNK     1      17.018   8.161  33.366  1.00  0.00     0.197 A 
HETATM   11  C2  UNK     1      17.603  10.343  34.045  1.00  0.00     0.029 A 
HETATM   12  O2  UNK     1      19.943   9.975  34.457  1.00  0.00    -0.286 OA
HETATM   13  C3  UNK     1      16.549   9.532  33.611  1.00  0.00     0.029 A 
HETATM   14  C8  UNK     1      17.413  11.678  34.342  1.00  0.00     0.016 A 
HETATM   15  C9  UNK     1      15.267  10.027  33.461  1.00  0.00     0.016 A 
HETATM   16  C16 UNK     1      15.061  11.377  33.759  1.00  0.00     0.001 A 
HETATM   17  C15 UNK     1      16.123  12.194  34.195  1.00  0.00     0.001 A 
HETATM   18  O3  UNK     1      16.360   7.218  32.985  1.00  0.00    -0.286 OA
ENDBRANCH   1   7
BRANCH   4  19
HETATM   19  O4  UNK     1      18.681   3.860  30.114  1.00  0.00    -0.353 OA
HETATM   20  C24 UNK     1      18.969   4.914  29.198  1.00  0.00     0.210 C 
ENDBRANCH   4  19
BRANCH   3  21
HETATM   21  O1  UNK     1      17.931   1.969  32.008  1.00  0.00    -0.344 OA
BRANCH  21  22
HETATM   22  C17 UNK     1      18.647   0.899  32.623  1.00  0.00     0.214 C 
BRANCH  22  23
HETATM   23  C18 UNK     1      19.297   0.069  31.556  1.00  0.00    -0.034 A 
HETATM   24  C19 UNK     1      19.543  -1.280  31.788  1.00  0.00     0.009 A 
HETATM   25  C21 UNK     1      20.149  -2.053  30.797  1.00  0.00     0.001 A 
HETATM   26  C23 UNK     1      20.503  -1.471  29.579  1.00  0.00     0.000 A 
HETATM   27  C22 UNK     1      20.253  -0.118  29.354  1.00  0.00     0.001 A 
HETATM   28  C20 UNK     1      19.648   0.654  30.345  1.00  0.00     0.009 A 
ENDBRANCH  22  23
ENDBRANCH  21  22
ENDBRANCH   3  21
TORSDOF 5
ENDMDL
MODEL 4
REMARK VINA RESULT:      -8.8      6.205     12.013
REMARK  5 active torsions:
REMARK  status: ('A' for Active; 'I' for Inactive)
REMARK    1  A    between atoms: C11_15  and  O1_1 
REMARK    2  A    between atoms: C17_21  and  O1_1 
REMARK    3  A    between atoms: C12_16  and  O4_4 
REMARK    4  A    between atoms: C6_10  and  C7_11 
REMARK    5  A    between atoms: C17_21  and  C18_22 
ROOT
HETATM    1  C7  UNK     1      20.171  -2.766  36.310  1.00  0.00    -0.032 A 
HETATM    2  C10 UNK     1      19.149  -2.079  36.944  1.00  0.00     0.051 A 
HETATM    3  C11 UNK     1      18.561  -1.070  34.829  1.00  0.00     0.102 A 
HETATM    4  C12 UNK     1      18.339  -1.224  36.196  1.00  0.00     0.102 A 
HETATM    5  C13 UNK     1      20.407  -2.625  34.954  1.00  0.00     0.014 A 
HETATM    6  C14 UNK     1      19.596  -1.770  34.207  1.00  0.00     0.040 A 
ENDROOT
BRANCH   1   7
HETATM    7  C6  UNK     1      21.028  -3.671  37.101  1.00  0.00     0.031 C 
HETATM    8  C1  UNK     1      20.733  -4.922  37.449  1.00  0.00     0.067 A 
HETATM    9  C4  UNK     1      21.614  -5.815  38.245  1.00  0.00     0.197 A 
HETATM   10  C5  UNK     1      19.476  -5.630  37.098  1.00  0.00     0.197 A 
HETATM   11  C2  UNK     1      20.854  -7.068  38.361  1.00  0.00     0.029 A 
HETATM   12  O2  UNK     1      22.711  -5.578  38.702  1.00  0.00    -0.286 OA
HETATM   13  C3  UNK     1      19.625  -6.962  37.701  1.00  0.00     0.029 A 
HETATM   14  C8  UNK     1      21.229  -8.228  39.010  1.00  0.00     0.016 A 
HETATM   15  C9  UNK     1      18.728  -8.012  37.666  1.00  0.00     0.016 A 
HETATM   16  C16 UNK     1      19.095  -9.192  38.319  1.00  0.00     0.001 A 
HETATM   17  C15 UNK     1      20.333  -9.300  38.983  1.00  0.00     0.001 A 
HETATM   18  O3  UNK     1      18.533  -5.216  36.459  1.00  0.00    -0.286 OA
ENDBRANCH   1   7
BRANCH   4  19
HETATM   19  O4  UNK     1      17.332  -0.546  36.815  1.00  0.00    -0.353 OA
HETATM   20  C24 UNK     1      17.708   0.513  37.693  1.00  0.00     0.210 C 
ENDBRANCH   4  19
BRANCH   3  21
HETATM   21  O1  UNK     1      17.777  -0.238  34.089  1.00  0.00    -0.344 OA
BRANCH  21  22
HETATM   22  C17 UNK     1      18.185   1.126  33.997  1.00  0.00     0.214 C 
BRANCH  22  23
HETATM   23  C18 UNK     1      18.437   1.466  32.557  1.00  0.00    -0.034 A 
HETATM   24  C19 UNK     1      18.981   0.508  31.709  1.00  0.00     0.009 A 
HETATM   25  C21 UNK     1      19.217   0.822  30.371  1.00  0.00     0.001 A 
HETATM   26  C23 UNK     1      18.905   2.095  29.890  1.00  0.00     0.000 A 
HETATM   27  C22 UNK     1      18.359   3.050  30.745  1.00  0.00     0.001 A 
HETATM   28  C20 UNK     1      18.125   2.735  32.084  1.00  0.00     0.009 A 
ENDBRANCH  22  23
ENDBRANCH  21  22
ENDBRANCH   3  21
TORSDOF 5
ENDMDL
MODEL 5
REMARK VINA RESULT:      -8.8      7.400     11.200
REMARK  5 active torsions:
REMARK  status: ('A' for Active; 'I' for Inactive)
REMARK    1  A    between atoms: C11_15  and  O1_1 
REMARK    2  A    between atoms: C17_21  and  O1_1 
REMARK    3  A    between atoms: C12_16  and  O4_4 
REMARK    4  A    between atoms: C6_10  and  C7_11 
REMARK    5  A    between atoms: C17_21  and  C18_22 
ROOT
HETATM    1  C7  UNK     1      20.106  -4.432  36.508  1.00  0.00    -0.032 A 
HETATM    2  C10 UNK     1      19.193  -5.473  36.542  1.00  0.00     0.051 A 
HETATM    3  C11 UNK     1      20.439  -6.465  38.358  1.00  0.00     0.102 A 
HETATM    4  C12 UNK     1      19.362  -6.496  37.474  1.00  0.00     0.102 A 
HETATM    5  C13 UNK     1      21.182  -4.385  37.377  1.00  0.00     0.014 A 
HETATM    6  C14 UNK     1      21.350  -5.409  38.310  1.00  0.00     0.040 A 
ENDROOT
BRANCH   1   7
HETATM    7  C6  UNK     1      19.927  -3.349  35.522  1.00  0.00     0.031 C 
HETATM    8  C1  UNK     1      19.359  -2.167  35.753  1.00  0.00     0.067 A 
HETATM    9  C4  UNK     1      19.191  -1.090  34.743  1.00  0.00     0.197 A 
HETATM   10  C5  UNK     1      18.800  -1.731  37.058  1.00  0.00     0.197 A 
HETATM   11  C2  UNK     1      18.521  -0.005  35.474  1.00  0.00     0.029 A 
HETATM   12  O2  UNK     1      19.525  -1.092  33.579  1.00  0.00    -0.286 OA
HETATM   13  C3  UNK     1      18.296  -0.374  36.805  1.00  0.00     0.029 A 
HETATM   14  C8  UNK     1      18.135   1.229  34.990  1.00  0.00     0.016 A 
HETATM   15  C9  UNK     1      17.679   0.480  37.699  1.00  0.00     0.016 A 
HETATM   16  C16 UNK     1      17.283   1.733  37.223  1.00  0.00     0.001 A 
HETATM   17  C15 UNK     1      17.509   2.104  35.882  1.00  0.00     0.001 A 
HETATM   18  O3  UNK     1      18.763  -2.344  38.102  1.00  0.00    -0.286 OA
ENDBRANCH   1   7
BRANCH   4  19
HETATM   19  O4  UNK     1      18.465  -7.523  37.511  1.00  0.00    -0.353 OA
HETATM   20  C24 UNK     1      18.190  -8.187  36.280  1.00  0.00     0.210 C 
ENDBRANCH   4  19
BRANCH   3  21
HETATM   21  O1  UNK     1      20.615  -7.459  39.272  1.00  0.00    -0.344 OA
BRANCH  21  22
HETATM   22  C17 UNK     1      21.805  -8.238  39.162  1.00  0.00     0.214 C 
BRANCH  22  23
HETATM   23  C18 UNK     1      21.673  -9.169  37.994  1.00  0.00    -0.034 A 
HETATM   24  C19 UNK     1      22.531  -9.034  36.907  1.00  0.00     0.009 A 
HETATM   25  C21 UNK     1      22.409  -9.899  35.819  1.00  0.00     0.001 A 
HETATM   26  C23 UNK     1      21.430 -10.893  35.826  1.00  0.00     0.000 A 
HETATM   27  C22 UNK     1      20.575 -11.023  36.919  1.00  0.00     0.001 A 
HETATM   28  C20 UNK     1      20.696 -10.158  38.006  1.00  0.00     0.009 A 
ENDBRANCH  22  23
ENDBRANCH  21  22
ENDBRANCH   3  21
TORSDOF 5
ENDMDL
MODEL 6
REMARK VINA RESULT:      -8.6     22.759     24.451
REMARK  5 active torsions:
REMARK  status: ('A' for Active; 'I' for Inactive)
REMARK    1  A    between atoms: C11_15  and  O1_1 
REMARK    2  A    between atoms: C17_21  and  O1_1 
REMARK    3  A    between atoms: C12_16  and  O4_4 
REMARK    4  A    between atoms: C6_10  and  C7_11 
REMARK    5  A    between atoms: C17_21  and  C18_22 
ROOT
HETATM    1  C7  UNK     1      15.829   8.642  10.196  1.00  0.00    -0.032 A 
HETATM    2  C10 UNK     1      14.758   9.091  10.952  1.00  0.00     0.051 A 
HETATM    3  C11 UNK     1      13.472   7.190  10.198  1.00  0.00     0.102 A 
HETATM    4  C12 UNK     1      13.572   8.358  10.952  1.00  0.00     0.102 A 
HETATM    5  C13 UNK     1      15.748   7.485   9.441  1.00  0.00     0.014 A 
HETATM    6  C14 UNK     1      14.560   6.752   9.442  1.00  0.00     0.040 A 
ENDROOT
BRANCH   1   7
HETATM    7  C6  UNK     1      17.085   9.417  10.196  1.00  0.00     0.031 C 
HETATM    8  C1  UNK     1      17.358  10.462   9.417  1.00  0.00     0.067 A 
HETATM    9  C4  UNK     1      18.631  11.228   9.435  1.00  0.00     0.197 A 
HETATM   10  C5  UNK     1      16.436  11.034   8.403  1.00  0.00     0.197 A 
HETATM   11  C2  UNK     1      18.447  12.267   8.411  1.00  0.00     0.029 A 
HETATM   12  O2  UNK     1      19.607  11.049  10.130  1.00  0.00    -0.286 OA
HETATM   13  C3  UNK     1      17.185  12.154   7.818  1.00  0.00     0.029 A 
HETATM   14  C8  UNK     1      19.341  13.248   8.030  1.00  0.00     0.016 A 
HETATM   15  C9  UNK     1      16.772  13.020   6.823  1.00  0.00     0.016 A 
HETATM   16  C16 UNK     1      17.667  14.018   6.428  1.00  0.00     0.001 A 
HETATM   17  C15 UNK     1      18.938  14.131   7.025  1.00  0.00     0.001 A 
HETATM   18  O3  UNK     1      15.317  10.669   8.114  1.00  0.00    -0.286 OA
ENDBRANCH   1   7
BRANCH   4  19
HETATM   19  O4  UNK     1      12.515   8.796  11.694  1.00  0.00    -0.353 OA
HETATM   20  C24 UNK     1      12.741   9.919  12.542  1.00  0.00     0.210 C 
ENDBRANCH   4  19
BRANCH   3  21
HETATM   21  O1  UNK     1      12.318   6.467  10.190  1.00  0.00    -0.344 OA
BRANCH  21  22
HETATM   22  C17 UNK     1      12.251   5.361   9.290  1.00  0.00     0.214 C 
BRANCH  22  23
HETATM   23  C18 UNK     1      11.315   5.700   8.168  1.00  0.00    -0.034 A 
HETATM   24  C19 UNK     1       9.957   5.856   8.427  1.00  0.00     0.009 A 
HETATM   25  C21 UNK     1       9.086   6.170   7.384  1.00  0.00     0.001 A 
HETATM   26  C23 UNK     1       9.579   6.327   6.088  1.00  0.00     0.000 A 
HETATM   27  C22 UNK     1      10.941   6.170   5.836  1.00  0.00     0.001 A 
HETATM   28  C20 UNK     1      11.812   5.855   6.879  1.00  0.00     0.009 A 
ENDBRANCH  22  23
ENDBRANCH  21  22
ENDBRANCH   3  21
TORSDOF 5
ENDMDL
MODEL 7
REMARK VINA RESULT:      -8.6      6.704     11.022
REMARK  5 active torsions:
REMARK  status: ('A' for Active; 'I' for Inactive)
REMARK    1  A    between atoms: C11_15  and  O1_1 
REMARK    2  A    between atoms: C17_21  and  O1_1 
REMARK    3  A    between atoms: C12_16  and  O4_4 
REMARK    4  A    between atoms: C6_10  and  C7_11 
REMARK    5  A    between atoms: C17_21  and  C18_22 
ROOT
HETATM    1  C7  UNK     1      19.485  -2.936  36.121  1.00  0.00    -0.032 A 
HETATM    2  C10 UNK     1      18.700  -4.077  36.155  1.00  0.00     0.051 A 
HETATM    3  C11 UNK     1      20.361  -5.137  37.553  1.00  0.00     0.102 A 
HETATM    4  C12 UNK     1      19.143  -5.185  36.877  1.00  0.00     0.102 A 
HETATM    5  C13 UNK     1      20.697  -2.870  36.785  1.00  0.00     0.014 A 
HETATM    6  C14 UNK     1      21.139  -3.980  37.507  1.00  0.00     0.040 A 
ENDROOT
BRANCH   1   7
HETATM    7  C6  UNK     1      19.016  -1.763  35.358  1.00  0.00     0.031 C 
HETATM    8  C1  UNK     1      19.286  -1.503  34.079  1.00  0.00     0.067 A 
HETATM    9  C4  UNK     1      18.801  -0.315  33.331  1.00  0.00     0.197 A 
HETATM   10  C5  UNK     1      20.115  -2.360  33.193  1.00  0.00     0.197 A 
HETATM   11  C2  UNK     1      19.359  -0.482  31.981  1.00  0.00     0.029 A 
HETATM   12  O2  UNK     1      18.105   0.592  33.729  1.00  0.00    -0.286 OA
HETATM   13  C3  UNK     1      20.114  -1.657  31.902  1.00  0.00     0.029 A 
HETATM   14  C8  UNK     1      19.207   0.355  30.893  1.00  0.00     0.016 A 
HETATM   15  C9  UNK     1      20.743  -2.037  30.731  1.00  0.00     0.016 A 
HETATM   16  C16 UNK     1      20.597  -1.200  29.622  1.00  0.00     0.001 A 
HETATM   17  C15 UNK     1      19.837  -0.016  29.702  1.00  0.00     0.001 A 
HETATM   18  O3  UNK     1      20.670  -3.403  33.459  1.00  0.00    -0.286 OA
ENDBRANCH   1   7
BRANCH   4  19
HETATM   19  O4  UNK     1      18.374  -6.310  36.914  1.00  0.00    -0.353 OA
HETATM   20  C24 UNK     1      18.257  -7.055  35.704  1.00  0.00     0.210 C 
ENDBRANCH   4  19
BRANCH   3  21
HETATM   21  O1  UNK     1      20.804  -6.213  38.260  1.00  0.00    -0.344 OA
BRANCH  21  22
HETATM   22  C17 UNK     1      21.624  -7.153  37.566  1.00  0.00     0.214 C 
BRANCH  22  23
HETATM   23  C18 UNK     1      20.997  -8.512  37.660  1.00  0.00    -0.034 A 
HETATM   24  C19 UNK     1      21.321  -9.486  36.721  1.00  0.00     0.009 A 
HETATM   25  C21 UNK     1      20.738 -10.750  36.806  1.00  0.00     0.001 A 
HETATM   26  C23 UNK     1      19.835 -11.032  37.831  1.00  0.00     0.000 A 
HETATM   27  C22 UNK     1      19.515 -10.052  38.769  1.00  0.00     0.001 A 
HETATM   28  C20 UNK     1      20.098  -8.788  38.683  1.00  0.00     0.009 A 
ENDBRANCH  22  23
ENDBRANCH  21  22
ENDBRANCH   3  21
TORSDOF 5
ENDMDL
MODEL 8
REMARK VINA RESULT:      -8.6     14.591     17.573
REMARK  5 active torsions:
REMARK  status: ('A' for Active; 'I' for Inactive)
REMARK    1  A    between atoms: C11_15  and  O1_1 
REMARK    2  A    between atoms: C17_21  and  O1_1 
REMARK    3  A    between atoms: C12_16  and  O4_4 
REMARK    4  A    between atoms: C6_10  and  C7_11 
REMARK    5  A    between atoms: C17_21  and  C18_22 
ROOT
HETATM    1  C7  UNK     1      28.435  -6.208  38.881  1.00  0.00    -0.032 A 
HETATM    2  C10 UNK     1      28.127  -7.550  39.026  1.00  0.00     0.051 A 
HETATM    3  C11 UNK     1      25.787  -7.006  38.775  1.00  0.00     0.102 A 
HETATM    4  C12 UNK     1      26.793  -7.951  38.973  1.00  0.00     0.102 A 
HETATM    5  C13 UNK     1      27.450  -5.256  38.685  1.00  0.00     0.014 A 
HETATM    6  C14 UNK     1      26.115  -5.658  38.631  1.00  0.00     0.040 A 
ENDROOT
BRANCH   1   7
HETATM    7  C6  UNK     1      29.847  -5.783  38.938  1.00  0.00     0.031 C 
HETATM    8  C1  UNK     1      30.689  -5.727  37.906  1.00  0.00     0.067 A 
HETATM    9  C4  UNK     1      32.108  -5.294  37.988  1.00  0.00     0.197 A 
HETATM   10  C5  UNK     1      30.346  -6.086  36.507  1.00  0.00     0.197 A 
HETATM   11  C2  UNK     1      32.602  -5.404  36.608  1.00  0.00     0.029 A 
HETATM   12  O2  UNK     1      32.729  -4.932  38.962  1.00  0.00    -0.286 OA
HETATM   13  C3  UNK     1      31.589  -5.859  35.757  1.00  0.00     0.029 A 
HETATM   14  C8  UNK     1      33.869  -5.119  36.137  1.00  0.00     0.016 A 
HETATM   15  C9  UNK     1      31.807  -6.044  34.405  1.00  0.00     0.016 A 
HETATM   16  C16 UNK     1      33.085  -5.759  33.915  1.00  0.00     0.001 A 
HETATM   17  C15 UNK     1      34.105  -5.301  34.772  1.00  0.00     0.001 A 
HETATM   18  O3  UNK     1      29.287  -6.477  36.069  1.00  0.00    -0.286 OA
ENDBRANCH   1   7
BRANCH   4  19
HETATM   19  O4  UNK     1      26.484  -9.271  39.115  1.00  0.00    -0.353 OA
HETATM   20  C24 UNK     1      27.348 -10.053  39.937  1.00  0.00     0.210 C 
ENDBRANCH   4  19
BRANCH   3  21
HETATM   21  O1  UNK     1      24.480  -7.386  38.722  1.00  0.00    -0.344 OA
BRANCH  21  22
HETATM   22  C17 UNK     1      23.518  -6.477  39.256  1.00  0.00     0.214 C 
BRANCH  22  23
HETATM   23  C18 UNK     1      22.164  -7.122  39.221  1.00  0.00    -0.034 A 
HETATM   24  C19 UNK     1      21.048  -6.362  38.887  1.00  0.00     0.009 A 
HETATM   25  C21 UNK     1      19.789  -6.959  38.855  1.00  0.00     0.001 A 
HETATM   26  C23 UNK     1      19.653  -8.315  39.158  1.00  0.00     0.000 A 
HETATM   27  C22 UNK     1      20.776  -9.071  39.492  1.00  0.00     0.001 A 
HETATM   28  C20 UNK     1      22.035  -8.472  39.524  1.00  0.00     0.009 A 
ENDBRANCH  22  23
ENDBRANCH  21  22
ENDBRANCH   3  21
TORSDOF 5
ENDMDL
MODEL 9
REMARK VINA RESULT:      -8.4     22.543     24.343
REMARK  5 active torsions:
REMARK  status: ('A' for Active; 'I' for Inactive)
REMARK    1  A    between atoms: C11_15  and  O1_1 
REMARK    2  A    between atoms: C17_21  and  O1_1 
REMARK    3  A    between atoms: C12_16  and  O4_4 
REMARK    4  A    between atoms: C6_10  and  C7_11 
REMARK    5  A    between atoms: C17_21  and  C18_22 
ROOT
HETATM    1  C7  UNK     1      11.289   5.154   9.015  1.00  0.00    -0.032 A 
HETATM    2  C10 UNK     1      10.585   5.821   8.026  1.00  0.00     0.051 A 
HETATM    3  C11 UNK     1       8.523   5.198   9.120  1.00  0.00     0.102 A 
HETATM    4  C12 UNK     1       9.192   5.842   8.080  1.00  0.00     0.102 A 
HETATM    5  C13 UNK     1      10.642   4.508  10.054  1.00  0.00     0.014 A 
HETATM    6  C14 UNK     1       9.248   4.531  10.108  1.00  0.00     0.040 A 
ENDROOT
BRANCH   1   7
HETATM    7  C6  UNK     1      12.763   5.131   8.958  1.00  0.00     0.031 C 
HETATM    8  C1  UNK     1      13.576   6.110   9.351  1.00  0.00     0.067 A 
HETATM    9  C4  UNK     1      15.060   6.064   9.285  1.00  0.00     0.197 A 
HETATM   10  C5  UNK     1      13.133   7.408   9.921  1.00  0.00     0.197 A 
HETATM   11  C2  UNK     1      15.490   7.361   9.827  1.00  0.00     0.029 A 
HETATM   12  O2  UNK     1      15.767   5.168   8.880  1.00  0.00    -0.286 OA
HETATM   13  C3  UNK     1      14.382   8.134  10.192  1.00  0.00     0.029 A 
HETATM   14  C8  UNK     1      16.780   7.826   9.985  1.00  0.00     0.016 A 
HETATM   15  C9  UNK     1      14.526   9.398  10.730  1.00  0.00     0.016 A 
HETATM   16  C16 UNK     1      15.827   9.882  10.896  1.00  0.00     0.001 A 
HETATM   17  C15 UNK     1      16.943   9.104  10.528  1.00  0.00     0.001 A 
HETATM   18  O3  UNK     1      12.003   7.794  10.123  1.00  0.00    -0.286 OA
ENDBRANCH   1   7
BRANCH   4  19
HETATM   19  O4  UNK     1       8.494   6.497   7.109  1.00  0.00    -0.353 OA
HETATM   20  C24 UNK     1       9.090   6.562   5.815  1.00  0.00     0.210 C 
ENDBRANCH   4  19
BRANCH   3  21
HETATM   21  O1  UNK     1       7.163   5.212   9.183  1.00  0.00    -0.344 OA
BRANCH  21  22
HETATM   22  C17 UNK     1       6.574   5.718  10.380  1.00  0.00     0.214 C 
BRANCH  22  23
HETATM   23  C18 UNK     1       6.080   4.568  11.207  1.00  0.00    -0.034 A 
HETATM   24  C19 UNK     1       5.887   4.736  12.574  1.00  0.00     0.009 A 
HETATM   25  C21 UNK     1       5.430   3.668  13.345  1.00  0.00     0.001 A 
HETATM   26  C23 UNK     1       5.167   2.437  12.742  1.00  0.00     0.000 A 
HETATM   27  C22 UNK     1       5.362   2.276  11.371  1.00  0.00     0.001 A 
HETATM   28  C20 UNK     1       5.821   3.345  10.601  1.00  0.00     0.009 A 
ENDBRANCH  22  23
ENDBRANCH  21  22
ENDBRANCH   3  21
TORSDOF 5
ENDMDL
MODEL 10
REMARK VINA RESULT:      -8.3     16.522     19.896
REMARK  5 active torsions:
REMARK  status: ('A' for Active; 'I' for Inactive)
REMARK    1  A    between atoms: C11_15  and  O1_1 
REMARK    2  A    between atoms: C17_21  and  O1_1 
REMARK    3  A    between atoms: C12_16  and  O4_4 
REMARK    4  A    between atoms: C6_10  and  C7_11 
REMARK    5  A    between atoms: C17_21  and  C18_22 
ROOT
HETATM    1  C7  UNK     1      33.086  -8.061  33.374  1.00  0.00    -0.032 A 
HETATM    2  C10 UNK     1      33.134  -6.685  33.523  1.00  0.00     0.051 A 
HETATM    3  C11 UNK     1      33.053  -6.974  35.920  1.00  0.00     0.102 A 
HETATM    4  C12 UNK     1      33.118  -6.139  34.806  1.00  0.00     0.102 A 
HETATM    5  C13 UNK     1      33.020  -8.906  34.468  1.00  0.00     0.014 A 
HETATM    6  C14 UNK     1      33.004  -8.359  35.751  1.00  0.00     0.040 A 
ENDROOT
BRANCH   1   7
HETATM    7  C6  UNK     1      33.103  -8.638  32.016  1.00  0.00     0.031 C 
HETATM    8  C1  UNK     1      32.036  -8.880  31.255  1.00  0.00     0.067 A 
HETATM    9  C4  UNK     1      32.079  -9.461  29.889  1.00  0.00     0.197 A 
HETATM   10  C5  UNK     1      30.631  -8.606  31.647  1.00  0.00     0.197 A 
HETATM   11  C2  UNK     1      30.670  -9.529  29.477  1.00  0.00     0.029 A 
HETATM   12  O2  UNK     1      33.047  -9.807  29.248  1.00  0.00    -0.286 OA
HETATM   13  C3  UNK     1      29.837  -9.037  30.488  1.00  0.00     0.029 A 
HETATM   14  C8  UNK     1      30.158  -9.996  28.282  1.00  0.00     0.016 A 
HETATM   15  C9  UNK     1      28.464  -8.994  30.339  1.00  0.00     0.016 A 
HETATM   16  C16 UNK     1      27.933  -9.464  29.134  1.00  0.00     0.001 A 
HETATM   17  C15 UNK     1      28.771  -9.960  28.116  1.00  0.00     0.001 A 
HETATM   18  O3  UNK     1      30.217  -8.134  32.684  1.00  0.00    -0.286 OA
ENDBRANCH   1   7
BRANCH   4  19
HETATM   19  O4  UNK     1      33.166  -4.785  34.958  1.00  0.00    -0.353 OA
HETATM   20  C24 UNK     1      34.429  -4.155  34.755  1.00  0.00     0.210 C 
ENDBRANCH   4  19
BRANCH   3  21
HETATM   21  O1  UNK     1      33.036  -6.453  37.178  1.00  0.00    -0.344 OA
BRANCH  21  22
HETATM   22  C17 UNK     1      32.185  -7.087  38.131  1.00  0.00     0.214 C 
BRANCH  22  23
HETATM   23  C18 UNK     1      30.964  -6.240  38.337  1.00  0.00    -0.034 A 
HETATM   24  C19 UNK     1      29.741  -6.848  38.602  1.00  0.00     0.009 A 
HETATM   25  C21 UNK     1      28.605  -6.062  38.793  1.00  0.00     0.001 A 
HETATM   26  C23 UNK     1      28.699  -4.672  38.718  1.00  0.00     0.000 A 
HETATM   27  C22 UNK     1      29.928  -4.069  38.452  1.00  0.00     0.001 A 
HETATM   28  C20 UNK     1      31.064  -4.856  38.261  1.00  0.00     0.009 A 
ENDBRANCH  22  23
ENDBRANCH  21  22
ENDBRANCH   3  21
TORSDOF 5
ENDMDL
