MODEL 1
REMARK VINA RESULT:      -8.1      0.000      0.000
REMARK  2 active torsions:
REMARK  status: ('A' for Active; 'I' for Inactive)
REMARK    1  A    between atoms: C15_20  and  O4_4 
REMARK       I    between atoms: C8_13  and  N1_5 
REMARK    2  A    between atoms: C8_13  and  C9_14 
ROOT
HETATM    1  O2  UNK     1      10.761   5.374   9.367  1.00  0.00    -0.271 OA
HETATM    2  O3  UNK     1      12.409   5.044  10.916  1.00  0.00    -0.259 OA
HETATM    3  C9  UNK     1      13.056   6.061   8.876  1.00  0.00     0.108 A 
HETATM    4  C10 UNK     1      12.692   6.508   7.667  1.00  0.00     0.037 A 
HETATM    5  C11 UNK     1      11.307   6.407   7.235  1.00  0.00     0.002 A 
HETATM    6  C12 UNK     1      12.079   5.455   9.808  1.00  0.00     0.304 A 
HETATM    7  C13 UNK     1      10.373   5.841   8.097  1.00  0.00     0.123 A 
HETATM    8  C14 UNK     1      10.884   6.859   5.983  1.00  0.00     0.014 A 
HETATM    9  C15 UNK     1       9.031   5.716   7.743  1.00  0.00     0.102 A 
HETATM   10  C16 UNK     1       9.540   6.741   5.614  1.00  0.00     0.004 A 
HETATM   11  C17 UNK     1       8.617   6.170   6.493  1.00  0.00     0.040 A 
ENDROOT
BRANCH   3  12
HETATM   12  C8  UNK     1      14.485   6.208   9.223  1.00  0.00     0.259 C 
HETATM   13  O1  UNK     1      15.276   5.421   8.698  1.00  0.00    -0.267 OA
HETATM   14  N1  UNK     1      14.848   7.221  10.119  1.00  0.00    -0.348 N 
HETATM   15  C6  UNK     1      16.270   7.356  10.460  1.00  0.00     0.126 C 
HETATM   16  C7  UNK     1      13.893   8.064  10.857  1.00  0.00     0.126 C 
HETATM   17  C4  UNK     1      16.807   8.782  10.573  1.00  0.00     0.020 C 
HETATM   18  C2  UNK     1      16.778   9.590   9.278  1.00  0.00     0.002 C 
HETATM   19  C1  UNK     1      15.406   9.834   8.646  1.00  0.00     0.000 C 
HETATM   20  C3  UNK     1      14.327  10.310   9.622  1.00  0.00     0.002 C 
HETATM   21  C5  UNK     1      13.328   9.224  10.032  1.00  0.00     0.020 C 
ENDBRANCH   3  12
BRANCH   9  22
HETATM   22  O4  UNK     1       8.127   5.162   8.595  1.00  0.00    -0.353 OA
HETATM   23  C18 UNK     1       7.405   6.053   9.445  1.00  0.00     0.210 C 
ENDBRANCH   9  22
TORSDOF 2
ENDMDL
MODEL 2
REMARK VINA RESULT:      -7.6     23.674     26.053
REMARK  2 active torsions:
REMARK  status: ('A' for Active; 'I' for Inactive)
REMARK    1  A    between atoms: C15_20  and  O4_4 
REMARK       I    between atoms: C8_13  and  N1_5 
REMARK    2  A    between atoms: C8_13  and  C9_14 
ROOT
HETATM    1  O2  UNK     1      14.273   9.826  34.727  1.00  0.00    -0.271 OA
HETATM    2  O3  UNK     1      13.905   7.912  33.533  1.00  0.00    -0.259 OA
HETATM    3  C9  UNK     1      15.964   9.021  33.154  1.00  0.00     0.108 A 
HETATM    4  C10 UNK     1      16.766  10.052  33.447  1.00  0.00     0.037 A 
HETATM    5  C11 UNK     1      16.351  11.050  34.420  1.00  0.00     0.002 A 
HETATM    6  C12 UNK     1      14.642   8.856  33.799  1.00  0.00     0.304 A 
HETATM    7  C13 UNK     1      15.112  10.912  35.038  1.00  0.00     0.123 A 
HETATM    8  C14 UNK     1      17.154  12.142  34.754  1.00  0.00     0.014 A 
HETATM    9  C15 UNK     1      14.656  11.834  35.979  1.00  0.00     0.102 A 
HETATM   10  C16 UNK     1      16.710  13.074  35.698  1.00  0.00     0.004 A 
HETATM   11  C17 UNK     1      15.464  12.920  36.307  1.00  0.00     0.040 A 
ENDROOT
BRANCH   3  12
HETATM   12  C8  UNK     1      16.474   8.061  32.153  1.00  0.00     0.259 C 
HETATM   13  O1  UNK     1      16.335   8.359  30.965  1.00  0.00    -0.267 OA
HETATM   14  N1  UNK     1      17.077   6.883  32.612  1.00  0.00    -0.348 N 
HETATM   15  C6  UNK     1      17.578   5.934  31.610  1.00  0.00     0.126 C 
HETATM   16  C7  UNK     1      17.114   6.459  34.021  1.00  0.00     0.126 C 
HETATM   17  C4  UNK     1      18.914   5.261  31.921  1.00  0.00     0.020 C 
HETATM   18  C2  UNK     1      20.112   6.205  31.999  1.00  0.00     0.002 C 
HETATM   19  C1  UNK     1      20.065   7.294  33.073  1.00  0.00     0.000 C 
HETATM   20  C3  UNK     1      19.652   6.805  34.463  1.00  0.00     0.002 C 
HETATM   21  C5  UNK     1      18.208   7.144  34.845  1.00  0.00     0.020 C 
ENDBRANCH   3  12
BRANCH   9  22
HETATM   22  O4  UNK     1      13.443  11.687  36.577  1.00  0.00    -0.353 OA
HETATM   23  C18 UNK     1      13.439  11.420  37.979  1.00  0.00     0.210 C 
ENDBRANCH   9  22
TORSDOF 2
ENDMDL
MODEL 3
REMARK VINA RESULT:      -7.6     34.957     36.387
REMARK  2 active torsions:
REMARK  status: ('A' for Active; 'I' for Inactive)
REMARK    1  A    between atoms: C15_20  and  O4_4 
REMARK       I    between atoms: C8_13  and  N1_5 
REMARK    2  A    between atoms: C8_13  and  C9_14 
ROOT
HETATM    1  O2  UNK     1      28.067  -7.352  36.875  1.00  0.00    -0.271 OA
HETATM    2  O3  UNK     1      29.400  -6.344  35.316  1.00  0.00    -0.259 OA
HETATM    3  C9  UNK     1      30.433  -7.953  36.716  1.00  0.00     0.108 A 
HETATM    4  C10 UNK     1      30.305  -8.831  37.718  1.00  0.00     0.037 A 
HETATM    5  C11 UNK     1      29.017  -9.019  38.369  1.00  0.00     0.002 A 
HETATM    6  C12 UNK     1      29.287  -7.150  36.234  1.00  0.00     0.304 A 
HETATM    7  C13 UNK     1      27.927  -8.274  37.931  1.00  0.00     0.123 A 
HETATM    8  C14 UNK     1      28.839  -9.922  39.419  1.00  0.00     0.014 A 
HETATM    9  C15 UNK     1      26.667  -8.407  38.511  1.00  0.00     0.102 A 
HETATM   10  C16 UNK     1      27.580 -10.067  40.011  1.00  0.00     0.004 A 
HETATM   11  C17 UNK     1      26.498  -9.310  39.558  1.00  0.00     0.040 A 
ENDROOT
BRANCH   3  12
HETATM   12  C8  UNK     1      31.780  -7.834  36.120  1.00  0.00     0.259 C 
HETATM   13  O1  UNK     1      32.040  -8.569  35.164  1.00  0.00    -0.267 OA
HETATM   14  N1  UNK     1      32.668  -6.904  36.674  1.00  0.00    -0.348 N 
HETATM   15  C6  UNK     1      34.005  -6.795  36.076  1.00  0.00     0.126 C 
HETATM   16  C7  UNK     1      32.412  -6.133  37.901  1.00  0.00     0.126 C 
HETATM   17  C4  UNK     1      34.573  -5.384  35.937  1.00  0.00     0.020 C 
HETATM   18  C2  UNK     1      33.799  -4.464  34.996  1.00  0.00     0.002 C 
HETATM   19  C1  UNK     1      32.343  -4.168  35.362  1.00  0.00     0.000 C 
HETATM   20  C3  UNK     1      32.115  -3.784  36.826  1.00  0.00     0.002 C 
HETATM   21  C5  UNK     1      31.522  -4.906  37.685  1.00  0.00     0.020 C 
ENDBRANCH   3  12
BRANCH   9  22
HETATM   22  O4  UNK     1      25.609  -7.673  38.073  1.00  0.00    -0.353 OA
HETATM   23  C18 UNK     1      24.398  -7.768  38.821  1.00  0.00     0.210 C 
ENDBRANCH   9  22
TORSDOF 2
ENDMDL
MODEL 4
REMARK VINA RESULT:      -7.6     30.776     33.728
REMARK  2 active torsions:
REMARK  status: ('A' for Active; 'I' for Inactive)
REMARK    1  A    between atoms: C15_20  and  O4_4 
REMARK       I    between atoms: C8_13  and  N1_5 
REMARK    2  A    between atoms: C8_13  and  C9_14 
ROOT
HETATM    1  O2  UNK     1      29.657  -6.680  35.521  1.00  0.00    -0.271 OA
HETATM    2  O3  UNK     1      28.861  -8.389  34.228  1.00  0.00    -0.259 OA
HETATM    3  C9  UNK     1      30.811  -7.289  33.451  1.00  0.00     0.108 A 
HETATM    4  C10 UNK     1      31.726  -6.332  33.649  1.00  0.00     0.037 A 
HETATM    5  C11 UNK     1      31.651  -5.476  34.823  1.00  0.00     0.002 A 
HETATM    6  C12 UNK     1      29.702  -7.513  34.406  1.00  0.00     0.304 A 
HETATM    7  C13 UNK     1      30.616  -5.672  35.732  1.00  0.00     0.123 A 
HETATM    8  C14 UNK     1      32.583  -4.465  35.067  1.00  0.00     0.014 A 
HETATM    9  C15 UNK     1      30.489  -4.887  36.877  1.00  0.00     0.102 A 
HETATM   10  C16 UNK     1      32.468  -3.670  36.212  1.00  0.00     0.004 A 
HETATM   11  C17 UNK     1      31.422  -3.881  37.113  1.00  0.00     0.040 A 
ENDROOT
BRANCH   3  12
HETATM   12  C8  UNK     1      30.972  -8.105  32.230  1.00  0.00     0.259 C 
HETATM   13  O1  UNK     1      31.560  -9.183  32.347  1.00  0.00    -0.267 OA
HETATM   14  N1  UNK     1      30.454  -7.607  31.028  1.00  0.00    -0.348 N 
HETATM   15  C6  UNK     1      30.622  -8.425  29.820  1.00  0.00     0.126 C 
HETATM   16  C7  UNK     1      29.883  -6.262  30.859  1.00  0.00     0.126 C 
HETATM   17  C4  UNK     1      29.430  -8.476  28.865  1.00  0.00     0.020 C 
HETATM   18  C2  UNK     1      28.170  -9.122  29.435  1.00  0.00     0.002 C 
HETATM   19  C1  UNK     1      27.545  -8.453  30.662  1.00  0.00     0.000 C 
HETATM   20  C3  UNK     1      27.390  -6.934  30.553  1.00  0.00     0.002 C 
HETATM   21  C5  UNK     1      28.435  -6.139  31.343  1.00  0.00     0.020 C 
ENDBRANCH   3  12
BRANCH   9  22
HETATM   22  O4  UNK     1      29.473  -5.089  37.759  1.00  0.00    -0.353 OA
HETATM   23  C18 UNK     1      29.490  -4.314  38.957  1.00  0.00     0.210 C 
ENDBRANCH   9  22
TORSDOF 2
ENDMDL
MODEL 5
REMARK VINA RESULT:      -7.5     31.078     33.984
REMARK  2 active torsions:
REMARK  status: ('A' for Active; 'I' for Inactive)
REMARK    1  A    between atoms: C15_20  and  O4_4 
REMARK       I    between atoms: C8_13  and  N1_5 
REMARK    2  A    between atoms: C8_13  and  C9_14 
ROOT
HETATM    1  O2  UNK     1      28.368  -7.562  36.266  1.00  0.00    -0.271 OA
HETATM    2  O3  UNK     1      28.376  -8.845  34.374  1.00  0.00    -0.259 OA
HETATM    3  C9  UNK     1      29.975  -7.099  34.481  1.00  0.00     0.108 A 
HETATM    4  C10 UNK     1      30.494  -6.080  35.177  1.00  0.00     0.037 A 
HETATM    5  C11 UNK     1      29.962  -5.740  36.487  1.00  0.00     0.002 A 
HETATM    6  C12 UNK     1      28.855  -7.910  35.009  1.00  0.00     0.304 A 
HETATM    7  C13 UNK     1      28.910  -6.491  37.001  1.00  0.00     0.123 A 
HETATM    8  C14 UNK     1      30.473  -4.685  37.246  1.00  0.00     0.014 A 
HETATM    9  C15 UNK     1      28.356  -6.217  38.251  1.00  0.00     0.102 A 
HETATM   10  C16 UNK     1      29.927  -4.399  38.502  1.00  0.00     0.004 A 
HETATM   11  C17 UNK     1      28.871  -5.163  39.001  1.00  0.00     0.040 A 
ENDROOT
BRANCH   3  12
HETATM   12  C8  UNK     1      30.583  -7.366  33.161  1.00  0.00     0.259 C 
HETATM   13  O1  UNK     1      31.517  -8.169  33.123  1.00  0.00    -0.267 OA
HETATM   14  N1  UNK     1      30.065  -6.694  32.046  1.00  0.00    -0.348 N 
HETATM   15  C6  UNK     1      30.677  -6.964  30.739  1.00  0.00     0.126 C 
HETATM   16  C7  UNK     1      29.049  -5.630  32.109  1.00  0.00     0.126 C 
HETATM   17  C4  UNK     1      29.721  -7.079  29.553  1.00  0.00     0.020 C 
HETATM   18  C2  UNK     1      28.742  -8.248  29.620  1.00  0.00     0.002 C 
HETATM   19  C1  UNK     1      27.765  -8.264  30.798  1.00  0.00     0.000 C 
HETATM   20  C3  UNK     1      27.058  -6.932  31.062  1.00  0.00     0.002 C 
HETATM   21  C5  UNK     1      27.617  -6.150  32.255  1.00  0.00     0.020 C 
ENDBRANCH   3  12
BRANCH   9  22
HETATM   22  O4  UNK     1      27.328  -6.960  38.743  1.00  0.00    -0.353 OA
HETATM   23  C18 UNK     1      27.667  -8.056  39.591  1.00  0.00     0.210 C 
ENDBRANCH   9  22
TORSDOF 2
ENDMDL
MODEL 6
REMARK VINA RESULT:      -7.5      2.439      6.976
REMARK  2 active torsions:
REMARK  status: ('A' for Active; 'I' for Inactive)
REMARK    1  A    between atoms: C15_20  and  O4_4 
REMARK       I    between atoms: C8_13  and  N1_5 
REMARK    2  A    between atoms: C8_13  and  C9_14 
ROOT
HETATM    1  O2  UNK     1      17.078   9.177   9.919  1.00  0.00    -0.271 OA
HETATM    2  O3  UNK     1      16.361   7.413  11.184  1.00  0.00    -0.259 OA
HETATM    3  C9  UNK     1      14.724   8.514   9.871  1.00  0.00     0.108 A 
HETATM    4  C10 UNK     1      14.439   9.490   9.001  1.00  0.00     0.037 A 
HETATM    5  C11 UNK     1      15.487  10.385   8.533  1.00  0.00     0.002 A 
HETATM    6  C12 UNK     1      16.096   8.307  10.386  1.00  0.00     0.304 A 
HETATM    7  C13 UNK     1      16.783  10.206   9.004  1.00  0.00     0.123 A 
HETATM    8  C14 UNK     1      15.234  11.417   7.627  1.00  0.00     0.014 A 
HETATM    9  C15 UNK     1      17.832  11.028   8.595  1.00  0.00     0.102 A 
HETATM   10  C16 UNK     1      16.276  12.249   7.206  1.00  0.00     0.004 A 
HETATM   11  C17 UNK     1      17.571  12.055   7.691  1.00  0.00     0.040 A 
ENDROOT
BRANCH   3  12
HETATM   12  C8  UNK     1      13.593   7.659  10.287  1.00  0.00     0.259 C 
HETATM   13  O1  UNK     1      12.972   7.997  11.296  1.00  0.00    -0.267 OA
HETATM   14  N1  UNK     1      13.301   6.527   9.515  1.00  0.00    -0.348 N 
HETATM   15  C6  UNK     1      12.177   5.682   9.938  1.00  0.00     0.126 C 
HETATM   16  C7  UNK     1      14.127   6.042   8.398  1.00  0.00     0.126 C 
HETATM   17  C4  UNK     1      11.286   5.132   8.825  1.00  0.00     0.020 C 
HETATM   18  C2  UNK     1      10.524   6.186   8.025  1.00  0.00     0.002 C 
HETATM   19  C1  UNK     1      11.363   7.213   7.260  1.00  0.00     0.000 C 
HETATM   20  C3  UNK     1      12.514   6.619   6.444  1.00  0.00     0.002 C 
HETATM   21  C5  UNK     1      13.894   6.793   7.084  1.00  0.00     0.020 C 
ENDBRANCH   3  12
BRANCH   9  22
HETATM   22  O4  UNK     1      19.096  10.842   9.062  1.00  0.00    -0.353 OA
HETATM   23  C18 UNK     1      19.571  11.772  10.036  1.00  0.00     0.210 C 
ENDBRANCH   9  22
TORSDOF 2
ENDMDL
MODEL 7
REMARK VINA RESULT:      -7.5     30.565     33.775
REMARK  2 active torsions:
REMARK  status: ('A' for Active; 'I' for Inactive)
REMARK    1  A    between atoms: C15_20  and  O4_4 
REMARK       I    between atoms: C8_13  and  N1_5 
REMARK    2  A    between atoms: C8_13  and  C9_14 
ROOT
HETATM    1  O2  UNK     1      33.705  -9.657  29.929  1.00  0.00    -0.271 OA
HETATM    2  O3  UNK     1      31.827 -10.404  28.863  1.00  0.00    -0.259 OA
HETATM    3  C9  UNK     1      31.504  -9.304  30.936  1.00  0.00     0.108 A 
HETATM    4  C10 UNK     1      32.055  -8.683  31.987  1.00  0.00     0.037 A 
HETATM    5  C11 UNK     1      33.497  -8.514  32.065  1.00  0.00     0.002 A 
HETATM    6  C12 UNK     1      32.328  -9.835  29.827  1.00  0.00     0.304 A 
HETATM    7  C13 UNK     1      34.289  -9.006  31.032  1.00  0.00     0.123 A 
HETATM    8  C14 UNK     1      34.114  -7.874  33.143  1.00  0.00     0.014 A 
HETATM    9  C15 UNK     1      35.677  -8.875  31.047  1.00  0.00     0.102 A 
HETATM   10  C16 UNK     1      35.505  -7.736  33.170  1.00  0.00     0.004 A 
HETATM   11  C17 UNK     1      36.284  -8.236  32.125  1.00  0.00     0.040 A 
ENDROOT
BRANCH   3  12
HETATM   12  C8  UNK     1      30.031  -9.427  30.948  1.00  0.00     0.259 C 
HETATM   13  O1  UNK     1      29.549 -10.358  31.597  1.00  0.00    -0.267 OA
HETATM   14  N1  UNK     1      29.283  -8.487  30.228  1.00  0.00    -0.348 N 
HETATM   15  C6  UNK     1      27.820  -8.620  30.245  1.00  0.00     0.126 C 
HETATM   16  C7  UNK     1      29.858  -7.466  29.339  1.00  0.00     0.126 C 
HETATM   17  C4  UNK     1      27.023  -7.321  30.351  1.00  0.00     0.020 C 
HETATM   18  C2  UNK     1      27.222  -6.543  31.650  1.00  0.00     0.002 C 
HETATM   19  C1  UNK     1      28.640  -6.052  31.951  1.00  0.00     0.000 C 
HETATM   20  C3  UNK     1      29.342  -5.363  30.777  1.00  0.00     0.002 C 
HETATM   21  C5  UNK     1      30.389  -6.233  30.075  1.00  0.00     0.020 C 
ENDBRANCH   3  12
BRANCH   9  22
HETATM   22  O4  UNK     1      36.440  -9.360  30.030  1.00  0.00    -0.353 OA
HETATM   23  C18 UNK     1      37.389 -10.374  30.357  1.00  0.00     0.210 C 
ENDBRANCH   9  22
TORSDOF 2
ENDMDL
MODEL 8
REMARK VINA RESULT:      -7.4     29.302     31.583
REMARK  2 active torsions:
REMARK  status: ('A' for Active; 'I' for Inactive)
REMARK    1  A    between atoms: C15_20  and  O4_4 
REMARK       I    between atoms: C8_13  and  N1_5 
REMARK    2  A    between atoms: C8_13  and  C9_14 
ROOT
HETATM    1  O2  UNK     1      20.455  -4.782  34.578  1.00  0.00    -0.271 OA
HETATM    2  O3  UNK     1      20.653  -7.029  34.207  1.00  0.00    -0.259 OA
HETATM    3  C9  UNK     1      19.211  -6.366  35.966  1.00  0.00     0.108 A 
HETATM    4  C10 UNK     1      18.671  -5.364  36.671  1.00  0.00     0.037 A 
HETATM    5  C11 UNK     1      19.005  -3.983  36.358  1.00  0.00     0.002 A 
HETATM    6  C12 UNK     1      20.156  -6.114  34.855  1.00  0.00     0.304 A 
HETATM    7  C13 UNK     1      19.891  -3.725  35.317  1.00  0.00     0.123 A 
HETATM    8  C14 UNK     1      18.467  -2.908  37.068  1.00  0.00     0.014 A 
HETATM    9  C15 UNK     1      20.251  -2.425  34.966  1.00  0.00     0.102 A 
HETATM   10  C16 UNK     1      18.818  -1.598  36.727  1.00  0.00     0.004 A 
HETATM   11  C17 UNK     1      19.709  -1.359  35.679  1.00  0.00     0.040 A 
ENDROOT
BRANCH   3  12
HETATM   12  C8  UNK     1      18.810  -7.732  36.361  1.00  0.00     0.259 C 
HETATM   13  O1  UNK     1      17.819  -8.210  35.806  1.00  0.00    -0.267 OA
HETATM   14  N1  UNK     1      19.574  -8.391  37.332  1.00  0.00    -0.348 N 
HETATM   15  C6  UNK     1      19.167  -9.748  37.719  1.00  0.00     0.126 C 
HETATM   16  C7  UNK     1      20.668  -7.771  38.098  1.00  0.00     0.126 C 
HETATM   17  C4  UNK     1      20.292 -10.758  37.941  1.00  0.00     0.020 C 
HETATM   18  C2  UNK     1      21.121 -11.086  36.701  1.00  0.00     0.002 C 
HETATM   19  C1  UNK     1      21.879  -9.927  36.050  1.00  0.00     0.000 C 
HETATM   20  C3  UNK     1      22.664  -9.046  37.026  1.00  0.00     0.002 C 
HETATM   21  C5  UNK     1      21.995  -7.703  37.337  1.00  0.00     0.020 C 
ENDBRANCH   3  12
BRANCH   9  22
HETATM   22  O4  UNK     1      21.117  -2.186  33.945  1.00  0.00    -0.353 OA
HETATM   23  C18 UNK     1      20.573  -2.156  32.626  1.00  0.00     0.210 C 
ENDBRANCH   9  22
TORSDOF 2
ENDMDL
MODEL 9
REMARK VINA RESULT:      -7.4     31.280     34.227
REMARK  2 active torsions:
REMARK  status: ('A' for Active; 'I' for Inactive)
REMARK    1  A    between atoms: C15_20  and  O4_4 
REMARK       I    between atoms: C8_13  and  N1_5 
REMARK    2  A    between atoms: C8_13  and  C9_14 
ROOT
HETATM    1  O2  UNK     1      31.058  -5.310  36.165  1.00  0.00    -0.271 OA
HETATM    2  O3  UNK     1      32.164  -4.811  34.227  1.00  0.00    -0.259 OA
HETATM    3  C9  UNK     1      30.857  -6.787  34.225  1.00  0.00     0.108 A 
HETATM    4  C10 UNK     1      30.044  -7.608  34.902  1.00  0.00     0.037 A 
HETATM    5  C11 UNK     1      29.687  -7.314  36.281  1.00  0.00     0.002 A 
HETATM    6  C12 UNK     1      31.419  -5.565  34.844  1.00  0.00     0.304 A 
HETATM    7  C13 UNK     1      30.204  -6.170  36.880  1.00  0.00     0.123 A 
HETATM    8  C14 UNK     1      28.844  -8.143  37.024  1.00  0.00     0.014 A 
HETATM    9  C15 UNK     1      29.901  -5.832  38.198  1.00  0.00     0.102 A 
HETATM   10  C16 UNK     1      28.531  -7.817  38.347  1.00  0.00     0.004 A 
HETATM   11  C17 UNK     1      29.059  -6.664  38.932  1.00  0.00     0.040 A 
ENDROOT
BRANCH   3  12
HETATM   12  C8  UNK     1      31.160  -7.171  32.831  1.00  0.00     0.259 C 
HETATM   13  O1  UNK     1      32.047  -8.010  32.658  1.00  0.00    -0.267 OA
HETATM   14  N1  UNK     1      30.429  -6.562  31.803  1.00  0.00    -0.348 N 
HETATM   15  C6  UNK     1      30.739  -6.949  30.421  1.00  0.00     0.126 C 
HETATM   16  C7  UNK     1      29.474  -5.459  31.998  1.00  0.00     0.126 C 
HETATM   17  C4  UNK     1      29.548  -7.112  29.479  1.00  0.00     0.020 C 
HETATM   18  C2  UNK     1      28.581  -8.236  29.845  1.00  0.00     0.002 C 
HETATM   19  C1  UNK     1      27.881  -8.130  31.201  1.00  0.00     0.000 C 
HETATM   20  C3  UNK     1      27.276  -6.757  31.505  1.00  0.00     0.002 C 
HETATM   21  C5  UNK     1      28.096  -5.913  32.486  1.00  0.00     0.020 C 
ENDBRANCH   3  12
BRANCH   9  22
HETATM   22  O4  UNK     1      30.412  -4.710  38.772  1.00  0.00    -0.353 OA
HETATM   23  C18 UNK     1      29.493  -3.845  39.439  1.00  0.00     0.210 C 
ENDBRANCH   9  22
TORSDOF 2
ENDMDL
MODEL 10
REMARK VINA RESULT:      -7.3     31.089     33.797
REMARK  2 active torsions:
REMARK  status: ('A' for Active; 'I' for Inactive)
REMARK    1  A    between atoms: C15_20  and  O4_4 
REMARK       I    between atoms: C8_13  and  N1_5 
REMARK    2  A    between atoms: C8_13  and  C9_14 
ROOT
HETATM    1  O2  UNK     1      30.971  -7.904  31.855  1.00  0.00    -0.271 OA
HETATM    2  O3  UNK     1      32.916  -7.568  33.007  1.00  0.00    -0.259 OA
HETATM    3  C9  UNK     1      31.075  -6.203  33.609  1.00  0.00     0.108 A 
HETATM    4  C10 UNK     1      29.794  -5.874  33.403  1.00  0.00     0.037 A 
HETATM    5  C11 UNK     1      29.015  -6.561  32.384  1.00  0.00     0.002 A 
HETATM    6  C12 UNK     1      31.743  -7.264  32.821  1.00  0.00     0.304 A 
HETATM    7  C13 UNK     1      29.624  -7.561  31.633  1.00  0.00     0.123 A 
HETATM    8  C14 UNK     1      27.677  -6.249  32.134  1.00  0.00     0.014 A 
HETATM    9  C15 UNK     1      28.933  -8.257  30.642  1.00  0.00     0.102 A 
HETATM   10  C16 UNK     1      26.971  -6.939  31.144  1.00  0.00     0.004 A 
HETATM   11  C17 UNK     1      27.599  -7.940  30.400  1.00  0.00     0.040 A 
ENDROOT
BRANCH   3  12
HETATM   12  C8  UNK     1      31.782  -5.449  34.665  1.00  0.00     0.259 C 
HETATM   13  O1  UNK     1      32.233  -4.342  34.361  1.00  0.00    -0.267 OA
HETATM   14  N1  UNK     1      31.894  -6.033  35.933  1.00  0.00    -0.348 N 
HETATM   15  C6  UNK     1      32.600  -5.276  36.975  1.00  0.00     0.126 C 
HETATM   16  C7  UNK     1      31.485  -7.409  36.258  1.00  0.00     0.126 C 
HETATM   17  C4  UNK     1      31.996  -5.328  38.378  1.00  0.00     0.020 C 
HETATM   18  C2  UNK     1      30.608  -4.706  38.509  1.00  0.00     0.002 C 
HETATM   19  C1  UNK     1      29.488  -5.333  37.675  1.00  0.00     0.000 C 
HETATM   20  C3  UNK     1      29.421  -6.861  37.739  1.00  0.00     0.002 C 
HETATM   21  C5  UNK     1      29.982  -7.567  36.501  1.00  0.00     0.020 C 
ENDBRANCH   3  12
BRANCH   9  22
HETATM   22  O4  UNK     1      29.540  -9.234  29.916  1.00  0.00    -0.353 OA
HETATM   23  C18 UNK     1      29.930  -8.905  28.583  1.00  0.00     0.210 C 
ENDBRANCH   9  22
TORSDOF 2
ENDMDL
