MODEL 1
REMARK VINA RESULT:      -9.9      0.000      0.000
REMARK  6 active torsions:
REMARK  status: ('A' for Active; 'I' for Inactive)
REMARK    1  A    between atoms: C19_27  and  O5_5 
REMARK    2  A    between atoms: C22_30  and  O6_6 
REMARK       I    between atoms: C12_20  and  N2_8 
REMARK    3  A    between atoms: C24_32  and  N2_8 
REMARK    4  A    between atoms: C1_9  and  C9_17 
REMARK    5  A    between atoms: C11_19  and  C4_12 
REMARK    6  A    between atoms: C12_20  and  C8_16 
ROOT
HETATM    1  O1  UNK     1      14.462  12.160   9.425  1.00  0.00    -0.293 OA
HETATM    2  N1  UNK     1      16.364   7.842   9.863  1.00  0.00    -0.362 N 
HETATM    3  C1  UNK     1      17.890  11.265  10.156  1.00  0.00     0.031 C 
HETATM    4  C2  UNK     1      17.858   9.788   9.739  1.00  0.00     0.067 C 
HETATM    5  C3  UNK     1      15.347   9.979   9.738  1.00  0.00     0.024 C 
HETATM    6  C4  UNK     1      13.960   9.351   9.836  1.00  0.00     0.104 C 
HETATM    7  C5  UNK     1      16.462   9.218   9.780  1.00  0.00     0.021 C 
HETATM    8  C6  UNK     1      16.846  12.057   9.366  1.00  0.00     0.093 C 
HETATM    9  C7  UNK     1      15.466  11.456   9.529  1.00  0.00     0.159 C 
HETATM   10  C8  UNK     1      13.998   7.823   9.776  1.00  0.00     0.045 C 
HETATM   11  C10 UNK     1      15.168   7.144   9.816  1.00  0.00     0.018 C 
HETATM   12  C15 UNK     1      15.307   5.646   9.814  1.00  0.00     0.069 C 
HETATM   13  H7  UNK     1      17.223   7.307   9.889  1.00  0.00     0.165 HD
ENDROOT
BRANCH   6  14
HETATM   14  C11 UNK     1      13.271   9.804  11.094  1.00  0.00     0.029 A 
HETATM   15  C16 UNK     1      11.907  10.382  10.987  1.00  0.00     0.194 A 
HETATM   16  O4  UNK     1      11.333  10.500   9.914  1.00  0.00    -0.287 OA
HETATM   17  C18 UNK     1      11.279  10.812  12.250  1.00  0.00     0.049 A 
HETATM   18  C21 UNK     1      11.981  10.654  13.445  1.00  0.00     0.089 A 
HETATM   19  C23 UNK     1       9.998  11.369  12.256  1.00  0.00     0.025 A 
HETATM   20  O2  UNK     1      13.242  10.114  13.499  1.00  0.00    -0.321 OA
HETATM   21  C25 UNK     1      11.406  11.053  14.653  1.00  0.00     0.039 A 
HETATM   22  C17 UNK     1      13.814   9.719  12.315  1.00  0.00     0.154 A 
HETATM   23  C27 UNK     1      10.127  11.609  14.660  1.00  0.00     0.009 A 
HETATM   24  C26 UNK     1       9.424  11.766  13.465  1.00  0.00    -0.061 A 
HETATM   25  C30 UNK     1       8.055  12.361  13.479  1.00  0.00     0.048 C 
ENDBRANCH   6  14
BRANCH  10  26
HETATM   26  C12 UNK     1      12.705   7.137   9.619  1.00  0.00     0.255 C 
HETATM   27  O3  UNK     1      12.424   6.200  10.360  1.00  0.00    -0.268 OA
HETATM   28  N2  UNK     1      11.949   7.685   8.595  1.00  0.00    -0.323 N 
HETATM   29  H15 UNK     1      12.353   8.472   8.095  1.00  0.00     0.169 HD
BRANCH  28  30
HETATM   30  C24 UNK     1      10.661   7.280   8.164  1.00  0.00     0.041 A 
HETATM   31  C28 UNK     1      10.511   6.578   6.981  1.00  0.00    -0.035 A 
HETATM   32  C32 UNK     1       9.235   6.188   6.574  1.00  0.00     0.009 A 
HETATM   33  C34 UNK     1      11.682   6.223   6.121  1.00  0.00     0.050 C 
HETATM   34  C36 UNK     1       8.126   6.507   7.357  1.00  0.00     0.001 A 
HETATM   35  C35 UNK     1       8.293   7.215   8.548  1.00  0.00     0.002 A 
HETATM   36  C29 UNK     1       9.569   7.604   8.954  1.00  0.00     0.030 A 
ENDBRANCH  28  30
ENDBRANCH  10  26
BRANCH   3  37
HETATM   37  C9  UNK     1      19.279  11.860  10.029  1.00  0.00    -0.050 A 
HETATM   38  C13 UNK     1      19.857  12.011   8.770  1.00  0.00     0.047 A 
HETATM   39  C19 UNK     1      21.135  12.558   8.654  1.00  0.00     0.102 A 
HETATM   40  C22 UNK     1      21.832  12.952   9.796  1.00  0.00     0.101 A 
HETATM   41  C20 UNK     1      21.251  12.801  11.054  1.00  0.00     0.040 A 
HETATM   42  C14 UNK     1      19.974  12.254  11.171  1.00  0.00     0.010 A 
BRANCH  39  43
HETATM   43  O5  UNK     1      21.693  12.700   7.419  1.00  0.00    -0.353 OA
HETATM   44  C31 UNK     1      21.282  13.828   6.647  1.00  0.00     0.210 C 
ENDBRANCH  39  43
BRANCH  40  45
HETATM   45  O6  UNK     1      23.080  13.488   9.694  1.00  0.00    -0.353 OA
HETATM   46  C33 UNK     1      23.914  13.410  10.849  1.00  0.00     0.210 C 
ENDBRANCH  40  45
ENDBRANCH   3  37
TORSDOF 6
ENDMDL
MODEL 2
REMARK VINA RESULT:      -9.5     33.651     35.923
REMARK  6 active torsions:
REMARK  status: ('A' for Active; 'I' for Inactive)
REMARK    1  A    between atoms: C19_27  and  O5_5 
REMARK    2  A    between atoms: C22_30  and  O6_6 
REMARK       I    between atoms: C12_20  and  N2_8 
REMARK    3  A    between atoms: C24_32  and  N2_8 
REMARK    4  A    between atoms: C1_9  and  C9_17 
REMARK    5  A    between atoms: C11_19  and  C4_12 
REMARK    6  A    between atoms: C12_20  and  C8_16 
ROOT
HETATM    1  O1  UNK     1      34.907  -7.693  33.069  1.00  0.00    -0.293 OA
HETATM    2  N1  UNK     1      33.124 -12.058  32.613  1.00  0.00    -0.362 N 
HETATM    3  C1  UNK     1      36.623 -10.869  33.299  1.00  0.00     0.031 C 
HETATM    4  C2  UNK     1      35.563 -11.774  32.654  1.00  0.00     0.067 C 
HETATM    5  C3  UNK     1      33.950  -9.861  32.936  1.00  0.00     0.024 C 
HETATM    6  C4  UNK     1      32.529  -9.321  33.070  1.00  0.00     0.104 C 
HETATM    7  C5  UNK     1      34.180 -11.177  32.743  1.00  0.00     0.021 C 
HETATM    8  C6  UNK     1      36.499  -9.444  32.755  1.00  0.00     0.093 C 
HETATM    9  C7  UNK     1      35.099  -8.903  32.956  1.00  0.00     0.159 C 
HETATM   10  C8  UNK     1      31.465 -10.376  32.761  1.00  0.00     0.045 C 
HETATM   11  C10 UNK     1      31.793 -11.675  32.574  1.00  0.00     0.018 C 
HETATM   12  C15 UNK     1      30.817 -12.792  32.317  1.00  0.00     0.069 C 
HETATM   13  H7  UNK     1      33.338 -13.038  32.466  1.00  0.00     0.165 HD
ENDROOT
BRANCH   6  14
HETATM   14  C11 UNK     1      32.314  -8.755  34.447  1.00  0.00     0.029 A 
HETATM   15  C16 UNK     1      31.739  -7.392  34.573  1.00  0.00     0.194 A 
HETATM   16  O4  UNK     1      31.437  -6.721  33.595  1.00  0.00    -0.287 OA
HETATM   17  C18 UNK     1      31.552  -6.885  35.944  1.00  0.00     0.049 A 
HETATM   18  C21 UNK     1      31.915  -7.694  37.022  1.00  0.00     0.089 A 
HETATM   19  C23 UNK     1      31.018  -5.614  36.168  1.00  0.00     0.025 A 
HETATM   20  O2  UNK     1      32.444  -8.950  36.861  1.00  0.00    -0.321 OA
HETATM   21  C25 UNK     1      31.746  -7.236  38.329  1.00  0.00     0.039 A 
HETATM   22  C17 UNK     1      32.613  -9.408  35.578  1.00  0.00     0.154 A 
HETATM   23  C27 UNK     1      31.213  -5.966  38.554  1.00  0.00     0.009 A 
HETATM   24  C26 UNK     1      30.849  -5.157  37.477  1.00  0.00    -0.061 A 
HETATM   25  C30 UNK     1      30.279  -3.801  37.724  1.00  0.00     0.048 C 
ENDBRANCH   6  14
BRANCH  10  26
HETATM   26  C12 UNK     1      30.080  -9.895  32.627  1.00  0.00     0.255 C 
HETATM   27  O3  UNK     1      29.192 -10.414  33.296  1.00  0.00    -0.268 OA
HETATM   28  N2  UNK     1      29.976  -8.864  31.706  1.00  0.00    -0.323 N 
HETATM   29  H15 UNK     1      30.836  -8.563  31.254  1.00  0.00     0.169 HD
BRANCH  28  30
HETATM   30  C24 UNK     1      28.805  -8.165  31.324  1.00  0.00     0.041 A 
HETATM   31  C28 UNK     1      28.153  -8.490  30.147  1.00  0.00    -0.035 A 
HETATM   32  C32 UNK     1      27.001  -7.790  29.788  1.00  0.00     0.009 A 
HETATM   33  C34 UNK     1      28.649  -9.572  29.244  1.00  0.00     0.050 C 
HETATM   34  C36 UNK     1      26.517  -6.775  30.613  1.00  0.00     0.001 A 
HETATM   35  C35 UNK     1      27.184  -6.459  31.796  1.00  0.00     0.002 A 
HETATM   36  C29 UNK     1      28.336  -7.160  32.155  1.00  0.00     0.030 A 
ENDBRANCH  28  30
ENDBRANCH  10  26
BRANCH   3  37
HETATM   37  C9  UNK     1      38.022 -11.427  33.131  1.00  0.00    -0.050 A 
HETATM   38  C13 UNK     1      39.038 -10.617  32.628  1.00  0.00     0.047 A 
HETATM   39  C19 UNK     1      40.326 -11.130  32.473  1.00  0.00     0.102 A 
HETATM   40  C22 UNK     1      40.595 -12.454  32.821  1.00  0.00     0.101 A 
HETATM   41  C20 UNK     1      39.578 -13.263  33.325  1.00  0.00     0.040 A 
HETATM   42  C14 UNK     1      38.290 -12.750  33.480  1.00  0.00     0.010 A 
BRANCH  39  43
HETATM   43  O5  UNK     1      41.312 -10.331  31.979  1.00  0.00    -0.353 OA
HETATM   44  C31 UNK     1      42.146  -9.668  32.928  1.00  0.00     0.210 C 
ENDBRANCH  39  43
BRANCH  40  45
HETATM   45  O6  UNK     1      41.848 -12.967  32.676  1.00  0.00    -0.353 OA
HETATM   46  C33 UNK     1      42.510 -13.406  33.861  1.00  0.00     0.210 C 
ENDBRANCH  40  45
ENDBRANCH   3  37
TORSDOF 6
ENDMDL
MODEL 3
REMARK VINA RESULT:      -9.4      0.863      1.750
REMARK  6 active torsions:
REMARK  status: ('A' for Active; 'I' for Inactive)
REMARK    1  A    between atoms: C19_27  and  O5_5 
REMARK    2  A    between atoms: C22_30  and  O6_6 
REMARK       I    between atoms: C12_20  and  N2_8 
REMARK    3  A    between atoms: C24_32  and  N2_8 
REMARK    4  A    between atoms: C1_9  and  C9_17 
REMARK    5  A    between atoms: C11_19  and  C4_12 
REMARK    6  A    between atoms: C12_20  and  C8_16 
ROOT
HETATM    1  O1  UNK     1      14.501  12.180   9.267  1.00  0.00    -0.293 OA
HETATM    2  N1  UNK     1      16.373   7.886   9.974  1.00  0.00    -0.362 N 
HETATM    3  C1  UNK     1      17.894  11.317  10.172  1.00  0.00     0.031 C 
HETATM    4  C2  UNK     1      17.875   9.822   9.821  1.00  0.00     0.067 C 
HETATM    5  C3  UNK     1      15.367  10.015   9.712  1.00  0.00     0.024 C 
HETATM    6  C4  UNK     1      13.976   9.393   9.783  1.00  0.00     0.104 C 
HETATM    7  C5  UNK     1      16.477   9.256   9.832  1.00  0.00     0.021 C 
HETATM    8  C6  UNK     1      16.885  12.073   9.306  1.00  0.00     0.093 C 
HETATM    9  C7  UNK     1      15.498  11.481   9.441  1.00  0.00     0.159 C 
HETATM   10  C8  UNK     1      14.013   7.864   9.793  1.00  0.00     0.045 C 
HETATM   11  C10 UNK     1      15.178   7.187   9.911  1.00  0.00     0.018 C 
HETATM   12  C15 UNK     1      15.313   5.690   9.981  1.00  0.00     0.069 C 
HETATM   13  H7  UNK     1      17.230   7.351  10.057  1.00  0.00     0.165 HD
ENDROOT
BRANCH   6  14
HETATM   14  C11 UNK     1      13.239   9.903  10.992  1.00  0.00     0.029 A 
HETATM   15  C16 UNK     1      13.856   9.718  12.329  1.00  0.00     0.194 A 
HETATM   16  O4  UNK     1      14.938   9.166  12.476  1.00  0.00    -0.287 OA
HETATM   17  C18 UNK     1      13.091  10.234  13.479  1.00  0.00     0.049 A 
HETATM   18  C21 UNK     1      11.861  10.854  13.253  1.00  0.00     0.089 A 
HETATM   19  C23 UNK     1      13.586  10.109  14.780  1.00  0.00     0.025 A 
HETATM   20  O2  UNK     1      11.327  11.004  11.997  1.00  0.00    -0.321 OA
HETATM   21  C25 UNK     1      11.120  11.351  14.325  1.00  0.00     0.039 A 
HETATM   22  C17 UNK     1      12.050  10.518  10.937  1.00  0.00     0.154 A 
HETATM   23  C27 UNK     1      11.613  11.226  15.624  1.00  0.00     0.009 A 
HETATM   24  C26 UNK     1      12.843  10.607  15.851  1.00  0.00    -0.061 A 
HETATM   25  C30 UNK     1      13.365  10.478  17.243  1.00  0.00     0.048 C 
ENDBRANCH   6  14
BRANCH  10  26
HETATM   26  C12 UNK     1      12.725   7.173   9.617  1.00  0.00     0.255 C 
HETATM   27  O3  UNK     1      12.440   6.228  10.346  1.00  0.00    -0.268 OA
HETATM   28  N2  UNK     1      11.977   7.725   8.589  1.00  0.00    -0.323 N 
HETATM   29  H15 UNK     1      12.383   8.518   8.099  1.00  0.00     0.169 HD
BRANCH  28  30
HETATM   30  C24 UNK     1      10.697   7.317   8.140  1.00  0.00     0.041 A 
HETATM   31  C28 UNK     1      10.567   6.592   6.968  1.00  0.00    -0.035 A 
HETATM   32  C32 UNK     1       9.298   6.200   6.543  1.00  0.00     0.009 A 
HETATM   33  C34 UNK     1      11.753   6.216   6.139  1.00  0.00     0.050 C 
HETATM   34  C36 UNK     1       8.175   6.539   7.298  1.00  0.00     0.001 A 
HETATM   35  C35 UNK     1       8.321   7.269   8.477  1.00  0.00     0.002 A 
HETATM   36  C29 UNK     1       9.591   7.661   8.902  1.00  0.00     0.030 A 
ENDBRANCH  28  30
ENDBRANCH  10  26
BRANCH   3  37
HETATM   37  C9  UNK     1      19.289  11.905  10.074  1.00  0.00    -0.050 A 
HETATM   38  C13 UNK     1      19.958  11.905   8.851  1.00  0.00     0.047 A 
HETATM   39  C19 UNK     1      21.241  12.445   8.760  1.00  0.00     0.102 A 
HETATM   40  C22 UNK     1      21.853  12.983   9.892  1.00  0.00     0.101 A 
HETATM   41  C20 UNK     1      21.182  12.982  11.114  1.00  0.00     0.040 A 
HETATM   42  C14 UNK     1      19.899  12.443  11.206  1.00  0.00     0.010 A 
BRANCH  39  43
HETATM   43  O5  UNK     1      21.887  12.440   7.561  1.00  0.00    -0.353 OA
HETATM   44  C31 UNK     1      21.788  13.620   6.765  1.00  0.00     0.210 C 
ENDBRANCH  39  43
BRANCH  40  45
HETATM   45  O6  UNK     1      23.104  13.514   9.816  1.00  0.00    -0.353 OA
HETATM   46  C33 UNK     1      23.953  13.336  10.949  1.00  0.00     0.210 C 
ENDBRANCH  40  45
ENDBRANCH   3  37
TORSDOF 6
ENDMDL
MODEL 4
REMARK VINA RESULT:      -9.3     33.731     36.018
REMARK  6 active torsions:
REMARK  status: ('A' for Active; 'I' for Inactive)
REMARK    1  A    between atoms: C19_27  and  O5_5 
REMARK    2  A    between atoms: C22_30  and  O6_6 
REMARK       I    between atoms: C12_20  and  N2_8 
REMARK    3  A    between atoms: C24_32  and  N2_8 
REMARK    4  A    between atoms: C1_9  and  C9_17 
REMARK    5  A    between atoms: C11_19  and  C4_12 
REMARK    6  A    between atoms: C12_20  and  C8_16 
ROOT
HETATM    1  O1  UNK     1      35.023  -7.481  32.990  1.00  0.00    -0.293 OA
HETATM    2  N1  UNK     1      33.377 -11.911  32.648  1.00  0.00    -0.362 N 
HETATM    3  C1  UNK     1      36.839 -10.595  33.289  1.00  0.00     0.031 C 
HETATM    4  C2  UNK     1      35.805 -11.548  32.671  1.00  0.00     0.067 C 
HETATM    5  C3  UNK     1      34.134  -9.681  32.914  1.00  0.00     0.024 C 
HETATM    6  C4  UNK     1      32.697  -9.184  33.041  1.00  0.00     0.104 C 
HETATM    7  C5  UNK     1      34.405 -10.993  32.752  1.00  0.00     0.021 C 
HETATM    8  C6  UNK     1      36.667  -9.189  32.711  1.00  0.00     0.093 C 
HETATM    9  C7  UNK     1      35.252  -8.687  32.906  1.00  0.00     0.159 C 
HETATM   10  C8  UNK     1      31.666 -10.278  32.763  1.00  0.00     0.045 C 
HETATM   11  C10 UNK     1      32.034 -11.571  32.606  1.00  0.00     0.018 C 
HETATM   12  C15 UNK     1      31.093 -12.724  32.379  1.00  0.00     0.069 C 
HETATM   13  H7  UNK     1      33.622 -12.886  32.523  1.00  0.00     0.165 HD
ENDROOT
BRANCH   6  14
HETATM   14  C11 UNK     1      32.470  -8.591  34.406  1.00  0.00     0.029 A 
HETATM   15  C16 UNK     1      31.848  -7.246  34.501  1.00  0.00     0.194 A 
HETATM   16  O4  UNK     1      31.518  -6.610  33.510  1.00  0.00    -0.287 OA
HETATM   17  C18 UNK     1      31.650  -6.713  35.861  1.00  0.00     0.049 A 
HETATM   18  C21 UNK     1      32.047  -7.482  36.956  1.00  0.00     0.089 A 
HETATM   19  C23 UNK     1      31.073  -5.455  36.057  1.00  0.00     0.025 A 
HETATM   20  O2  UNK     1      32.618  -8.722  36.822  1.00  0.00    -0.321 OA
HETATM   21  C25 UNK     1      31.868  -6.997  38.253  1.00  0.00     0.039 A 
HETATM   22  C17 UNK     1      32.797  -9.205  35.550  1.00  0.00     0.154 A 
HETATM   23  C27 UNK     1      31.293  -5.742  38.450  1.00  0.00     0.009 A 
HETATM   24  C26 UNK     1      30.895  -4.973  37.355  1.00  0.00    -0.061 A 
HETATM   25  C30 UNK     1      30.279  -3.632  37.573  1.00  0.00     0.048 C 
ENDBRANCH   6  14
BRANCH  10  26
HETATM   26  C12 UNK     1      30.266  -9.844  32.623  1.00  0.00     0.255 C 
HETATM   27  O3  UNK     1      29.403 -10.345  33.339  1.00  0.00    -0.268 OA
HETATM   28  N2  UNK     1      30.119  -8.876  31.643  1.00  0.00    -0.323 N 
HETATM   29  H15 UNK     1      30.962  -8.580  31.158  1.00  0.00     0.169 HD
BRANCH  28  30
HETATM   30  C24 UNK     1      28.922  -8.235  31.239  1.00  0.00     0.041 A 
HETATM   31  C28 UNK     1      28.277  -8.630  30.079  1.00  0.00    -0.035 A 
HETATM   32  C32 UNK     1      27.099  -7.987  29.698  1.00  0.00     0.009 A 
HETATM   33  C34 UNK     1      28.807  -9.731  29.218  1.00  0.00     0.050 C 
HETATM   34  C36 UNK     1      26.583  -6.956  30.483  1.00  0.00     0.001 A 
HETATM   35  C35 UNK     1      27.244  -6.569  31.649  1.00  0.00     0.002 A 
HETATM   36  C29 UNK     1      28.421  -7.213  32.030  1.00  0.00     0.030 A 
ENDBRANCH  28  30
ENDBRANCH  10  26
BRANCH   3  37
HETATM   37  C9  UNK     1      38.255 -11.113  33.128  1.00  0.00    -0.050 A 
HETATM   38  C13 UNK     1      38.650 -12.270  33.795  1.00  0.00     0.047 A 
HETATM   39  C19 UNK     1      39.953 -12.747  33.648  1.00  0.00     0.102 A 
HETATM   40  C22 UNK     1      40.858 -12.065  32.834  1.00  0.00     0.101 A 
HETATM   41  C20 UNK     1      40.459 -10.907  32.167  1.00  0.00     0.040 A 
HETATM   42  C14 UNK     1      39.157 -10.430  32.314  1.00  0.00     0.010 A 
BRANCH  39  43
HETATM   43  O5  UNK     1      40.331 -13.879  34.305  1.00  0.00    -0.353 OA
HETATM   44  C31 UNK     1      39.309 -14.830  34.600  1.00  0.00     0.210 C 
ENDBRANCH  39  43
BRANCH  40  45
HETATM   45  O6  UNK     1      42.132 -12.521  32.681  1.00  0.00    -0.353 OA
HETATM   46  C33 UNK     1      43.182 -11.564  32.809  1.00  0.00     0.210 C 
ENDBRANCH  40  45
ENDBRANCH   3  37
TORSDOF 6
ENDMDL
MODEL 5
REMARK VINA RESULT:      -9.2     33.748     36.396
REMARK  6 active torsions:
REMARK  status: ('A' for Active; 'I' for Inactive)
REMARK    1  A    between atoms: C19_27  and  O5_5 
REMARK    2  A    between atoms: C22_30  and  O6_6 
REMARK       I    between atoms: C12_20  and  N2_8 
REMARK    3  A    between atoms: C24_32  and  N2_8 
REMARK    4  A    between atoms: C1_9  and  C9_17 
REMARK    5  A    between atoms: C11_19  and  C4_12 
REMARK    6  A    between atoms: C12_20  and  C8_16 
ROOT
HETATM    1  O1  UNK     1      33.737 -10.974  33.073  1.00  0.00    -0.293 OA
HETATM    2  N1  UNK     1      36.038  -7.099  34.537  1.00  0.00    -0.362 N 
HETATM    3  C1  UNK     1      37.205 -10.080  32.567  1.00  0.00     0.031 C 
HETATM    4  C2  UNK     1      37.336  -8.973  33.623  1.00  0.00     0.067 C 
HETATM    5  C3  UNK     1      34.821  -8.969  33.738  1.00  0.00     0.024 C 
HETATM    6  C4  UNK     1      33.500  -8.274  34.055  1.00  0.00     0.104 C 
HETATM    7  C5  UNK     1      36.002  -8.356  33.964  1.00  0.00     0.021 C 
HETATM    8  C6  UNK     1      36.121 -11.076  32.981  1.00  0.00     0.093 C 
HETATM    9  C7  UNK     1      34.801 -10.375  33.228  1.00  0.00     0.159 C 
HETATM   10  C8  UNK     1      33.691  -6.960  34.814  1.00  0.00     0.045 C 
HETATM   11  C10 UNK     1      34.919  -6.424  34.999  1.00  0.00     0.018 C 
HETATM   12  C15 UNK     1      35.205  -5.116  35.685  1.00  0.00     0.069 C 
HETATM   13  H7  UNK     1      36.944  -6.675  34.693  1.00  0.00     0.165 HD
ENDROOT
BRANCH   6  14
HETATM   14  C11 UNK     1      32.720  -8.035  32.790  1.00  0.00     0.029 A 
HETATM   15  C16 UNK     1      31.296  -8.452  32.746  1.00  0.00     0.194 A 
HETATM   16  O4  UNK     1      30.742  -8.980  33.700  1.00  0.00    -0.287 OA
HETATM   17  C18 UNK     1      30.580  -8.196  31.482  1.00  0.00     0.049 A 
HETATM   18  C21 UNK     1      31.262  -7.591  30.426  1.00  0.00     0.089 A 
HETATM   19  C23 UNK     1      29.236  -8.552  31.339  1.00  0.00     0.025 A 
HETATM   20  O2  UNK     1      32.581  -7.221  30.511  1.00  0.00    -0.321 OA
HETATM   21  C25 UNK     1      30.604  -7.339  29.221  1.00  0.00     0.039 A 
HETATM   22  C17 UNK     1      33.234  -7.466  31.693  1.00  0.00     0.154 A 
HETATM   23  C27 UNK     1      29.263  -7.693  29.077  1.00  0.00     0.009 A 
HETATM   24  C26 UNK     1      28.580  -8.298  30.134  1.00  0.00    -0.061 A 
HETATM   25  C30 UNK     1      27.145  -8.673  29.974  1.00  0.00     0.048 C 
ENDBRANCH   6  14
BRANCH  10  26
HETATM   26  C12 UNK     1      32.478  -6.341  35.375  1.00  0.00     0.255 C 
HETATM   27  O3  UNK     1      31.844  -5.535  34.701  1.00  0.00    -0.268 OA
HETATM   28  N2  UNK     1      32.216  -6.786  36.661  1.00  0.00    -0.323 N 
HETATM   29  H15 UNK     1      32.859  -7.469  37.051  1.00  0.00     0.169 HD
BRANCH  28  30
HETATM   30  C24 UNK     1      31.141  -6.406  37.501  1.00  0.00     0.041 A 
HETATM   31  C28 UNK     1      30.127  -7.304  37.785  1.00  0.00    -0.035 A 
HETATM   32  C32 UNK     1      29.076  -6.910  38.614  1.00  0.00     0.009 A 
HETATM   33  C34 UNK     1      30.123  -8.691  37.226  1.00  0.00     0.050 C 
HETATM   34  C36 UNK     1      29.055  -5.621  39.147  1.00  0.00     0.001 A 
HETATM   35  C35 UNK     1      30.085  -4.727  38.853  1.00  0.00     0.002 A 
HETATM   36  C29 UNK     1      31.135  -5.122  38.024  1.00  0.00     0.030 A 
ENDBRANCH  28  30
ENDBRANCH  10  26
BRANCH   3  37
HETATM   37  C9  UNK     1      38.533 -10.759  32.291  1.00  0.00    -0.050 A 
HETATM   38  C13 UNK     1      39.201 -11.421  33.319  1.00  0.00     0.047 A 
HETATM   39  C19 UNK     1      40.423 -12.045  33.065  1.00  0.00     0.102 A 
HETATM   40  C22 UNK     1      40.973 -12.006  31.784  1.00  0.00     0.101 A 
HETATM   41  C20 UNK     1      40.302 -11.343  30.757  1.00  0.00     0.040 A 
HETATM   42  C14 UNK     1      39.081 -10.719  31.010  1.00  0.00     0.010 A 
BRANCH  39  43
HETATM   43  O5  UNK     1      41.070 -12.688  34.076  1.00  0.00    -0.353 OA
HETATM   44  C31 UNK     1      40.695 -14.042  34.329  1.00  0.00     0.210 C 
ENDBRANCH  39  43
BRANCH  40  45
HETATM   45  O6  UNK     1      42.165 -12.612  31.524  1.00  0.00    -0.353 OA
HETATM   46  C33 UNK     1      42.137 -13.751  30.664  1.00  0.00     0.210 C 
ENDBRANCH  40  45
ENDBRANCH   3  37
TORSDOF 6
ENDMDL
MODEL 6
REMARK VINA RESULT:      -9.1      3.557     10.037
REMARK  6 active torsions:
REMARK  status: ('A' for Active; 'I' for Inactive)
REMARK    1  A    between atoms: C19_27  and  O5_5 
REMARK    2  A    between atoms: C22_30  and  O6_6 
REMARK       I    between atoms: C12_20  and  N2_8 
REMARK    3  A    between atoms: C24_32  and  N2_8 
REMARK    4  A    between atoms: C1_9  and  C9_17 
REMARK    5  A    between atoms: C11_19  and  C4_12 
REMARK    6  A    between atoms: C12_20  and  C8_16 
ROOT
HETATM    1  O1  UNK     1      18.144   9.388  10.144  1.00  0.00    -0.293 OA
HETATM    2  N1  UNK     1      15.289  12.075   7.484  1.00  0.00    -0.362 N 
HETATM    3  C1  UNK     1      14.665   8.851   9.313  1.00  0.00     0.031 C 
HETATM    4  C2  UNK     1      14.533   9.832   8.139  1.00  0.00     0.067 C 
HETATM    5  C3  UNK     1      16.724  10.819   8.890  1.00  0.00     0.024 C 
HETATM    6  C4  UNK     1      17.714  11.978   8.955  1.00  0.00     0.104 C 
HETATM    7  C5  UNK     1      15.571  10.925   8.196  1.00  0.00     0.021 C 
HETATM    8  C6  UNK     1      16.110   8.362   9.430  1.00  0.00     0.093 C 
HETATM    9  C7  UNK     1      17.071   9.526   9.558  1.00  0.00     0.159 C 
HETATM   10  C8  UNK     1      17.346  13.123   8.010  1.00  0.00     0.045 C 
HETATM   11  C10 UNK     1      16.166  13.139   7.347  1.00  0.00     0.018 C 
HETATM   12  C15 UNK     1      15.692  14.240   6.438  1.00  0.00     0.069 C 
HETATM   13  H7  UNK     1      14.415  12.114   6.973  1.00  0.00     0.165 HD
ENDROOT
BRANCH   6  14
HETATM   14  C11 UNK     1      17.829  12.487  10.366  1.00  0.00     0.029 A 
HETATM   15  C16 UNK     1      19.170  12.514  11.004  1.00  0.00     0.194 A 
HETATM   16  O4  UNK     1      20.176  12.136  10.419  1.00  0.00    -0.287 OA
HETATM   17  C18 UNK     1      19.226  13.019  12.387  1.00  0.00     0.049 A 
HETATM   18  C21 UNK     1      18.047  13.436  13.006  1.00  0.00     0.089 A 
HETATM   19  C23 UNK     1      20.441  13.084  13.075  1.00  0.00     0.025 A 
HETATM   20  O2  UNK     1      16.827  13.395  12.379  1.00  0.00    -0.321 OA
HETATM   21  C25 UNK     1      18.076  13.919  14.315  1.00  0.00     0.039 A 
HETATM   22  C17 UNK     1      16.790  12.921  11.091  1.00  0.00     0.154 A 
HETATM   23  C27 UNK     1      19.288  13.984  15.002  1.00  0.00     0.009 A 
HETATM   24  C26 UNK     1      20.468  13.568  14.384  1.00  0.00    -0.061 A 
HETATM   25  C30 UNK     1      21.761  13.641  15.124  1.00  0.00     0.048 C 
ENDBRANCH   6  14
BRANCH  10  26
HETATM   26  C12 UNK     1      18.360  14.173   7.820  1.00  0.00     0.255 C 
HETATM   27  O3  UNK     1      18.047  15.350   7.974  1.00  0.00    -0.268 OA
HETATM   28  N2  UNK     1      19.594  13.646   7.474  1.00  0.00    -0.323 N 
HETATM   29  H15 UNK     1      19.658  12.634   7.402  1.00  0.00     0.169 HD
BRANCH  28  30
HETATM   30  C24 UNK     1      20.791  14.357   7.215  1.00  0.00     0.041 A 
HETATM   31  C28 UNK     1      21.031  14.883   5.957  1.00  0.00    -0.035 A 
HETATM   32  C32 UNK     1      22.217  15.579   5.721  1.00  0.00     0.009 A 
HETATM   33  C34 UNK     1      20.054  14.725   4.837  1.00  0.00     0.050 C 
HETATM   34  C36 UNK     1      23.147  15.739   6.749  1.00  0.00     0.001 A 
HETATM   35  C35 UNK     1      22.891  15.205   8.012  1.00  0.00     0.002 A 
HETATM   36  C29 UNK     1      21.704  14.509   8.247  1.00  0.00     0.030 A 
ENDBRANCH  28  30
ENDBRANCH  10  26
BRANCH   3  37
HETATM   37  C9  UNK     1      13.678   7.704   9.206  1.00  0.00    -0.050 A 
HETATM   38  C13 UNK     1      12.538   7.840   8.417  1.00  0.00     0.047 A 
HETATM   39  C19 UNK     1      11.630   6.786   8.319  1.00  0.00     0.102 A 
HETATM   40  C22 UNK     1      11.864   5.597   9.010  1.00  0.00     0.101 A 
HETATM   41  C20 UNK     1      13.006   5.463   9.799  1.00  0.00     0.040 A 
HETATM   42  C14 UNK     1      13.914   6.517   9.897  1.00  0.00     0.010 A 
BRANCH  39  43
HETATM   43  O5  UNK     1      10.518   6.928   7.545  1.00  0.00    -0.353 OA
HETATM   44  C31 UNK     1      10.677   6.747   6.139  1.00  0.00     0.210 C 
ENDBRANCH  39  43
BRANCH  40  45
HETATM   45  O6  UNK     1      10.986   4.560   8.922  1.00  0.00    -0.353 OA
HETATM   46  C33 UNK     1      10.124   4.344  10.038  1.00  0.00     0.210 C 
ENDBRANCH  40  45
ENDBRANCH   3  37
TORSDOF 6
ENDMDL
MODEL 7
REMARK VINA RESULT:      -9.0     33.257     35.690
REMARK  6 active torsions:
REMARK  status: ('A' for Active; 'I' for Inactive)
REMARK    1  A    between atoms: C19_27  and  O5_5 
REMARK    2  A    between atoms: C22_30  and  O6_6 
REMARK       I    between atoms: C12_20  and  N2_8 
REMARK    3  A    between atoms: C24_32  and  N2_8 
REMARK    4  A    between atoms: C1_9  and  C9_17 
REMARK    5  A    between atoms: C11_19  and  C4_12 
REMARK    6  A    between atoms: C12_20  and  C8_16 
ROOT
HETATM    1  O1  UNK     1      32.432 -10.652  32.015  1.00  0.00    -0.293 OA
HETATM    2  N1  UNK     1      34.723  -8.115  35.296  1.00  0.00    -0.362 N 
HETATM    3  C1  UNK     1      35.921  -9.703  32.107  1.00  0.00     0.031 C 
HETATM    4  C2  UNK     1      36.030  -9.291  33.582  1.00  0.00     0.067 C 
HETATM    5  C3  UNK     1      33.513  -9.290  33.631  1.00  0.00     0.024 C 
HETATM    6  C4  UNK     1      32.189  -8.824  34.231  1.00  0.00     0.104 C 
HETATM    7  C5  UNK     1      34.693  -8.904  34.162  1.00  0.00     0.021 C 
HETATM    8  C6  UNK     1      34.816 -10.746  31.933  1.00  0.00     0.093 C 
HETATM    9  C7  UNK     1      33.495 -10.239  32.475  1.00  0.00     0.159 C 
HETATM   10  C8  UNK     1      32.370  -8.084  35.557  1.00  0.00     0.045 C 
HETATM   11  C10 UNK     1      33.597  -7.745  36.015  1.00  0.00     0.018 C 
HETATM   12  C15 UNK     1      33.875  -6.975  37.278  1.00  0.00     0.069 C 
HETATM   13  H7  UNK     1      35.628  -7.850  35.666  1.00  0.00     0.165 HD
ENDROOT
BRANCH   6  14
HETATM   14  C11 UNK     1      31.449  -7.956  33.249  1.00  0.00     0.029 A 
HETATM   15  C16 UNK     1      30.021  -8.254  32.976  1.00  0.00     0.194 A 
HETATM   16  O4  UNK     1      29.432  -9.177  33.522  1.00  0.00    -0.287 OA
HETATM   17  C18 UNK     1      29.344  -7.375  32.005  1.00  0.00     0.049 A 
HETATM   18  C21 UNK     1      30.065  -6.337  31.412  1.00  0.00     0.089 A 
HETATM   19  C23 UNK     1      28.000  -7.572  31.679  1.00  0.00     0.025 A 
HETATM   20  O2  UNK     1      31.386  -6.097  31.694  1.00  0.00    -0.321 OA
HETATM   21  C25 UNK     1      29.445  -5.492  30.490  1.00  0.00     0.039 A 
HETATM   22  C17 UNK     1      32.002  -6.924  32.599  1.00  0.00     0.154 A 
HETATM   23  C27 UNK     1      28.103  -5.688  30.165  1.00  0.00     0.009 A 
HETATM   24  C26 UNK     1      27.381  -6.725  30.758  1.00  0.00    -0.061 A 
HETATM   25  C30 UNK     1      25.946  -6.929  30.406  1.00  0.00     0.048 C 
ENDBRANCH   6  14
BRANCH  10  26
HETATM   26  C12 UNK     1      31.147  -7.809  36.330  1.00  0.00     0.255 C 
HETATM   27  O3  UNK     1      30.907  -6.663  36.696  1.00  0.00    -0.268 OA
HETATM   28  N2  UNK     1      30.401  -8.958  36.546  1.00  0.00    -0.323 N 
HETATM   29  H15 UNK     1      30.764  -9.822  36.153  1.00  0.00     0.169 HD
BRANCH  28  30
HETATM   30  C24 UNK     1      29.176  -9.069  37.247  1.00  0.00     0.041 A 
HETATM   31  C28 UNK     1      29.144  -9.637  38.509  1.00  0.00    -0.035 A 
HETATM   32  C32 UNK     1      27.927  -9.738  39.183  1.00  0.00     0.009 A 
HETATM   33  C34 UNK     1      30.381 -10.149  39.174  1.00  0.00     0.050 C 
HETATM   34  C36 UNK     1      26.757  -9.268  38.584  1.00  0.00     0.001 A 
HETATM   35  C35 UNK     1      26.805  -8.698  37.312  1.00  0.00     0.002 A 
HETATM   36  C29 UNK     1      28.023  -8.597  36.639  1.00  0.00     0.030 A 
ENDBRANCH  28  30
ENDBRANCH  10  26
BRANCH   3  37
HETATM   37  C9  UNK     1      37.250 -10.176  31.550  1.00  0.00    -0.050 A 
HETATM   38  C13 UNK     1      38.317 -10.416  32.413  1.00  0.00     0.047 A 
HETATM   39  C19 UNK     1      39.540 -10.851  31.901  1.00  0.00     0.102 A 
HETATM   40  C22 UNK     1      39.693 -11.045  30.529  1.00  0.00     0.101 A 
HETATM   41  C20 UNK     1      38.623 -10.805  29.668  1.00  0.00     0.040 A 
HETATM   42  C14 UNK     1      37.400 -10.370  30.178  1.00  0.00     0.010 A 
BRANCH  39  43
HETATM   43  O5  UNK     1      40.579 -11.082  32.752  1.00  0.00    -0.353 OA
HETATM   44  C31 UNK     1      40.457 -12.194  33.638  1.00  0.00     0.210 C 
ENDBRANCH  39  43
BRANCH  40  45
HETATM   45  O6  UNK     1      40.881 -11.470  30.017  1.00  0.00    -0.353 OA
HETATM   46  C33 UNK     1      40.994 -12.859  29.709  1.00  0.00     0.210 C 
ENDBRANCH  40  45
ENDBRANCH   3  37
TORSDOF 6
ENDMDL
MODEL 8
REMARK VINA RESULT:      -8.9     33.445     35.776
REMARK  6 active torsions:
REMARK  status: ('A' for Active; 'I' for Inactive)
REMARK    1  A    between atoms: C19_27  and  O5_5 
REMARK    2  A    between atoms: C22_30  and  O6_6 
REMARK       I    between atoms: C12_20  and  N2_8 
REMARK    3  A    between atoms: C24_32  and  N2_8 
REMARK    4  A    between atoms: C1_9  and  C9_17 
REMARK    5  A    between atoms: C11_19  and  C4_12 
REMARK    6  A    between atoms: C12_20  and  C8_16 
ROOT
HETATM    1  O1  UNK     1      35.921  -7.282  33.824  1.00  0.00    -0.293 OA
HETATM    2  N1  UNK     1      34.070 -10.573  30.961  1.00  0.00    -0.362 N 
HETATM    3  C1  UNK     1      37.078 -10.654  33.213  1.00  0.00     0.031 C 
HETATM    4  C2  UNK     1      36.293 -10.960  31.929  1.00  0.00     0.067 C 
HETATM    5  C3  UNK     1      34.898  -8.931  32.456  1.00  0.00     0.024 C 
HETATM    6  C4  UNK     1      33.606  -8.130  32.330  1.00  0.00     0.104 C 
HETATM    7  C5  UNK     1      35.060 -10.101  31.802  1.00  0.00     0.021 C 
HETATM    8  C6  UNK     1      37.325  -9.149  33.332  1.00  0.00     0.093 C 
HETATM    9  C7  UNK     1      36.024  -8.376  33.270  1.00  0.00     0.159 C 
HETATM   10  C8  UNK     1      32.666  -8.690  31.261  1.00  0.00     0.045 C 
HETATM   11  C10 UNK     1      32.915  -9.873  30.652  1.00  0.00     0.018 C 
HETATM   12  C15 UNK     1      32.028 -10.530  29.629  1.00  0.00     0.069 C 
HETATM   13  H7  UNK     1      34.231 -11.453  30.486  1.00  0.00     0.165 HD
ENDROOT
BRANCH   6  14
HETATM   14  C11 UNK     1      32.902  -8.064  33.658  1.00  0.00     0.029 A 
HETATM   15  C16 UNK     1      32.467  -6.738  34.165  1.00  0.00     0.194 A 
HETATM   16  O4  UNK     1      32.664  -5.705  33.539  1.00  0.00    -0.287 OA
HETATM   17  C18 UNK     1      31.784  -6.730  35.472  1.00  0.00     0.049 A 
HETATM   18  C21 UNK     1      31.588  -7.938  36.142  1.00  0.00     0.089 A 
HETATM   19  C23 UNK     1      31.337  -5.532  36.036  1.00  0.00     0.025 A 
HETATM   20  O2  UNK     1      32.006  -9.143  35.636  1.00  0.00    -0.321 OA
HETATM   21  C25 UNK     1      30.943  -7.955  37.380  1.00  0.00     0.039 A 
HETATM   22  C17 UNK     1      32.641  -9.135  34.419  1.00  0.00     0.154 A 
HETATM   23  C27 UNK     1      30.496  -6.760  37.943  1.00  0.00     0.009 A 
HETATM   24  C26 UNK     1      30.691  -5.552  37.273  1.00  0.00    -0.061 A 
HETATM   25  C30 UNK     1      30.210  -4.277  37.881  1.00  0.00     0.048 C 
ENDBRANCH   6  14
BRANCH  10  26
HETATM   26  C12 UNK     1      31.510  -7.854  30.897  1.00  0.00     0.255 C 
HETATM   27  O3  UNK     1      31.681  -6.854  30.206  1.00  0.00    -0.268 OA
HETATM   28  N2  UNK     1      30.327  -8.349  31.420  1.00  0.00    -0.323 N 
HETATM   29  H15 UNK     1      30.387  -9.204  31.967  1.00  0.00     0.169 HD
BRANCH  28  30
HETATM   30  C24 UNK     1      29.027  -7.805  31.275  1.00  0.00     0.041 A 
HETATM   31  C28 UNK     1      28.186  -8.265  30.275  1.00  0.00    -0.035 A 
HETATM   32  C32 UNK     1      26.911  -7.716  30.148  1.00  0.00     0.009 A 
HETATM   33  C34 UNK     1      28.608  -9.338  29.324  1.00  0.00     0.050 C 
HETATM   34  C36 UNK     1      26.493  -6.713  31.023  1.00  0.00     0.001 A 
HETATM   35  C35 UNK     1      27.350  -6.260  32.026  1.00  0.00     0.002 A 
HETATM   36  C29 UNK     1      28.627  -6.810  32.153  1.00  0.00     0.030 A 
ENDBRANCH  28  30
ENDBRANCH  10  26
BRANCH   3  37
HETATM   37  C9  UNK     1      38.363 -11.455  33.296  1.00  0.00    -0.050 A 
HETATM   38  C13 UNK     1      39.552 -10.912  32.813  1.00  0.00     0.047 A 
HETATM   39  C19 UNK     1      40.734 -11.648  32.889  1.00  0.00     0.102 A 
HETATM   40  C22 UNK     1      40.726 -12.926  33.447  1.00  0.00     0.101 A 
HETATM   41  C20 UNK     1      39.535 -13.467  33.930  1.00  0.00     0.040 A 
HETATM   42  C14 UNK     1      38.353 -12.732  33.855  1.00  0.00     0.010 A 
BRANCH  39  43
HETATM   43  O5  UNK     1      41.892 -11.110  32.412  1.00  0.00    -0.353 OA
HETATM   44  C31 UNK     1      42.288  -9.847  32.947  1.00  0.00     0.210 C 
ENDBRANCH  39  43
BRANCH  40  45
HETATM   45  O6  UNK     1      41.873 -13.655  33.527  1.00  0.00    -0.353 OA
HETATM   46  C33 UNK     1      41.989 -14.562  34.623  1.00  0.00     0.210 C 
ENDBRANCH  40  45
ENDBRANCH   3  37
TORSDOF 6
ENDMDL
MODEL 9
REMARK VINA RESULT:      -8.9     33.278     35.790
REMARK  6 active torsions:
REMARK  status: ('A' for Active; 'I' for Inactive)
REMARK    1  A    between atoms: C19_27  and  O5_5 
REMARK    2  A    between atoms: C22_30  and  O6_6 
REMARK       I    between atoms: C12_20  and  N2_8 
REMARK    3  A    between atoms: C24_32  and  N2_8 
REMARK    4  A    between atoms: C1_9  and  C9_17 
REMARK    5  A    between atoms: C11_19  and  C4_12 
REMARK    6  A    between atoms: C12_20  and  C8_16 
ROOT
HETATM    1  O1  UNK     1      32.948 -11.166  33.220  1.00  0.00    -0.293 OA
HETATM    2  N1  UNK     1      35.415  -7.589  35.107  1.00  0.00    -0.362 N 
HETATM    3  C1  UNK     1      36.093  -9.762  32.116  1.00  0.00     0.031 C 
HETATM    4  C2  UNK     1      36.474  -8.976  33.379  1.00  0.00     0.067 C 
HETATM    5  C3  UNK     1      34.096  -9.303  34.139  1.00  0.00     0.024 C 
HETATM    6  C4  UNK     1      32.893  -8.883  34.978  1.00  0.00     0.104 C 
HETATM    7  C5  UNK     1      35.268  -8.638  34.220  1.00  0.00     0.021 C 
HETATM    8  C6  UNK     1      35.210 -10.955  32.486  1.00  0.00     0.093 C 
HETATM    9  C7  UNK     1      33.987 -10.510  33.261  1.00  0.00     0.159 C 
HETATM   10  C8  UNK     1      33.239  -7.812  36.013  1.00  0.00     0.045 C 
HETATM   11  C10 UNK     1      34.448  -7.203  36.021  1.00  0.00     0.018 C 
HETATM   12  C15 UNK     1      34.865  -6.106  36.963  1.00  0.00     0.069 C 
HETATM   13  H7  UNK     1      36.311  -7.118  35.141  1.00  0.00     0.165 HD
ENDROOT
BRANCH   6  14
HETATM   14  C11 UNK     1      31.778  -8.404  34.088  1.00  0.00     0.029 A 
HETATM   15  C16 UNK     1      31.914  -7.079  33.433  1.00  0.00     0.194 A 
HETATM   16  O4  UNK     1      32.898  -6.370  33.595  1.00  0.00    -0.287 OA
HETATM   17  C18 UNK     1      30.793  -6.657  32.572  1.00  0.00     0.049 A 
HETATM   18  C21 UNK     1      29.695  -7.506  32.424  1.00  0.00     0.089 A 
HETATM   19  C23 UNK     1      30.825  -5.426  31.912  1.00  0.00     0.025 A 
HETATM   20  O2  UNK     1      29.611  -8.724  33.049  1.00  0.00    -0.321 OA
HETATM   21  C25 UNK     1      28.623  -7.128  31.614  1.00  0.00     0.039 A 
HETATM   22  C17 UNK     1      30.661  -9.103  33.847  1.00  0.00     0.154 A 
HETATM   23  C27 UNK     1      28.654  -5.900  30.954  1.00  0.00     0.009 A 
HETATM   24  C26 UNK     1      29.752  -5.051  31.101  1.00  0.00    -0.061 A 
HETATM   25  C30 UNK     1      29.778  -3.739  30.392  1.00  0.00     0.048 C 
ENDBRANCH   6  14
BRANCH  10  26
HETATM   26  C12 UNK     1      32.212  -7.517  37.026  1.00  0.00     0.255 C 
HETATM   27  O3  UNK     1      32.075  -8.269  37.986  1.00  0.00    -0.268 OA
HETATM   28  N2  UNK     1      31.505  -6.363  36.726  1.00  0.00    -0.323 N 
HETATM   29  H15 UNK     1      31.772  -5.866  35.880  1.00  0.00     0.169 HD
BRANCH  28  30
HETATM   30  C24 UNK     1      30.450  -5.782  37.471  1.00  0.00     0.041 A 
HETATM   31  C28 UNK     1      29.145  -6.203  37.278  1.00  0.00    -0.035 A 
HETATM   32  C32 UNK     1      28.120  -5.619  38.022  1.00  0.00     0.009 A 
HETATM   33  C34 UNK     1      28.801  -7.272  36.291  1.00  0.00     0.050 C 
HETATM   34  C36 UNK     1      28.415  -4.619  38.949  1.00  0.00     0.001 A 
HETATM   35  C35 UNK     1      29.734  -4.205  39.133  1.00  0.00     0.002 A 
HETATM   36  C29 UNK     1      30.759  -4.791  38.390  1.00  0.00     0.030 A 
ENDBRANCH  28  30
ENDBRANCH  10  26
BRANCH   3  37
HETATM   37  C9  UNK     1      37.313 -10.177  31.317  1.00  0.00    -0.050 A 
HETATM   38  C13 UNK     1      38.482 -10.550  31.979  1.00  0.00     0.047 A 
HETATM   39  C19 UNK     1      39.605 -10.931  31.244  1.00  0.00     0.102 A 
HETATM   40  C22 UNK     1      39.557 -10.938  29.850  1.00  0.00     0.101 A 
HETATM   41  C20 UNK     1      38.387 -10.565  29.191  1.00  0.00     0.040 A 
HETATM   42  C14 UNK     1      37.264 -10.184  29.924  1.00  0.00     0.010 A 
BRANCH  39  43
HETATM   43  O5  UNK     1      40.743 -11.294  31.899  1.00  0.00    -0.353 OA
HETATM   44  C31 UNK     1      41.420 -10.275  32.635  1.00  0.00     0.210 C 
ENDBRANCH  39  43
BRANCH  40  45
HETATM   45  O6  UNK     1      40.647 -11.310  29.122  1.00  0.00    -0.353 OA
HETATM   46  C33 UNK     1      40.494 -12.433  28.256  1.00  0.00     0.210 C 
ENDBRANCH  40  45
ENDBRANCH   3  37
TORSDOF 6
ENDMDL
MODEL 10
REMARK VINA RESULT:      -8.9     33.549     35.894
REMARK  6 active torsions:
REMARK  status: ('A' for Active; 'I' for Inactive)
REMARK    1  A    between atoms: C19_27  and  O5_5 
REMARK    2  A    between atoms: C22_30  and  O6_6 
REMARK       I    between atoms: C12_20  and  N2_8 
REMARK    3  A    between atoms: C24_32  and  N2_8 
REMARK    4  A    between atoms: C1_9  and  C9_17 
REMARK    5  A    between atoms: C11_19  and  C4_12 
REMARK    6  A    between atoms: C12_20  and  C8_16 
ROOT
HETATM    1  O1  UNK     1      35.963  -7.178  33.963  1.00  0.00    -0.293 OA
HETATM    2  N1  UNK     1      34.220 -10.313  30.867  1.00  0.00    -0.362 N 
HETATM    3  C1  UNK     1      37.220 -10.465  33.128  1.00  0.00     0.031 C 
HETATM    4  C2  UNK     1      36.449 -10.704  31.821  1.00  0.00     0.067 C 
HETATM    5  C3  UNK     1      34.994  -8.757  32.478  1.00  0.00     0.024 C 
HETATM    6  C4  UNK     1      33.680  -7.986  32.399  1.00  0.00     0.104 C 
HETATM    7  C5  UNK     1      35.193  -9.874  31.745  1.00  0.00     0.021 C 
HETATM    8  C6  UNK     1      37.423  -8.966  33.352  1.00  0.00     0.093 C 
HETATM    9  C7  UNK     1      36.100  -8.227  33.335  1.00  0.00     0.159 C 
HETATM   10  C8  UNK     1      32.762  -8.497  31.288  1.00  0.00     0.045 C 
HETATM   11  C10 UNK     1      33.047  -9.626  30.600  1.00  0.00     0.018 C 
HETATM   12  C15 UNK     1      32.184 -10.236  29.528  1.00  0.00     0.069 C 
HETATM   13  H7  UNK     1      34.409 -11.153  30.333  1.00  0.00     0.165 HD
ENDROOT
BRANCH   6  14
HETATM   14  C11 UNK     1      32.969  -8.032  33.724  1.00  0.00     0.029 A 
HETATM   15  C16 UNK     1      32.549  -6.752  34.349  1.00  0.00     0.194 A 
HETATM   16  O4  UNK     1      32.765  -5.669  33.822  1.00  0.00    -0.287 OA
HETATM   17  C18 UNK     1      31.858  -6.855  35.647  1.00  0.00     0.049 A 
HETATM   18  C21 UNK     1      31.640  -8.116  36.202  1.00  0.00     0.089 A 
HETATM   19  C23 UNK     1      31.424  -5.708  36.317  1.00  0.00     0.025 A 
HETATM   20  O2  UNK     1      32.045  -9.276  35.589  1.00  0.00    -0.321 OA
HETATM   21  C25 UNK     1      30.987  -8.238  37.430  1.00  0.00     0.039 A 
HETATM   22  C17 UNK     1      32.687  -9.164  34.382  1.00  0.00     0.154 A 
HETATM   23  C27 UNK     1      30.553  -7.094  38.099  1.00  0.00     0.009 A 
HETATM   24  C26 UNK     1      30.770  -5.832  37.544  1.00  0.00    -0.061 A 
HETATM   25  C30 UNK     1      30.303  -4.612  38.265  1.00  0.00     0.048 C 
ENDBRANCH   6  14
BRANCH  10  26
HETATM   26  C12 UNK     1      31.584  -7.670  30.975  1.00  0.00     0.255 C 
HETATM   27  O3  UNK     1      31.730  -6.618  30.361  1.00  0.00    -0.268 OA
HETATM   28  N2  UNK     1      30.412  -8.237  31.450  1.00  0.00    -0.323 N 
HETATM   29  H15 UNK     1      30.494  -9.128  31.932  1.00  0.00     0.169 HD
BRANCH  28  30
HETATM   30  C24 UNK     1      29.098  -7.722  31.332  1.00  0.00     0.041 A 
HETATM   31  C28 UNK     1      28.243  -8.209  30.358  1.00  0.00    -0.035 A 
HETATM   32  C32 UNK     1      26.953  -7.689  30.258  1.00  0.00     0.009 A 
HETATM   33  C34 UNK     1      28.663  -9.281  29.405  1.00  0.00     0.050 C 
HETATM   34  C36 UNK     1      26.535  -6.687  31.135  1.00  0.00     0.001 A 
HETATM   35  C35 UNK     1      27.407  -6.207  32.112  1.00  0.00     0.002 A 
HETATM   36  C29 UNK     1      28.698  -6.728  32.211  1.00  0.00     0.030 A 
ENDBRANCH  28  30
ENDBRANCH  10  26
BRANCH   3  37
HETATM   37  C9  UNK     1      38.527 -11.233  33.163  1.00  0.00    -0.050 A 
HETATM   38  C13 UNK     1      38.603 -12.443  33.851  1.00  0.00     0.047 A 
HETATM   39  C19 UNK     1      39.805 -13.149  33.884  1.00  0.00     0.102 A 
HETATM   40  C22 UNK     1      40.929 -12.645  33.229  1.00  0.00     0.101 A 
HETATM   41  C20 UNK     1      40.850 -11.434  32.542  1.00  0.00     0.040 A 
HETATM   42  C14 UNK     1      39.649 -10.728  32.508  1.00  0.00     0.010 A 
BRANCH  39  43
HETATM   43  O5  UNK     1      39.871 -14.330  34.559  1.00  0.00    -0.353 OA
HETATM   44  C31 UNK     1      38.633 -14.939  34.924  1.00  0.00     0.210 C 
ENDBRANCH  39  43
BRANCH  40  45
HETATM   45  O6  UNK     1      42.108 -13.326  33.254  1.00  0.00    -0.353 OA
HETATM   46  C33 UNK     1      43.252 -12.660  32.721  1.00  0.00     0.210 C 
ENDBRANCH  40  45
ENDBRANCH   3  37
TORSDOF 6
ENDMDL
