MODEL 1
REMARK VINA RESULT:      -9.1      0.000      0.000
REMARK  3 active torsions:
REMARK  status: ('A' for Active; 'I' for Inactive)
REMARK    1  A    between atoms: C7_11  and  O2_2 
REMARK    2  A    between atoms: C12_16  and  O3_3 
REMARK    3  A    between atoms: C2_6  and  C4_8 
ROOT
HETATM    1  O1  UNK     1      18.725  -0.562  33.679  1.00  0.00    -0.309 OA
HETATM    2  O4  UNK     1      20.609  -3.611  35.617  1.00  0.00    -0.287 OA
HETATM    3  C1  UNK     1      19.107  -1.790  35.740  1.00  0.00     0.081 A 
HETATM    4  C2  UNK     1      19.610  -1.405  33.024  1.00  0.00     0.090 A 
HETATM    5  C3  UNK     1      18.497  -0.768  35.017  1.00  0.00     0.093 A 
HETATM    6  C5  UNK     1      20.040  -2.692  35.045  1.00  0.00     0.190 A 
HETATM    7  C6  UNK     1      20.254  -2.427  33.608  1.00  0.00     0.094 A 
HETATM    8  C7  UNK     1      18.838  -1.952  37.100  1.00  0.00     0.082 A 
HETATM    9  C8  UNK     1      17.608   0.100  35.651  1.00  0.00     0.038 A 
HETATM   10  C11 UNK     1      17.949  -1.082  37.733  1.00  0.00     0.037 A 
HETATM   11  C13 UNK     1      17.335  -0.058  37.010  1.00  0.00     0.006 A 
ENDROOT
BRANCH   4  12
HETATM   12  C4  UNK     1      19.778  -1.099  31.589  1.00  0.00     0.001 A 
HETATM   13  C10 UNK     1      20.302  -2.062  30.723  1.00  0.00     0.014 A 
HETATM   14  C14 UNK     1      20.460  -1.773  29.368  1.00  0.00     0.004 A 
HETATM   15  C15 UNK     1      20.096  -0.521  28.874  1.00  0.00     0.037 A 
HETATM   16  C12 UNK     1      19.572   0.443  29.735  1.00  0.00     0.069 A 
HETATM   17  C9  UNK     1      19.413   0.155  31.091  1.00  0.00     0.051 A 
BRANCH  16  18
HETATM   18  O3  UNK     1      19.216   1.665  29.253  1.00  0.00    -0.356 OA
HETATM   19  C16 UNK     1      17.912   1.786  28.689  1.00  0.00     0.210 C 
ENDBRANCH  16  18
ENDBRANCH   4  12
BRANCH   8  20
HETATM   20  O2  UNK     1      19.409  -2.935  37.851  1.00  0.00    -0.360 OA
HETATM   21  H9  UNK     1      18.728  -3.460  38.298  1.00  0.00     0.217 HD
ENDBRANCH   8  20
TORSDOF 3
ENDMDL
MODEL 2
REMARK VINA RESULT:      -8.2     14.324     17.829
REMARK  3 active torsions:
REMARK  status: ('A' for Active; 'I' for Inactive)
REMARK    1  A    between atoms: C7_11  and  O2_2 
REMARK    2  A    between atoms: C12_16  and  O3_3 
REMARK    3  A    between atoms: C2_6  and  C4_8 
ROOT
HETATM    1  O1  UNK     1      19.091  -0.961  17.135  1.00  0.00    -0.309 OA
HETATM    2  O4  UNK     1      19.326   2.781  15.541  1.00  0.00    -0.287 OA
HETATM    3  C1  UNK     1      19.088   1.445  17.476  1.00  0.00     0.081 A 
HETATM    4  C2  UNK     1      19.237  -0.758  15.771  1.00  0.00     0.090 A 
HETATM    5  C3  UNK     1      19.015   0.138  17.954  1.00  0.00     0.093 A 
HETATM    6  C5  UNK     1      19.252   1.663  16.030  1.00  0.00     0.190 A 
HETATM    7  C6  UNK     1      19.325   0.449  15.191  1.00  0.00     0.094 A 
HETATM    8  C7  UNK     1      19.005   2.525  18.356  1.00  0.00     0.082 A 
HETATM    9  C8  UNK     1      18.860  -0.097  19.320  1.00  0.00     0.038 A 
HETATM   10  C11 UNK     1      18.849   2.288  19.722  1.00  0.00     0.037 A 
HETATM   11  C13 UNK     1      18.777   0.980  20.203  1.00  0.00     0.006 A 
ENDROOT
BRANCH   4  12
HETATM   12  C4  UNK     1      19.313  -2.006  14.985  1.00  0.00     0.001 A 
HETATM   13  C10 UNK     1      19.775  -3.183  15.580  1.00  0.00     0.014 A 
HETATM   14  C14 UNK     1      19.847  -4.361  14.837  1.00  0.00     0.004 A 
HETATM   15  C15 UNK     1      19.457  -4.367  13.498  1.00  0.00     0.037 A 
HETATM   16  C12 UNK     1      18.995  -3.195  12.901  1.00  0.00     0.069 A 
HETATM   17  C9  UNK     1      18.923  -2.015  13.643  1.00  0.00     0.051 A 
BRANCH  16  18
HETATM   18  O3  UNK     1      18.614  -3.200  11.594  1.00  0.00    -0.356 OA
HETATM   19  C16 UNK     1      19.587  -2.795  10.634  1.00  0.00     0.210 C 
ENDBRANCH  16  18
ENDBRANCH   4  12
BRANCH   8  20
HETATM   20  O2  UNK     1      19.069   3.820  17.938  1.00  0.00    -0.360 OA
HETATM   21  H9  UNK     1      18.610   4.401  18.563  1.00  0.00     0.217 HD
ENDBRANCH   8  20
TORSDOF 3
ENDMDL
MODEL 3
REMARK VINA RESULT:      -8.2     25.103     27.037
REMARK  3 active torsions:
REMARK  status: ('A' for Active; 'I' for Inactive)
REMARK    1  A    between atoms: C7_11  and  O2_2 
REMARK    2  A    between atoms: C12_16  and  O3_3 
REMARK    3  A    between atoms: C2_6  and  C4_8 
ROOT
HETATM    1  O1  UNK     1      13.179   7.877   8.506  1.00  0.00    -0.309 OA
HETATM    2  O4  UNK     1      15.688   4.792   9.395  1.00  0.00    -0.287 OA
HETATM    3  C1  UNK     1      15.313   7.126   9.390  1.00  0.00     0.081 A 
HETATM    4  C2  UNK     1      12.832   6.559   8.250  1.00  0.00     0.090 A 
HETATM    5  C3  UNK     1      14.407   8.132   9.062  1.00  0.00     0.093 A 
HETATM    6  C5  UNK     1      14.944   5.726   9.129  1.00  0.00     0.190 A 
HETATM    7  C6  UNK     1      13.613   5.503   8.527  1.00  0.00     0.094 A 
HETATM    8  C7  UNK     1      16.550   7.444   9.955  1.00  0.00     0.082 A 
HETATM    9  C8  UNK     1      14.733   9.468   9.299  1.00  0.00     0.038 A 
HETATM   10  C11 UNK     1      16.874   8.781  10.191  1.00  0.00     0.037 A 
HETATM   11  C13 UNK     1      15.967   9.791   9.864  1.00  0.00     0.006 A 
ENDROOT
BRANCH   4  12
HETATM   12  C4  UNK     1      11.489   6.397   7.656  1.00  0.00     0.001 A 
HETATM   13  C10 UNK     1      11.344   6.284   6.271  1.00  0.00     0.014 A 
HETATM   14  C14 UNK     1      10.077   6.131   5.711  1.00  0.00     0.004 A 
HETATM   15  C15 UNK     1       8.950   6.091   6.531  1.00  0.00     0.037 A 
HETATM   16  C12 UNK     1       9.091   6.203   7.914  1.00  0.00     0.069 A 
HETATM   17  C9  UNK     1      10.359   6.356   8.477  1.00  0.00     0.051 A 
BRANCH  16  18
HETATM   18  O3  UNK     1       7.991   6.164   8.716  1.00  0.00    -0.356 OA
HETATM   19  C16 UNK     1       7.687   4.918   9.340  1.00  0.00     0.210 C 
ENDBRANCH  16  18
ENDBRANCH   4  12
BRANCH   8  20
HETATM   20  O2  UNK     1      17.469   6.498  10.292  1.00  0.00    -0.360 OA
HETATM   21  H9  UNK     1      17.484   5.789   9.631  1.00  0.00     0.217 HD
ENDBRANCH   8  20
TORSDOF 3
ENDMDL
MODEL 4
REMARK VINA RESULT:      -8.2      1.268      2.313
REMARK  3 active torsions:
REMARK  status: ('A' for Active; 'I' for Inactive)
REMARK    1  A    between atoms: C7_11  and  O2_2 
REMARK    2  A    between atoms: C12_16  and  O3_3 
REMARK    3  A    between atoms: C2_6  and  C4_8 
ROOT
HETATM    1  O1  UNK     1      19.723  -1.707  33.744  1.00  0.00    -0.309 OA
HETATM    2  O4  UNK     1      17.099   0.928  35.409  1.00  0.00    -0.287 OA
HETATM    3  C1  UNK     1      18.538  -0.922  35.714  1.00  0.00     0.081 A 
HETATM    4  C2  UNK     1      19.103  -0.722  32.990  1.00  0.00     0.090 A 
HETATM    5  C3  UNK     1      19.425  -1.790  35.081  1.00  0.00     0.093 A 
HETATM    6  C5  UNK     1      17.886   0.130  34.919  1.00  0.00     0.190 A 
HETATM    7  C6  UNK     1      18.236   0.176  33.485  1.00  0.00     0.094 A 
HETATM    8  C7  UNK     1      18.273  -1.054  37.078  1.00  0.00     0.082 A 
HETATM    9  C8  UNK     1      20.057  -2.796  35.812  1.00  0.00     0.038 A 
HETATM   10  C11 UNK     1      18.905  -2.061  37.808  1.00  0.00     0.037 A 
HETATM   11  C13 UNK     1      19.796  -2.931  37.175  1.00  0.00     0.006 A 
ENDROOT
BRANCH   4  12
HETATM   12  C4  UNK     1      19.498  -0.719  31.567  1.00  0.00     0.001 A 
HETATM   13  C10 UNK     1      20.212  -1.795  31.035  1.00  0.00     0.014 A 
HETATM   14  C14 UNK     1      20.585  -1.792  29.691  1.00  0.00     0.004 A 
HETATM   15  C15 UNK     1      20.244  -0.715  28.875  1.00  0.00     0.037 A 
HETATM   16  C12 UNK     1      19.530   0.361  29.402  1.00  0.00     0.069 A 
HETATM   17  C9  UNK     1      19.157   0.359  30.746  1.00  0.00     0.051 A 
BRANCH  16  18
HETATM   18  O3  UNK     1      19.197   1.413  28.604  1.00  0.00    -0.356 OA
HETATM   19  C16 UNK     1      17.909   1.994  28.801  1.00  0.00     0.210 C 
ENDBRANCH  16  18
ENDBRANCH   4  12
BRANCH   8  20
HETATM   20  O2  UNK     1      17.414  -0.232  37.742  1.00  0.00    -0.360 OA
HETATM   21  H9  UNK     1      17.658  -0.170  38.678  1.00  0.00     0.217 HD
ENDBRANCH   8  20
TORSDOF 3
ENDMDL
MODEL 5
REMARK VINA RESULT:      -8.2      1.204      7.018
REMARK  3 active torsions:
REMARK  status: ('A' for Active; 'I' for Inactive)
REMARK    1  A    between atoms: C7_11  and  O2_2 
REMARK    2  A    between atoms: C12_16  and  O3_3 
REMARK    3  A    between atoms: C2_6  and  C4_8 
ROOT
HETATM    1  O1  UNK     1      19.301  -0.953  33.015  1.00  0.00    -0.309 OA
HETATM    2  O4  UNK     1      18.002   2.656  31.641  1.00  0.00    -0.287 OA
HETATM    3  C1  UNK     1      19.085   0.610  31.168  1.00  0.00     0.081 A 
HETATM    4  C2  UNK     1      18.662  -0.045  33.846  1.00  0.00     0.090 A 
HETATM    5  C3  UNK     1      19.503  -0.607  31.703  1.00  0.00     0.093 A 
HETATM    6  C5  UNK     1      18.398   1.571  32.044  1.00  0.00     0.190 A 
HETATM    7  C6  UNK     1      18.208   1.154  33.448  1.00  0.00     0.094 A 
HETATM    8  C7  UNK     1      19.318   0.908  29.824  1.00  0.00     0.082 A 
HETATM    9  C8  UNK     1      20.156  -1.537  30.893  1.00  0.00     0.038 A 
HETATM   10  C11 UNK     1      19.972  -0.023  29.016  1.00  0.00     0.037 A 
HETATM   11  C13 UNK     1      20.390  -1.243  29.550  1.00  0.00     0.006 A 
ENDROOT
BRANCH   4  12
HETATM   12  C4  UNK     1      18.492  -0.519  35.234  1.00  0.00     0.001 A 
HETATM   13  C10 UNK     1      17.610   0.137  36.096  1.00  0.00     0.014 A 
HETATM   14  C14 UNK     1      17.450  -0.310  37.407  1.00  0.00     0.004 A 
HETATM   15  C15 UNK     1      18.169  -1.415  37.861  1.00  0.00     0.037 A 
HETATM   16  C12 UNK     1      19.050  -2.074  37.003  1.00  0.00     0.069 A 
HETATM   17  C9  UNK     1      19.211  -1.626  35.691  1.00  0.00     0.051 A 
BRANCH  16  18
HETATM   18  O3  UNK     1      19.753  -3.153  37.445  1.00  0.00    -0.356 OA
HETATM   19  C16 UNK     1      19.951  -4.220  36.521  1.00  0.00     0.210 C 
ENDBRANCH  16  18
ENDBRANCH   4  12
BRANCH   8  20
HETATM   20  O2  UNK     1      18.930   2.083  29.255  1.00  0.00    -0.360 OA
HETATM   21  H9  UNK     1      19.462   2.818  29.597  1.00  0.00     0.217 HD
ENDBRANCH   8  20
TORSDOF 3
ENDMDL
MODEL 6
REMARK VINA RESULT:      -8.2      3.554      6.077
REMARK  3 active torsions:
REMARK  status: ('A' for Active; 'I' for Inactive)
REMARK    1  A    between atoms: C7_11  and  O2_2 
REMARK    2  A    between atoms: C12_16  and  O3_3 
REMARK    3  A    between atoms: C2_6  and  C4_8 
ROOT
HETATM    1  O1  UNK     1      19.260   2.026  30.444  1.00  0.00    -0.309 OA
HETATM    2  O4  UNK     1      18.521   0.036  33.922  1.00  0.00    -0.287 OA
HETATM    3  C1  UNK     1      19.311  -0.055  31.696  1.00  0.00     0.081 A 
HETATM    4  C2  UNK     1      18.717   2.666  31.548  1.00  0.00     0.090 A 
HETATM    5  C3  UNK     1      19.539   0.686  30.538  1.00  0.00     0.093 A 
HETATM    6  C5  UNK     1      18.745   0.623  32.873  1.00  0.00     0.190 A 
HETATM    7  C6  UNK     1      18.458   2.064  32.720  1.00  0.00     0.094 A 
HETATM    8  C7  UNK     1      19.616  -1.417  31.735  1.00  0.00     0.082 A 
HETATM    9  C8  UNK     1      20.077   0.067  29.410  1.00  0.00     0.038 A 
HETATM   10  C11 UNK     1      20.152  -2.034  30.605  1.00  0.00     0.037 A 
HETATM   11  C13 UNK     1      20.383  -1.293  29.444  1.00  0.00     0.006 A 
ENDROOT
BRANCH   4  12
HETATM   12  C4  UNK     1      18.459   4.105  31.340  1.00  0.00     0.001 A 
HETATM   13  C10 UNK     1      19.069   4.781  30.280  1.00  0.00     0.014 A 
HETATM   14  C14 UNK     1      18.826   6.140  30.084  1.00  0.00     0.004 A 
HETATM   15  C15 UNK     1      17.972   6.828  30.945  1.00  0.00     0.037 A 
HETATM   16  C12 UNK     1      17.361   6.157  32.004  1.00  0.00     0.069 A 
HETATM   17  C9  UNK     1      17.604   4.797  32.201  1.00  0.00     0.051 A 
BRANCH  16  18
HETATM   18  O3  UNK     1      16.527   6.828  32.845  1.00  0.00    -0.356 OA
HETATM   19  C16 UNK     1      15.301   7.307  32.297  1.00  0.00     0.210 C 
ENDBRANCH  16  18
ENDBRANCH   4  12
BRANCH   8  20
HETATM   20  O2  UNK     1      19.411  -2.184  32.842  1.00  0.00    -0.360 OA
HETATM   21  H9  UNK     1      19.034  -3.042  32.595  1.00  0.00     0.217 HD
ENDBRANCH   8  20
TORSDOF 3
ENDMDL
MODEL 7
REMARK VINA RESULT:      -8.0     14.138     17.196
REMARK  3 active torsions:
REMARK  status: ('A' for Active; 'I' for Inactive)
REMARK    1  A    between atoms: C7_11  and  O2_2 
REMARK    2  A    between atoms: C12_16  and  O3_3 
REMARK    3  A    between atoms: C2_6  and  C4_8 
ROOT
HETATM    1  O1  UNK     1      19.047  -1.070  17.682  1.00  0.00    -0.309 OA
HETATM    2  O4  UNK     1      19.178   2.359  15.485  1.00  0.00    -0.287 OA
HETATM    3  C1  UNK     1      19.042   1.359  17.622  1.00  0.00     0.081 A 
HETATM    4  C2  UNK     1      19.125  -1.094  16.298  1.00  0.00     0.090 A 
HETATM    5  C3  UNK     1      19.002   0.149  18.312  1.00  0.00     0.093 A 
HETATM    6  C5  UNK     1      19.135   1.336  16.154  1.00  0.00     0.190 A 
HETATM    7  C6  UNK     1      19.177   0.001  15.524  1.00  0.00     0.094 A 
HETATM    8  C7  UNK     1      18.993   2.569  18.316  1.00  0.00     0.082 A 
HETATM    9  C8  UNK     1      18.914   0.142  19.704  1.00  0.00     0.038 A 
HETATM   10  C11 UNK     1      18.905   2.561  19.708  1.00  0.00     0.037 A 
HETATM   11  C13 UNK     1      18.866   1.350  20.401  1.00  0.00     0.006 A 
ENDROOT
BRANCH   4  12
HETATM   12  C4  UNK     1      19.173  -2.455  15.725  1.00  0.00     0.001 A 
HETATM   13  C10 UNK     1      18.023  -3.023  15.171  1.00  0.00     0.014 A 
HETATM   14  C14 UNK     1      18.068  -4.307  14.630  1.00  0.00     0.004 A 
HETATM   15  C15 UNK     1      19.261  -5.027  14.639  1.00  0.00     0.037 A 
HETATM   16  C12 UNK     1      20.412  -4.463  15.189  1.00  0.00     0.069 A 
HETATM   17  C9  UNK     1      20.368  -3.178  15.732  1.00  0.00     0.051 A 
BRANCH  16  18
HETATM   18  O3  UNK     1      21.578  -5.166  15.199  1.00  0.00    -0.356 OA
HETATM   19  C16 UNK     1      22.448  -4.963  16.310  1.00  0.00     0.210 C 
ENDBRANCH  16  18
ENDBRANCH   4  12
BRANCH   8  20
HETATM   20  O2  UNK     1      19.029   3.778  17.688  1.00  0.00    -0.360 OA
HETATM   21  H9  UNK     1      19.944   4.043  17.514  1.00  0.00     0.217 HD
ENDBRANCH   8  20
TORSDOF 3
ENDMDL
MODEL 8
REMARK VINA RESULT:      -8.0     14.701     17.304
REMARK  3 active torsions:
REMARK  status: ('A' for Active; 'I' for Inactive)
REMARK    1  A    between atoms: C7_11  and  O2_2 
REMARK    2  A    between atoms: C12_16  and  O3_3 
REMARK    3  A    between atoms: C2_6  and  C4_8 
ROOT
HETATM    1  O1  UNK     1      19.176   0.362  15.890  1.00  0.00    -0.309 OA
HETATM    2  O4  UNK     1      18.633  -0.537  19.827  1.00  0.00    -0.287 OA
HETATM    3  C1  UNK     1      19.074   1.117  18.197  1.00  0.00     0.081 A 
HETATM    4  C2  UNK     1      18.927  -0.935  16.313  1.00  0.00     0.090 A 
HETATM    5  C3  UNK     1      19.249   1.355  16.836  1.00  0.00     0.093 A 
HETATM    6  C5  UNK     1      18.800  -0.257  18.648  1.00  0.00     0.190 A 
HETATM    7  C6  UNK     1      18.735  -1.289  17.593  1.00  0.00     0.094 A 
HETATM    8  C7  UNK     1      19.159   2.166  19.114  1.00  0.00     0.082 A 
HETATM    9  C8  UNK     1      19.509   2.648  16.381  1.00  0.00     0.038 A 
HETATM   10  C11 UNK     1      19.420   3.458  18.659  1.00  0.00     0.037 A 
HETATM   11  C13 UNK     1      19.594   3.699  17.294  1.00  0.00     0.006 A 
ENDROOT
BRANCH   4  12
HETATM   12  C4  UNK     1      18.865  -1.921  15.216  1.00  0.00     0.001 A 
HETATM   13  C10 UNK     1      19.338  -1.587  13.945  1.00  0.00     0.014 A 
HETATM   14  C14 UNK     1      19.278  -2.519  12.909  1.00  0.00     0.004 A 
HETATM   15  C15 UNK     1      18.747  -3.787  13.140  1.00  0.00     0.037 A 
HETATM   16  C12 UNK     1      18.275  -4.124  14.408  1.00  0.00     0.069 A 
HETATM   17  C9  UNK     1      18.333  -3.193  15.445  1.00  0.00     0.051 A 
BRANCH  16  18
HETATM   18  O3  UNK     1      17.756  -5.363  14.634  1.00  0.00    -0.356 OA
HETATM   19  C16 UNK     1      18.324  -6.119  15.701  1.00  0.00     0.210 C 
ENDBRANCH  16  18
ENDBRANCH   4  12
BRANCH   8  20
HETATM   20  O2  UNK     1      18.996   1.985  20.455  1.00  0.00    -0.360 OA
HETATM   21  H9  UNK     1      19.857   1.950  20.899  1.00  0.00     0.217 HD
ENDBRANCH   8  20
TORSDOF 3
ENDMDL
MODEL 9
REMARK VINA RESULT:      -8.0     14.701     17.567
REMARK  3 active torsions:
REMARK  status: ('A' for Active; 'I' for Inactive)
REMARK    1  A    between atoms: C7_11  and  O2_2 
REMARK    2  A    between atoms: C12_16  and  O3_3 
REMARK    3  A    between atoms: C2_6  and  C4_8 
ROOT
HETATM    1  O1  UNK     1      19.211   0.366  15.877  1.00  0.00    -0.309 OA
HETATM    2  O4  UNK     1      18.623  -0.571  19.798  1.00  0.00    -0.287 OA
HETATM    3  C1  UNK     1      19.074   1.100  18.189  1.00  0.00     0.081 A 
HETATM    4  C2  UNK     1      18.965  -0.936  16.285  1.00  0.00     0.090 A 
HETATM    5  C3  UNK     1      19.266   1.351  16.831  1.00  0.00     0.093 A 
HETATM    6  C5  UNK     1      18.803  -0.279  18.624  1.00  0.00     0.190 A 
HETATM    7  C6  UNK     1      18.758  -1.303  17.559  1.00  0.00     0.094 A 
HETATM    8  C7  UNK     1      19.140   2.141  19.116  1.00  0.00     0.082 A 
HETATM    9  C8  UNK     1      19.523   2.649  16.392  1.00  0.00     0.038 A 
HETATM   10  C11 UNK     1      19.399   3.439  18.675  1.00  0.00     0.037 A 
HETATM   11  C13 UNK     1      19.589   3.693  17.315  1.00  0.00     0.006 A 
ENDROOT
BRANCH   4  12
HETATM   12  C4  UNK     1      18.923  -1.913  15.178  1.00  0.00     0.001 A 
HETATM   13  C10 UNK     1      18.835  -3.280  15.453  1.00  0.00     0.014 A 
HETATM   14  C14 UNK     1      18.796  -4.203  14.409  1.00  0.00     0.004 A 
HETATM   15  C15 UNK     1      18.843  -3.763  13.086  1.00  0.00     0.037 A 
HETATM   16  C12 UNK     1      18.930  -2.400  12.808  1.00  0.00     0.069 A 
HETATM   17  C9  UNK     1      18.970  -1.475  13.853  1.00  0.00     0.051 A 
BRANCH  16  18
HETATM   18  O3  UNK     1      18.977  -1.970  11.517  1.00  0.00    -0.356 OA
HETATM   19  C16 UNK     1      19.374  -2.920  10.531  1.00  0.00     0.210 C 
ENDBRANCH  16  18
ENDBRANCH   4  12
BRANCH   8  20
HETATM   20  O2  UNK     1      18.962   1.947  20.452  1.00  0.00    -0.360 OA
HETATM   21  H9  UNK     1      18.828   1.007  20.644  1.00  0.00     0.217 HD
ENDBRANCH   8  20
TORSDOF 3
ENDMDL
MODEL 10
REMARK VINA RESULT:      -8.0      4.137      7.288
REMARK  3 active torsions:
REMARK  status: ('A' for Active; 'I' for Inactive)
REMARK    1  A    between atoms: C7_11  and  O2_2 
REMARK    2  A    between atoms: C12_16  and  O3_3 
REMARK    3  A    between atoms: C2_6  and  C4_8 
ROOT
HETATM    1  O1  UNK     1      19.219   1.910  31.511  1.00  0.00    -0.309 OA
HETATM    2  O4  UNK     1      17.845   1.881  27.675  1.00  0.00    -0.287 OA
HETATM    3  C1  UNK     1      19.044   0.762  29.377  1.00  0.00     0.081 A 
HETATM    4  C2  UNK     1      18.492   2.969  30.990  1.00  0.00     0.090 A 
HETATM    5  C3  UNK     1      19.483   0.837  30.697  1.00  0.00     0.093 A 
HETATM    6  C5  UNK     1      18.264   1.880  28.824  1.00  0.00     0.190 A 
HETATM    7  C6  UNK     1      18.009   3.013  29.738  1.00  0.00     0.094 A 
HETATM    8  C7  UNK     1      19.343  -0.355  28.595  1.00  0.00     0.082 A 
HETATM    9  C8  UNK     1      20.224  -0.210  31.246  1.00  0.00     0.038 A 
HETATM   10  C11 UNK     1      20.085  -1.401  29.145  1.00  0.00     0.037 A 
HETATM   11  C13 UNK     1      20.524  -1.329  30.469  1.00  0.00     0.006 A 
ENDROOT
BRANCH   4  12
HETATM   12  C4  UNK     1      18.261   4.068  31.950  1.00  0.00     0.001 A 
HETATM   13  C10 UNK     1      18.319   3.821  33.324  1.00  0.00     0.014 A 
HETATM   14  C14 UNK     1      18.101   4.858  34.231  1.00  0.00     0.004 A 
HETATM   15  C15 UNK     1      17.825   6.144  33.768  1.00  0.00     0.037 A 
HETATM   16  C12 UNK     1      17.767   6.394  32.397  1.00  0.00     0.069 A 
HETATM   17  C9  UNK     1      17.985   5.357  31.489  1.00  0.00     0.051 A 
BRANCH  16  18
HETATM   18  O3  UNK     1      17.498   7.649  31.944  1.00  0.00    -0.356 OA
HETATM   19  C16 UNK     1      16.134   7.961  31.669  1.00  0.00     0.210 C 
ENDBRANCH  16  18
ENDBRANCH   4  12
BRANCH   8  20
HETATM   20  O2  UNK     1      18.938  -0.475  27.300  1.00  0.00    -0.360 OA
HETATM   21  H9  UNK     1      18.050  -0.863  27.257  1.00  0.00     0.217 HD
ENDBRANCH   8  20
TORSDOF 3
ENDMDL
