MODEL 1
REMARK VINA RESULT:      -7.9      0.000      0.000
REMARK  3 active torsions:
REMARK  status: ('A' for Active; 'I' for Inactive)
REMARK    1  A    between atoms: C1_7  and  O1_2 
REMARK    2  A    between atoms: C7_13  and  O1_2 
REMARK    3  A    between atoms: C7_13  and  C8_14 
ROOT
HETATM    1 Br1  UNK     1      18.689  -2.064  36.600  1.00  0.00    -0.051 Br
HETATM    2  O2  UNK     1      20.632  -1.295  30.905  1.00  0.00    -0.274 OA
HETATM    3  O4  UNK     1      20.574  -0.155  28.925  1.00  0.00    -0.259 OA
HETATM    4  C8  UNK     1      19.136   0.621  30.641  1.00  0.00     0.115 A 
HETATM    5  C9  UNK     1      18.688   0.478  31.893  1.00  0.00     0.038 A 
HETATM    6  C10 UNK     1      19.201  -0.589  32.739  1.00  0.00     0.000 A 
HETATM    7  C11 UNK     1      20.160  -0.285  30.072  1.00  0.00     0.304 A 
HETATM    8  C12 UNK     1      20.164  -1.451  32.224  1.00  0.00     0.089 A 
HETATM    9  C13 UNK     1      18.761  -0.777  34.051  1.00  0.00     0.033 A 
HETATM   10  C14 UNK     1      20.697  -2.492  32.981  1.00  0.00     0.039 A 
HETATM   11  C15 UNK     1      19.288  -1.816  34.823  1.00  0.00     0.011 A 
HETATM   12  C16 UNK     1      20.253  -2.672  34.289  1.00  0.00     0.022 A 
ENDROOT
BRANCH   4  13
HETATM   13  C7  UNK     1      18.558   1.725  29.868  1.00  0.00     0.299 C 
HETATM   14  O3  UNK     1      17.564   1.612  29.170  1.00  0.00    -0.259 OA
BRANCH  13  15
HETATM   15  O1  UNK     1      19.305   2.845  30.068  1.00  0.00    -0.312 OA
BRANCH  15  16
HETATM   16  C1  UNK     1      18.580   4.012  30.436  1.00  0.00     0.135 C 
HETATM   17  C2  UNK     1      19.430   5.241  30.133  1.00  0.00     0.062 C 
HETATM   18  C4  UNK     1      18.769   6.517  30.655  1.00  0.00     0.274 C 
HETATM   19  N1  UNK     1      18.491   6.416  32.096  1.00  0.00     0.084 N 
HETATM   20  C5  UNK     1      17.608   5.278  32.389  1.00  0.00     0.274 C 
HETATM   21  C6  UNK     1      17.903   7.660  32.590  1.00  0.00     0.309 C 
HETATM   22  C3  UNK     1      18.232   3.963  31.922  1.00  0.00     0.062 C 
ENDBRANCH  15  16
ENDBRANCH  13  15
ENDBRANCH   4  13
TORSDOF 3
ENDMDL
MODEL 2
REMARK VINA RESULT:      -7.9      2.660      4.024
REMARK  3 active torsions:
REMARK  status: ('A' for Active; 'I' for Inactive)
REMARK    1  A    between atoms: C1_7  and  O1_2 
REMARK    2  A    between atoms: C7_13  and  O1_2 
REMARK    3  A    between atoms: C7_13  and  C8_14 
ROOT
HETATM    1 Br1  UNK     1      17.900  -0.092  37.940  1.00  0.00    -0.051 Br
HETATM    2  O2  UNK     1      18.447   1.362  32.076  1.00  0.00    -0.274 OA
HETATM    3  O4  UNK     1      18.533   2.936  30.422  1.00  0.00    -0.259 OA
HETATM    4  C8  UNK     1      18.246   3.734  32.634  1.00  0.00     0.115 A 
HETATM    5  C9  UNK     1      18.123   3.446  33.935  1.00  0.00     0.038 A 
HETATM    6  C10 UNK     1      18.156   2.063  34.386  1.00  0.00     0.000 A 
HETATM    7  C11 UNK     1      18.419   2.675  31.614  1.00  0.00     0.304 A 
HETATM    8  C12 UNK     1      18.318   1.052  33.444  1.00  0.00     0.089 A 
HETATM    9  C13 UNK     1      18.030   1.716  35.733  1.00  0.00     0.033 A 
HETATM   10  C14 UNK     1      18.359  -0.292  33.810  1.00  0.00     0.039 A 
HETATM   11  C15 UNK     1      18.069   0.372  36.115  1.00  0.00     0.011 A 
HETATM   12  C16 UNK     1      18.233  -0.629  35.156  1.00  0.00     0.022 A 
ENDROOT
BRANCH   4  13
HETATM   13  C7  UNK     1      18.201   5.156  32.279  1.00  0.00     0.299 C 
HETATM   14  O3  UNK     1      19.191   5.818  32.014  1.00  0.00    -0.259 OA
BRANCH  13  15
HETATM   15  O1  UNK     1      16.907   5.577  32.298  1.00  0.00    -0.312 OA
BRANCH  15  16
HETATM   16  C1  UNK     1      16.699   6.910  32.748  1.00  0.00     0.135 C 
HETATM   17  C2  UNK     1      16.641   6.916  34.272  1.00  0.00     0.062 C 
HETATM   18  C4  UNK     1      16.258   8.296  34.809  1.00  0.00     0.274 C 
HETATM   19  N1  UNK     1      14.983   8.750  34.235  1.00  0.00     0.084 N 
HETATM   20  C5  UNK     1      15.053   8.821  32.769  1.00  0.00     0.274 C 
HETATM   21  C6  UNK     1      14.606  10.049  34.793  1.00  0.00     0.309 C 
HETATM   22  C3  UNK     1      15.397   7.459  32.168  1.00  0.00     0.062 C 
ENDBRANCH  15  16
ENDBRANCH  13  15
ENDBRANCH   4  13
TORSDOF 3
ENDMDL
MODEL 3
REMARK VINA RESULT:      -7.7     12.734     14.303
REMARK  3 active torsions:
REMARK  status: ('A' for Active; 'I' for Inactive)
REMARK    1  A    between atoms: C1_7  and  O1_2 
REMARK    2  A    between atoms: C7_13  and  O1_2 
REMARK    3  A    between atoms: C7_13  and  C8_14 
ROOT
HETATM    1 Br1  UNK     1      33.566  -6.773  37.568  1.00  0.00    -0.051 Br
HETATM    2  O2  UNK     1      27.963  -4.695  38.609  1.00  0.00    -0.274 OA
HETATM    3  O4  UNK     1      25.742  -5.080  38.984  1.00  0.00    -0.259 OA
HETATM    4  C8  UNK     1      27.115  -6.987  38.683  1.00  0.00     0.115 A 
HETATM    5  C9  UNK     1      28.339  -7.477  38.455  1.00  0.00     0.038 A 
HETATM    6  C10 UNK     1      29.469  -6.576  38.287  1.00  0.00     0.000 A 
HETATM    7  C11 UNK     1      26.862  -5.531  38.774  1.00  0.00     0.304 A 
HETATM    8  C12 UNK     1      29.254  -5.204  38.368  1.00  0.00     0.089 A 
HETATM    9  C13 UNK     1      30.763  -7.042  38.046  1.00  0.00     0.033 A 
HETATM   10  C14 UNK     1      30.293  -4.289  38.217  1.00  0.00     0.039 A 
HETATM   11  C15 UNK     1      31.816  -6.136  37.892  1.00  0.00     0.011 A 
HETATM   12  C16 UNK     1      31.581  -4.762  37.978  1.00  0.00     0.022 A 
ENDROOT
BRANCH   4  13
HETATM   13  C7  UNK     1      26.041  -7.974  38.839  1.00  0.00     0.299 C 
HETATM   14  O3  UNK     1      26.135  -8.969  39.539  1.00  0.00    -0.259 OA
BRANCH  13  15
HETATM   15  O1  UNK     1      24.972  -7.587  38.092  1.00  0.00    -0.312 OA
BRANCH  15  16
HETATM   16  C1  UNK     1      23.710  -8.087  38.516  1.00  0.00     0.135 C 
HETATM   17  C2  UNK     1      22.970  -8.655  37.310  1.00  0.00     0.062 C 
HETATM   18  C4  UNK     1      21.541  -9.061  37.674  1.00  0.00     0.274 C 
HETATM   19  N1  UNK     1      20.803  -7.930  38.255  1.00  0.00     0.084 N 
HETATM   20  C5  UNK     1      21.469  -7.423  39.464  1.00  0.00     0.274 C 
HETATM   21  C6  UNK     1      19.425  -8.319  38.555  1.00  0.00     0.309 C 
HETATM   22  C3  UNK     1      22.894  -6.966  39.156  1.00  0.00     0.062 C 
ENDBRANCH  15  16
ENDBRANCH  13  15
ENDBRANCH   4  13
TORSDOF 3
ENDMDL
MODEL 4
REMARK VINA RESULT:      -7.6      5.841     10.078
REMARK  3 active torsions:
REMARK  status: ('A' for Active; 'I' for Inactive)
REMARK    1  A    between atoms: C1_7  and  O1_2 
REMARK    2  A    between atoms: C7_13  and  O1_2 
REMARK    3  A    between atoms: C7_13  and  C8_14 
ROOT
HETATM    1 Br1  UNK     1      20.528  -1.075  29.484  1.00  0.00    -0.051 Br
HETATM    2  O2  UNK     1      18.620  -0.992  35.242  1.00  0.00    -0.274 OA
HETATM    3  O4  UNK     1      18.562  -1.926  37.327  1.00  0.00    -0.259 OA
HETATM    4  C8  UNK     1      19.835  -3.067  35.686  1.00  0.00     0.115 A 
HETATM    5  C9  UNK     1      20.272  -3.113  34.423  1.00  0.00     0.038 A 
HETATM    6  C10 UNK     1      19.896  -2.074  33.478  1.00  0.00     0.000 A 
HETATM    7  C11 UNK     1      18.963  -1.972  36.169  1.00  0.00     0.304 A 
HETATM    8  C12 UNK     1      19.078  -1.035  33.911  1.00  0.00     0.089 A 
HETATM    9  C13 UNK     1      20.328  -2.082  32.150  1.00  0.00     0.033 A 
HETATM   10  C14 UNK     1      18.682  -0.008  33.057  1.00  0.00     0.039 A 
HETATM   11  C15 UNK     1      19.939  -1.059  31.281  1.00  0.00     0.011 A 
HETATM   12  C16 UNK     1      19.117  -0.024  31.733  1.00  0.00     0.022 A 
ENDROOT
BRANCH   4  13
HETATM   13  C7  UNK     1      20.269  -4.160  36.563  1.00  0.00     0.299 C 
HETATM   14  O3  UNK     1      21.314  -4.147  37.191  1.00  0.00    -0.259 OA
BRANCH  13  15
HETATM   15  O1  UNK     1      19.328  -5.143  36.544  1.00  0.00    -0.312 OA
BRANCH  15  16
HETATM   16  C1  UNK     1      19.768  -6.426  36.973  1.00  0.00     0.135 C 
HETATM   17  C2  UNK     1      20.112  -7.267  35.749  1.00  0.00     0.062 C 
HETATM   18  C4  UNK     1      20.437  -8.709  36.139  1.00  0.00     0.274 C 
HETATM   19  N1  UNK     1      19.330  -9.314  36.895  1.00  0.00     0.084 N 
HETATM   20  C5  UNK     1      19.041  -8.552  38.118  1.00  0.00     0.274 C 
HETATM   21  C6  UNK     1      19.635 -10.707  37.221  1.00  0.00     0.309 C 
HETATM   22  C3  UNK     1      18.672  -7.105  37.791  1.00  0.00     0.062 C 
ENDBRANCH  15  16
ENDBRANCH  13  15
ENDBRANCH   4  13
TORSDOF 3
ENDMDL
MODEL 5
REMARK VINA RESULT:      -7.5     15.512     17.287
REMARK  3 active torsions:
REMARK  status: ('A' for Active; 'I' for Inactive)
REMARK    1  A    between atoms: C1_7  and  O1_2 
REMARK    2  A    between atoms: C7_13  and  O1_2 
REMARK    3  A    between atoms: C7_13  and  C8_14 
ROOT
HETATM    1 Br1  UNK     1      18.894  -7.276  11.134  1.00  0.00    -0.051 Br
HETATM    2  O2  UNK     1      19.649  -1.485  12.777  1.00  0.00    -0.274 OA
HETATM    3  O4  UNK     1      19.461   0.176  14.335  1.00  0.00    -0.259 OA
HETATM    4  C8  UNK     1      18.712  -1.977  14.981  1.00  0.00     0.115 A 
HETATM    5  C9  UNK     1      18.533  -3.260  14.649  1.00  0.00     0.038 A 
HETATM    6  C10 UNK     1      18.912  -3.736  13.327  1.00  0.00     0.000 A 
HETATM    7  C11 UNK     1      19.295  -1.001  14.033  1.00  0.00     0.304 A 
HETATM    8  C12 UNK     1      19.463  -2.836  12.421  1.00  0.00     0.089 A 
HETATM    9  C13 UNK     1      18.743  -5.066  12.937  1.00  0.00     0.033 A 
HETATM   10  C14 UNK     1      19.848  -3.226  11.140  1.00  0.00     0.039 A 
HETATM   11  C15 UNK     1      19.125  -5.473  11.656  1.00  0.00     0.011 A 
HETATM   12  C16 UNK     1      19.676  -4.556  10.759  1.00  0.00     0.022 A 
ENDROOT
BRANCH   4  13
HETATM   13  C7  UNK     1      18.298  -1.595  16.335  1.00  0.00     0.299 C 
HETATM   14  O3  UNK     1      17.270  -1.985  16.863  1.00  0.00    -0.259 OA
BRANCH  13  15
HETATM   15  O1  UNK     1      19.235  -0.762  16.865  1.00  0.00    -0.312 OA
BRANCH  15  16
HETATM   16  C1  UNK     1      18.859  -0.094  18.063  1.00  0.00     0.135 C 
HETATM   17  C2  UNK     1      19.153   1.395  17.915  1.00  0.00     0.062 C 
HETATM   18  C4  UNK     1      18.920   2.141  19.229  1.00  0.00     0.274 C 
HETATM   19  N1  UNK     1      19.718   1.557  20.317  1.00  0.00     0.084 N 
HETATM   20  C5  UNK     1      19.386   0.139  20.519  1.00  0.00     0.274 C 
HETATM   21  C6  UNK     1      19.521   2.309  21.556  1.00  0.00     0.309 C 
HETATM   22  C3  UNK     1      19.633  -0.670  19.246  1.00  0.00     0.062 C 
ENDBRANCH  15  16
ENDBRANCH  13  15
ENDBRANCH   4  13
TORSDOF 3
ENDMDL
MODEL 6
REMARK VINA RESULT:      -7.5     23.237     24.990
REMARK  3 active torsions:
REMARK  status: ('A' for Active; 'I' for Inactive)
REMARK    1  A    between atoms: C1_7  and  O1_2 
REMARK    2  A    between atoms: C7_13  and  O1_2 
REMARK    3  A    between atoms: C7_13  and  C8_14 
ROOT
HETATM    1 Br1  UNK     1      17.133  10.211  10.099  1.00  0.00    -0.051 Br
HETATM    2  O2  UNK     1      14.084   5.083   9.001  1.00  0.00    -0.274 OA
HETATM    3  O4  UNK     1      12.237   4.007   8.194  1.00  0.00    -0.259 OA
HETATM    4  C8  UNK     1      12.245   6.371   8.033  1.00  0.00     0.115 A 
HETATM    5  C9  UNK     1      12.892   7.519   8.261  1.00  0.00     0.038 A 
HETATM    6  C10 UNK     1      14.204   7.509   8.889  1.00  0.00     0.000 A 
HETATM    7  C11 UNK     1      12.827   5.061   8.403  1.00  0.00     0.304 A 
HETATM    8  C12 UNK     1      14.771   6.289   9.245  1.00  0.00     0.089 A 
HETATM    9  C13 UNK     1      14.916   8.683   9.148  1.00  0.00     0.033 A 
HETATM   10  C14 UNK     1      16.024   6.209   9.848  1.00  0.00     0.039 A 
HETATM   11  C15 UNK     1      16.174   8.619   9.752  1.00  0.00     0.011 A 
HETATM   12  C16 UNK     1      16.727   7.385  10.102  1.00  0.00     0.022 A 
ENDROOT
BRANCH   4  13
HETATM   13  C7  UNK     1      10.929   6.485   7.396  1.00  0.00     0.299 C 
HETATM   14  O3  UNK     1      10.628   5.911   6.362  1.00  0.00    -0.259 OA
BRANCH  13  15
HETATM   15  O1  UNK     1      10.146   7.311   8.141  1.00  0.00    -0.312 OA
BRANCH  15  16
HETATM   16  C1  UNK     1       8.843   6.824   8.438  1.00  0.00     0.135 C 
HETATM   17  C2  UNK     1       8.080   7.889   9.219  1.00  0.00     0.062 C 
HETATM   18  C4  UNK     1       6.731   7.362   9.707  1.00  0.00     0.274 C 
HETATM   19  N1  UNK     1       6.900   6.143  10.512  1.00  0.00     0.084 N 
HETATM   20  C5  UNK     1       7.566   5.083   9.741  1.00  0.00     0.274 C 
HETATM   21  C6  UNK     1       5.606   5.677  11.010  1.00  0.00     0.309 C 
HETATM   22  C3  UNK     1       8.941   5.538   9.255  1.00  0.00     0.062 C 
ENDBRANCH  15  16
ENDBRANCH  13  15
ENDBRANCH   4  13
TORSDOF 3
ENDMDL
MODEL 7
REMARK VINA RESULT:      -7.4     15.622     18.074
REMARK  3 active torsions:
REMARK  status: ('A' for Active; 'I' for Inactive)
REMARK    1  A    between atoms: C1_7  and  O1_2 
REMARK    2  A    between atoms: C7_13  and  O1_2 
REMARK    3  A    between atoms: C7_13  and  C8_14 
ROOT
HETATM    1 Br1  UNK     1      19.075   2.039  20.995  1.00  0.00    -0.051 Br
HETATM    2  O2  UNK     1      19.257   0.797  15.060  1.00  0.00    -0.274 OA
HETATM    3  O4  UNK     1      19.112  -0.702  13.341  1.00  0.00    -0.259 OA
HETATM    4  C8  UNK     1      18.817  -1.562  15.529  1.00  0.00     0.115 A 
HETATM    5  C9  UNK     1      18.770  -1.320  16.844  1.00  0.00     0.038 A 
HETATM    6  C10 UNK     1      18.971   0.029  17.349  1.00  0.00     0.000 A 
HETATM    7  C11 UNK     1      19.070  -0.483  14.547  1.00  0.00     0.304 A 
HETATM    8  C12 UNK     1      19.209   1.058  16.443  1.00  0.00     0.089 A 
HETATM    9  C13 UNK     1      18.932   0.327  18.713  1.00  0.00     0.033 A 
HETATM   10  C14 UNK     1      19.409   2.372  16.861  1.00  0.00     0.039 A 
HETATM   11  C15 UNK     1      19.130   1.641  19.147  1.00  0.00     0.011 A 
HETATM   12  C16 UNK     1      19.368   2.661  18.224  1.00  0.00     0.022 A 
ENDROOT
BRANCH   4  13
HETATM   13  C7  UNK     1      18.602  -2.953  15.118  1.00  0.00     0.299 C 
HETATM   14  O3  UNK     1      17.500  -3.469  15.029  1.00  0.00    -0.259 OA
BRANCH  13  15
HETATM   15  O1  UNK     1      19.808  -3.532  14.865  1.00  0.00    -0.312 OA
BRANCH  15  16
HETATM   16  C1  UNK     1      19.767  -4.743  14.121  1.00  0.00     0.135 C 
HETATM   17  C2  UNK     1      20.752  -5.734  14.731  1.00  0.00     0.062 C 
HETATM   18  C4  UNK     1      20.871  -6.997  13.877  1.00  0.00     0.274 C 
HETATM   19  N1  UNK     1      21.250  -6.666  12.495  1.00  0.00     0.084 N 
HETATM   20  C5  UNK     1      20.265  -5.771  11.872  1.00  0.00     0.274 C 
HETATM   21  C6  UNK     1      21.406  -7.886  11.703  1.00  0.00     0.309 C 
HETATM   22  C3  UNK     1      20.127  -4.470  12.662  1.00  0.00     0.062 C 
ENDBRANCH  15  16
ENDBRANCH  13  15
ENDBRANCH   4  13
TORSDOF 3
ENDMDL
MODEL 8
REMARK VINA RESULT:      -7.4      5.737     10.035
REMARK  3 active torsions:
REMARK  status: ('A' for Active; 'I' for Inactive)
REMARK    1  A    between atoms: C1_7  and  O1_2 
REMARK    2  A    between atoms: C7_13  and  O1_2 
REMARK    3  A    between atoms: C7_13  and  C8_14 
ROOT
HETATM    1 Br1  UNK     1      16.077   2.053  37.558  1.00  0.00    -0.051 Br
HETATM    2  O2  UNK     1      19.530  -1.525  34.084  1.00  0.00    -0.274 OA
HETATM    3  O4  UNK     1      20.786  -3.415  33.814  1.00  0.00    -0.259 OA
HETATM    4  C8  UNK     1      19.810  -3.083  35.947  1.00  0.00     0.115 A 
HETATM    5  C9  UNK     1      19.053  -2.315  36.739  1.00  0.00     0.038 A 
HETATM    6  C10 UNK     1      18.479  -1.079  36.230  1.00  0.00     0.000 A 
HETATM    7  C11 UNK     1      20.093  -2.713  34.542  1.00  0.00     0.304 A 
HETATM    8  C12 UNK     1      18.731  -0.712  34.912  1.00  0.00     0.089 A 
HETATM    9  C13 UNK     1      17.684  -0.246  37.020  1.00  0.00     0.033 A 
HETATM   10  C14 UNK     1      18.212   0.458  34.363  1.00  0.00     0.039 A 
HETATM   11  C15 UNK     1      17.155   0.931  36.484  1.00  0.00     0.011 A 
HETATM   12  C16 UNK     1      17.419   1.282  35.159  1.00  0.00     0.022 A 
ENDROOT
BRANCH   4  13
HETATM   13  C7  UNK     1      20.343  -4.309  36.551  1.00  0.00     0.299 C 
HETATM   14  O3  UNK     1      21.439  -4.379  37.083  1.00  0.00    -0.259 OA
BRANCH  13  15
HETATM   15  O1  UNK     1      19.426  -5.305  36.412  1.00  0.00    -0.312 OA
BRANCH  15  16
HETATM   16  C1  UNK     1      19.818  -6.578  36.912  1.00  0.00     0.135 C 
HETATM   17  C2  UNK     1      20.178  -7.483  35.739  1.00  0.00     0.062 C 
HETATM   18  C4  UNK     1      20.452  -8.913  36.205  1.00  0.00     0.274 C 
HETATM   19  N1  UNK     1      19.306  -9.455  36.951  1.00  0.00     0.084 N 
HETATM   20  C5  UNK     1      18.999  -8.630  38.128  1.00  0.00     0.274 C 
HETATM   21  C6  UNK     1      19.564 -10.839  37.348  1.00  0.00     0.309 C 
HETATM   22  C3  UNK     1      18.679  -7.191  37.724  1.00  0.00     0.062 C 
ENDBRANCH  15  16
ENDBRANCH  13  15
ENDBRANCH   4  13
TORSDOF 3
ENDMDL
MODEL 9
REMARK VINA RESULT:      -7.4     23.042     24.573
REMARK  3 active torsions:
REMARK  status: ('A' for Active; 'I' for Inactive)
REMARK    1  A    between atoms: C1_7  and  O1_2 
REMARK    2  A    between atoms: C7_13  and  O1_2 
REMARK    3  A    between atoms: C7_13  and  C8_14 
ROOT
HETATM    1 Br1  UNK     1       6.767   4.564  10.164  1.00  0.00    -0.051 Br
HETATM    2  O2  UNK     1      11.478   6.635   6.952  1.00  0.00    -0.274 OA
HETATM    3  O4  UNK     1      13.726   6.970   6.717  1.00  0.00    -0.259 OA
HETATM    4  C8  UNK     1      13.012   5.901   8.708  1.00  0.00     0.115 A 
HETATM    5  C9  UNK     1      11.995   5.434   9.440  1.00  0.00     0.038 A 
HETATM    6  C10 UNK     1      10.629   5.547   8.953  1.00  0.00     0.000 A 
HETATM    7  C11 UNK     1      12.795   6.542   7.391  1.00  0.00     0.304 A 
HETATM    8  C12 UNK     1      10.402   6.145   7.718  1.00  0.00     0.089 A 
HETATM    9  C13 UNK     1       9.536   5.075   9.684  1.00  0.00     0.033 A 
HETATM   10  C14 UNK     1       9.119   6.284   7.194  1.00  0.00     0.039 A 
HETATM   11  C15 UNK     1       8.242   5.206   9.171  1.00  0.00     0.011 A 
HETATM   12  C16 UNK     1       8.034   5.810   7.929  1.00  0.00     0.022 A 
ENDROOT
BRANCH   4  13
HETATM   13  C7  UNK     1      14.352   5.740   9.284  1.00  0.00     0.299 C 
HETATM   14  O3  UNK     1      15.167   4.927   8.880  1.00  0.00    -0.259 OA
BRANCH  13  15
HETATM   15  O1  UNK     1      14.505   6.628  10.304  1.00  0.00    -0.312 OA
BRANCH  15  16
HETATM   16  C1  UNK     1      15.010   7.907   9.937  1.00  0.00     0.135 C 
HETATM   17  C2  UNK     1      16.518   7.927  10.161  1.00  0.00     0.062 C 
HETATM   18  C4  UNK     1      17.094   9.326   9.939  1.00  0.00     0.274 C 
HETATM   19  N1  UNK     1      16.424  10.316  10.796  1.00  0.00     0.084 N 
HETATM   20  C5  UNK     1      14.979  10.357  10.532  1.00  0.00     0.274 C 
HETATM   21  C6  UNK     1      17.017  11.640  10.606  1.00  0.00     0.309 C 
HETATM   22  C3  UNK     1      14.336   8.992  10.774  1.00  0.00     0.062 C 
ENDBRANCH  15  16
ENDBRANCH  13  15
ENDBRANCH   4  13
TORSDOF 3
ENDMDL
MODEL 10
REMARK VINA RESULT:      -7.4     14.050     15.706
REMARK  3 active torsions:
REMARK  status: ('A' for Active; 'I' for Inactive)
REMARK    1  A    between atoms: C1_7  and  O1_2 
REMARK    2  A    between atoms: C7_13  and  O1_2 
REMARK    3  A    between atoms: C7_13  and  C8_14 
ROOT
HETATM    1 Br1  UNK     1      26.201 -10.478  36.658  1.00  0.00    -0.051 Br
HETATM    2  O2  UNK     1      27.961  -5.328  39.338  1.00  0.00    -0.274 OA
HETATM    3  O4  UNK     1      29.565  -3.754  39.752  1.00  0.00    -0.259 OA
HETATM    4  C8  UNK     1      30.183  -5.558  38.346  1.00  0.00     0.115 A 
HETATM    5  C9  UNK     1      29.826  -6.696  37.741  1.00  0.00     0.038 A 
HETATM    6  C10 UNK     1      28.481  -7.224  37.908  1.00  0.00     0.000 A 
HETATM    7  C11 UNK     1      29.240  -4.798  39.197  1.00  0.00     0.304 A 
HETATM    8  C12 UNK     1      27.578  -6.526  38.704  1.00  0.00     0.089 A 
HETATM    9  C13 UNK     1      28.064  -8.409  37.297  1.00  0.00     0.033 A 
HETATM   10  C14 UNK     1      26.275  -6.977  38.904  1.00  0.00     0.039 A 
HETATM   11  C15 UNK     1      26.760  -8.874  37.489  1.00  0.00     0.011 A 
HETATM   12  C16 UNK     1      25.867  -8.160  38.290  1.00  0.00     0.022 A 
ENDROOT
BRANCH   4  13
HETATM   13  C7  UNK     1      31.560  -5.107  38.116  1.00  0.00     0.299 C 
HETATM   14  O3  UNK     1      32.389  -4.991  39.003  1.00  0.00    -0.259 OA
BRANCH  13  15
HETATM   15  O1  UNK     1      31.728  -4.856  36.789  1.00  0.00    -0.312 OA
BRANCH  15  16
HETATM   16  C1  UNK     1      32.963  -5.288  36.231  1.00  0.00     0.135 C 
HETATM   17  C2  UNK     1      33.487  -4.209  35.290  1.00  0.00     0.062 C 
HETATM   18  C4  UNK     1      34.730  -4.684  34.536  1.00  0.00     0.274 C 
HETATM   19  N1  UNK     1      34.459  -5.931  33.805  1.00  0.00     0.084 N 
HETATM   20  C5  UNK     1      34.027  -7.000  34.716  1.00  0.00     0.274 C 
HETATM   21  C6  UNK     1      35.642  -6.348  33.052  1.00  0.00     0.309 C 
HETATM   22  C3  UNK     1      32.762  -6.599  35.474  1.00  0.00     0.062 C 
ENDBRANCH  15  16
ENDBRANCH  13  15
ENDBRANCH   4  13
TORSDOF 3
ENDMDL
