MODEL 1
REMARK VINA RESULT:      -7.3      0.000      0.000
REMARK  9 active torsions:
REMARK  status: ('A' for Active; 'I' for Inactive)
REMARK    1  A    between atoms: C2_11  and  O1_3 
REMARK    2  A    between atoms: C3_12  and  O1_3 
REMARK    3  A    between atoms: C12_21  and  O2_4 
REMARK    4  A    between atoms: C4_13  and  O2_4 
REMARK    5  A    between atoms: C20_29  and  O3_5 
REMARK    6  A    between atoms: C15_24  and  N1_8 
REMARK    7  A    between atoms: C1_10  and  C5_14 
REMARK    8  A    between atoms: C3_12  and  C4_13 
REMARK    9  A    between atoms: C6_15  and  C8_17 
ROOT
HETATM    1  N2  UNK     1      31.109  -9.969  35.906  1.00  0.00    -0.191 NA
HETATM    2  C5  UNK     1      28.402  -8.090  34.890  1.00  0.00     0.038 C 
HETATM    3  C8  UNK     1      29.326  -8.918  34.332  1.00  0.00     0.055 C 
HETATM    4  C23 UNK     1      30.309  -9.494  35.212  1.00  0.00     0.100 C 
ENDROOT
BRANCH   3   5
HETATM    5  C6  UNK     1      29.367  -9.249  32.917  1.00  0.00    -0.015 A 
HETATM    6  C13 UNK     1      30.358 -10.102  32.429  1.00  0.00     0.015 A 
HETATM    7  C16 UNK     1      30.397 -10.421  31.072  1.00  0.00     0.037 A 
HETATM    8  C15 UNK     1      29.444  -9.888  30.202  1.00  0.00     0.102 A 
HETATM    9  C17 UNK     1      28.454  -9.036  30.690  1.00  0.00     0.037 A 
HETATM   10  C14 UNK     1      28.415  -8.717  32.048  1.00  0.00     0.015 A 
BRANCH   8  11
HETATM   11  N1  UNK     1      29.483 -10.213  28.820  1.00  0.00    -0.116 N 
HETATM   12  O4  UNK     1      30.595 -10.401  28.271  1.00  0.00    -0.532 OA
HETATM   13  O5  UNK     1      28.404 -10.304  28.187  1.00  0.00    -0.532 OA
ENDBRANCH   8  11
ENDBRANCH   3   5
BRANCH   2  14
HETATM   14  C1  UNK     1      28.319  -7.733  36.313  1.00  0.00     0.002 A 
HETATM   15  C2  UNK     1      28.983  -6.615  36.817  1.00  0.00     0.101 A 
HETATM   16  C9  UNK     1      28.888  -6.298  38.172  1.00  0.00     0.069 A 
HETATM   17  C11 UNK     1      28.129  -7.101  39.024  1.00  0.00     0.050 A 
HETATM   18 Cl1  UNK     1      29.697  -4.921  38.825  1.00  0.00    -0.081 Cl
HETATM   19  C10 UNK     1      27.466  -8.219  38.520  1.00  0.00     0.036 A 
HETATM   20 Cl2  UNK     1      26.528  -9.209  39.572  1.00  0.00    -0.084 Cl
HETATM   21  C7  UNK     1      27.560  -8.536  37.165  1.00  0.00     0.038 A 
BRANCH  15  22
HETATM   22  O1  UNK     1      29.725  -5.830  35.982  1.00  0.00    -0.346 OA
BRANCH  22  23
HETATM   23  C3  UNK     1      31.142  -5.964  36.061  1.00  0.00     0.202 C 
BRANCH  23  24
HETATM   24  C4  UNK     1      31.760  -5.456  34.773  1.00  0.00     0.202 C 
BRANCH  24  25
HETATM   25  O2  UNK     1      31.845  -6.530  33.844  1.00  0.00    -0.349 OA
BRANCH  25  26
HETATM   26  C12 UNK     1      31.306  -6.316  32.603  1.00  0.00     0.071 A 
HETATM   27  C18 UNK     1      31.847  -6.956  31.488  1.00  0.00     0.073 A 
HETATM   28  C20 UNK     1      31.298  -6.739  30.224  1.00  0.00     0.070 A 
HETATM   29  C22 UNK     1      30.208  -5.882  30.076  1.00  0.00     0.037 A 
HETATM   30  C21 UNK     1      29.667  -5.242  31.190  1.00  0.00     0.005 A 
HETATM   31  C19 UNK     1      30.217  -5.458  32.454  1.00  0.00     0.037 A 
BRANCH  28  32
HETATM   32  O3  UNK     1      31.824  -7.365  29.137  1.00  0.00    -0.356 OA
HETATM   33  C24 UNK     1      33.126  -7.932  29.279  1.00  0.00     0.210 C 
ENDBRANCH  28  32
ENDBRANCH  25  26
ENDBRANCH  24  25
ENDBRANCH  23  24
ENDBRANCH  22  23
ENDBRANCH  15  22
ENDBRANCH   2  14
TORSDOF 9
ENDMDL
MODEL 2
REMARK VINA RESULT:      -7.3      3.473      7.267
REMARK  9 active torsions:
REMARK  status: ('A' for Active; 'I' for Inactive)
REMARK    1  A    between atoms: C2_11  and  O1_3 
REMARK    2  A    between atoms: C3_12  and  O1_3 
REMARK    3  A    between atoms: C12_21  and  O2_4 
REMARK    4  A    between atoms: C4_13  and  O2_4 
REMARK    5  A    between atoms: C20_29  and  O3_5 
REMARK    6  A    between atoms: C15_24  and  N1_8 
REMARK    7  A    between atoms: C1_10  and  C5_14 
REMARK    8  A    between atoms: C3_12  and  C4_13 
REMARK    9  A    between atoms: C6_15  and  C8_17 
ROOT
HETATM    1  N2  UNK     1      30.563 -10.871  33.452  1.00  0.00    -0.191 NA
HETATM    2  C5  UNK     1      29.059  -7.808  32.952  1.00  0.00     0.038 C 
HETATM    3  C8  UNK     1      29.327  -8.646  33.989  1.00  0.00     0.055 C 
HETATM    4  C23 UNK     1      30.012  -9.875  33.681  1.00  0.00     0.100 C 
ENDROOT
BRANCH   3   5
HETATM    5  C6  UNK     1      28.970  -8.367  35.370  1.00  0.00    -0.015 A 
HETATM    6  C13 UNK     1      29.287  -9.284  36.372  1.00  0.00     0.015 A 
HETATM    7  C16 UNK     1      28.946  -9.015  37.697  1.00  0.00     0.037 A 
HETATM    8  C15 UNK     1      28.286  -7.828  38.021  1.00  0.00     0.102 A 
HETATM    9  C17 UNK     1      27.969  -6.912  37.019  1.00  0.00     0.037 A 
HETATM   10  C14 UNK     1      28.311  -7.180  35.693  1.00  0.00     0.015 A 
BRANCH   8  11
HETATM   11  N1  UNK     1      27.938  -7.554  39.370  1.00  0.00    -0.116 N 
HETATM   12  O4  UNK     1      27.996  -6.372  39.786  1.00  0.00    -0.532 OA
HETATM   13  O5  UNK     1      27.580  -8.503  40.110  1.00  0.00    -0.532 OA
ENDBRANCH   8  11
ENDBRANCH   3   5
BRANCH   2  14
HETATM   14  C1  UNK     1      29.408  -8.047  31.544  1.00  0.00     0.002 A 
HETATM   15  C2  UNK     1      30.600  -7.565  31.004  1.00  0.00     0.101 A 
HETATM   16  C9  UNK     1      30.907  -7.806  29.665  1.00  0.00     0.069 A 
HETATM   17  C11 UNK     1      30.022  -8.530  28.866  1.00  0.00     0.050 A 
HETATM   18 Cl1  UNK     1      32.374  -7.223  28.968  1.00  0.00    -0.081 Cl
HETATM   19  C10 UNK     1      28.830  -9.012  29.406  1.00  0.00     0.036 A 
HETATM   20 Cl2  UNK     1      27.738  -9.906  28.420  1.00  0.00    -0.084 Cl
HETATM   21  C7  UNK     1      28.522  -8.771  30.745  1.00  0.00     0.038 A 
BRANCH  15  22
HETATM   22  O1  UNK     1      31.465  -6.857  31.787  1.00  0.00    -0.346 OA
BRANCH  22  23
HETATM   23  C3  UNK     1      32.582  -7.565  32.318  1.00  0.00     0.202 C 
BRANCH  23  24
HETATM   24  C4  UNK     1      33.141  -6.795  33.498  1.00  0.00     0.202 C 
BRANCH  24  25
HETATM   25  O2  UNK     1      32.063  -6.237  34.241  1.00  0.00    -0.349 OA
BRANCH  25  26
HETATM   26  C12 UNK     1      32.042  -6.495  35.586  1.00  0.00     0.071 A 
HETATM   27  C18 UNK     1      31.466  -5.578  36.464  1.00  0.00     0.073 A 
HETATM   28  C20 UNK     1      31.442  -5.841  37.834  1.00  0.00     0.070 A 
HETATM   29  C22 UNK     1      31.996  -7.023  38.325  1.00  0.00     0.037 A 
HETATM   30  C21 UNK     1      32.573  -7.941  37.448  1.00  0.00     0.005 A 
HETATM   31  C19 UNK     1      32.597  -7.676  36.078  1.00  0.00     0.037 A 
BRANCH  28  32
HETATM   32  O3  UNK     1      30.877  -4.947  38.689  1.00  0.00    -0.356 OA
HETATM   33  C24 UNK     1      29.963  -4.003  38.133  1.00  0.00     0.210 C 
ENDBRANCH  28  32
ENDBRANCH  25  26
ENDBRANCH  24  25
ENDBRANCH  23  24
ENDBRANCH  22  23
ENDBRANCH  15  22
ENDBRANCH   2  14
TORSDOF 9
ENDMDL
MODEL 3
REMARK VINA RESULT:      -7.2      2.388      4.120
REMARK  9 active torsions:
REMARK  status: ('A' for Active; 'I' for Inactive)
REMARK    1  A    between atoms: C2_11  and  O1_3 
REMARK    2  A    between atoms: C3_12  and  O1_3 
REMARK    3  A    between atoms: C12_21  and  O2_4 
REMARK    4  A    between atoms: C4_13  and  O2_4 
REMARK    5  A    between atoms: C20_29  and  O3_5 
REMARK    6  A    between atoms: C15_24  and  N1_8 
REMARK    7  A    between atoms: C1_10  and  C5_14 
REMARK    8  A    between atoms: C3_12  and  C4_13 
REMARK    9  A    between atoms: C6_15  and  C8_17 
ROOT
HETATM    1  N2  UNK     1      33.702  -7.708  37.273  1.00  0.00    -0.191 NA
HETATM    2  C5  UNK     1      31.104  -6.645  35.268  1.00  0.00     0.038 C 
HETATM    3  C8  UNK     1      32.404  -7.020  35.127  1.00  0.00     0.055 C 
HETATM    4  C23 UNK     1      33.114  -7.399  36.320  1.00  0.00     0.100 C 
ENDROOT
BRANCH   3   5
HETATM    5  C6  UNK     1      33.100  -7.064  33.851  1.00  0.00    -0.015 A 
HETATM    6  C13 UNK     1      34.459  -6.757  33.787  1.00  0.00     0.015 A 
HETATM    7  C16 UNK     1      35.127  -6.801  32.563  1.00  0.00     0.037 A 
HETATM    8  C15 UNK     1      34.435  -7.151  31.402  1.00  0.00     0.102 A 
HETATM    9  C17 UNK     1      33.076  -7.457  31.467  1.00  0.00     0.037 A 
HETATM   10  C14 UNK     1      32.408  -7.414  32.691  1.00  0.00     0.015 A 
BRANCH   8  11
HETATM   11  N1  UNK     1      35.114  -7.195  30.156  1.00  0.00    -0.116 N 
HETATM   12  O4  UNK     1      35.163  -8.279  29.527  1.00  0.00    -0.532 OA
HETATM   13  O5  UNK     1      35.647  -6.147  29.717  1.00  0.00    -0.532 OA
ENDBRANCH   8  11
ENDBRANCH   3   5
BRANCH   2  14
HETATM   14  C1  UNK     1      30.361  -6.593  36.535  1.00  0.00     0.002 A 
HETATM   15  C2  UNK     1      29.681  -7.710  37.020  1.00  0.00     0.101 A 
HETATM   16  C9  UNK     1      28.984  -7.635  38.225  1.00  0.00     0.069 A 
HETATM   17  C11 UNK     1      28.966  -6.441  38.947  1.00  0.00     0.050 A 
HETATM   18 Cl1  UNK     1      28.133  -9.000  38.851  1.00  0.00    -0.081 Cl
HETATM   19  C10 UNK     1      29.645  -5.324  38.462  1.00  0.00     0.036 A 
HETATM   20 Cl2  UNK     1      29.624  -3.851  39.353  1.00  0.00    -0.084 Cl
HETATM   21  C7  UNK     1      30.343  -5.399  37.257  1.00  0.00     0.038 A 
BRANCH  15  22
HETATM   22  O1  UNK     1      29.699  -8.878  36.313  1.00  0.00    -0.346 OA
BRANCH  22  23
HETATM   23  C3  UNK     1      28.551  -9.172  35.522  1.00  0.00     0.202 C 
BRANCH  23  24
HETATM   24  C4  UNK     1      28.916  -9.054  34.055  1.00  0.00     0.202 C 
BRANCH  24  25
HETATM   25  O2  UNK     1      28.051  -8.109  33.436  1.00  0.00    -0.349 OA
BRANCH  25  26
HETATM   26  C12 UNK     1      28.614  -7.274  32.507  1.00  0.00     0.071 A 
HETATM   27  C18 UNK     1      28.979  -7.767  31.255  1.00  0.00     0.073 A 
HETATM   28  C20 UNK     1      29.550  -6.917  30.309  1.00  0.00     0.070 A 
HETATM   29  C22 UNK     1      29.757  -5.571  30.616  1.00  0.00     0.037 A 
HETATM   30  C21 UNK     1      29.393  -5.078  31.868  1.00  0.00     0.005 A 
HETATM   31  C19 UNK     1      28.822  -5.929  32.814  1.00  0.00     0.037 A 
BRANCH  28  32
HETATM   32  O3  UNK     1      29.903  -7.397  29.086  1.00  0.00    -0.356 OA
HETATM   33  C24 UNK     1      29.550  -8.748  28.792  1.00  0.00     0.210 C 
ENDBRANCH  28  32
ENDBRANCH  25  26
ENDBRANCH  24  25
ENDBRANCH  23  24
ENDBRANCH  22  23
ENDBRANCH  15  22
ENDBRANCH   2  14
TORSDOF 9
ENDMDL
MODEL 4
REMARK VINA RESULT:      -7.2     11.232     12.718
REMARK  9 active torsions:
REMARK  status: ('A' for Active; 'I' for Inactive)
REMARK    1  A    between atoms: C2_11  and  O1_3 
REMARK    2  A    between atoms: C3_12  and  O1_3 
REMARK    3  A    between atoms: C12_21  and  O2_4 
REMARK    4  A    between atoms: C4_13  and  O2_4 
REMARK    5  A    between atoms: C20_29  and  O3_5 
REMARK    6  A    between atoms: C15_24  and  N1_8 
REMARK    7  A    between atoms: C1_10  and  C5_14 
REMARK    8  A    between atoms: C3_12  and  C4_13 
REMARK    9  A    between atoms: C6_15  and  C8_17 
ROOT
HETATM    1  N2  UNK     1      21.678  -1.718  35.693  1.00  0.00    -0.191 NA
HETATM    2  C5  UNK     1      18.599  -2.879  36.723  1.00  0.00     0.038 C 
HETATM    3  C8  UNK     1      19.822  -3.389  36.416  1.00  0.00     0.055 C 
HETATM    4  C23 UNK     1      20.842  -2.456  36.016  1.00  0.00     0.100 C 
ENDROOT
BRANCH   3   5
HETATM    5  C6  UNK     1      20.147  -4.805  36.476  1.00  0.00    -0.015 A 
HETATM    6  C13 UNK     1      20.793  -5.325  37.598  1.00  0.00     0.015 A 
HETATM    7  C16 UNK     1      21.104  -6.684  37.656  1.00  0.00     0.037 A 
HETATM    8  C15 UNK     1      20.770  -7.522  36.591  1.00  0.00     0.102 A 
HETATM    9  C17 UNK     1      20.125  -7.002  35.470  1.00  0.00     0.037 A 
HETATM   10  C14 UNK     1      19.813  -5.643  35.412  1.00  0.00     0.015 A 
BRANCH   8  11
HETATM   11  N1  UNK     1      21.087  -8.905  36.650  1.00  0.00    -0.116 N 
HETATM   12  O4  UNK     1      21.011  -9.592  35.603  1.00  0.00    -0.532 OA
HETATM   13  O5  UNK     1      21.435  -9.402  37.748  1.00  0.00    -0.532 OA
ENDBRANCH   8  11
ENDBRANCH   3   5
BRANCH   2  14
HETATM   14  C1  UNK     1      18.229  -1.457  36.684  1.00  0.00     0.002 A 
HETATM   15  C2  UNK     1      17.938  -0.821  35.477  1.00  0.00     0.101 A 
HETATM   16  C9  UNK     1      17.590   0.530  35.467  1.00  0.00     0.069 A 
HETATM   17  C11 UNK     1      17.532   1.244  36.664  1.00  0.00     0.050 A 
HETATM   18 Cl1  UNK     1      17.224   1.345  33.991  1.00  0.00    -0.081 Cl
HETATM   19  C10 UNK     1      17.822   0.608  37.870  1.00  0.00     0.036 A 
HETATM   20 Cl2  UNK     1      17.749   1.489  39.347  1.00  0.00    -0.084 Cl
HETATM   21  C7  UNK     1      18.171  -0.743  37.880  1.00  0.00     0.038 A 
BRANCH  15  22
HETATM   22  O1  UNK     1      17.996  -1.521  34.306  1.00  0.00    -0.346 OA
BRANCH  22  23
HETATM   23  C3  UNK     1      18.742  -0.937  33.242  1.00  0.00     0.202 C 
BRANCH  23  24
HETATM   24  C4  UNK     1      19.790  -1.926  32.771  1.00  0.00     0.202 C 
BRANCH  24  25
HETATM   25  O2  UNK     1      20.721  -1.252  31.934  1.00  0.00    -0.349 OA
BRANCH  25  26
HETATM   26  C12 UNK     1      20.227  -0.696  30.783  1.00  0.00     0.071 A 
HETATM   27  C18 UNK     1      19.734   0.609  30.794  1.00  0.00     0.073 A 
HETATM   28  C20 UNK     1      19.233   1.175  29.622  1.00  0.00     0.070 A 
HETATM   29  C22 UNK     1      19.224   0.436  28.439  1.00  0.00     0.037 A 
HETATM   30  C21 UNK     1      19.716  -0.869  28.428  1.00  0.00     0.005 A 
HETATM   31  C19 UNK     1      20.217  -1.435  29.600  1.00  0.00     0.037 A 
BRANCH  28  32
HETATM   32  O3  UNK     1      18.755   2.449  29.632  1.00  0.00    -0.356 OA
HETATM   33  C24 UNK     1      18.192   2.923  30.854  1.00  0.00     0.210 C 
ENDBRANCH  28  32
ENDBRANCH  25  26
ENDBRANCH  24  25
ENDBRANCH  23  24
ENDBRANCH  22  23
ENDBRANCH  15  22
ENDBRANCH   2  14
TORSDOF 9
ENDMDL
MODEL 5
REMARK VINA RESULT:      -7.1      3.607      7.391
REMARK  9 active torsions:
REMARK  status: ('A' for Active; 'I' for Inactive)
REMARK    1  A    between atoms: C2_11  and  O1_3 
REMARK    2  A    between atoms: C3_12  and  O1_3 
REMARK    3  A    between atoms: C12_21  and  O2_4 
REMARK    4  A    between atoms: C4_13  and  O2_4 
REMARK    5  A    between atoms: C20_29  and  O3_5 
REMARK    6  A    between atoms: C15_24  and  N1_8 
REMARK    7  A    between atoms: C1_10  and  C5_14 
REMARK    8  A    between atoms: C3_12  and  C4_13 
REMARK    9  A    between atoms: C6_15  and  C8_17 
ROOT
HETATM    1  N2  UNK     1      27.701  -5.813  32.679  1.00  0.00    -0.191 NA
HETATM    2  C5  UNK     1      29.489  -8.729  33.124  1.00  0.00     0.038 C 
HETATM    3  C8  UNK     1      28.761  -7.862  33.879  1.00  0.00     0.055 C 
HETATM    4  C23 UNK     1      28.179  -6.731  33.206  1.00  0.00     0.100 C 
ENDROOT
BRANCH   3   5
HETATM    5  C6  UNK     1      28.540  -8.021  35.307  1.00  0.00    -0.015 A 
HETATM    6  C13 UNK     1      27.921  -7.004  36.035  1.00  0.00     0.015 A 
HETATM    7  C16 UNK     1      27.708  -7.157  37.405  1.00  0.00     0.037 A 
HETATM    8  C15 UNK     1      28.113  -8.328  38.047  1.00  0.00     0.102 A 
HETATM    9  C17 UNK     1      28.732  -9.344  37.320  1.00  0.00     0.037 A 
HETATM   10  C14 UNK     1      28.945  -9.191  35.950  1.00  0.00     0.015 A 
BRANCH   8  11
HETATM   11  N1  UNK     1      27.896  -8.484  39.442  1.00  0.00    -0.116 N 
HETATM   12  O4  UNK     1      27.725  -7.462  40.149  1.00  0.00    -0.532 OA
HETATM   13  O5  UNK     1      27.880  -9.640  39.929  1.00  0.00    -0.532 OA
ENDBRANCH   8  11
ENDBRANCH   3   5
BRANCH   2  14
HETATM   14  C1  UNK     1      29.732  -8.610  31.679  1.00  0.00     0.002 A 
HETATM   15  C2  UNK     1      30.794  -7.853  31.185  1.00  0.00     0.101 A 
HETATM   16  C9  UNK     1      31.003  -7.757  29.810  1.00  0.00     0.069 A 
HETATM   17  C11 UNK     1      30.149  -8.419  28.927  1.00  0.00     0.050 A 
HETATM   18 Cl1  UNK     1      32.308  -6.829  29.168  1.00  0.00    -0.081 Cl
HETATM   19  C10 UNK     1      29.087  -9.176  29.421  1.00  0.00     0.036 A 
HETATM   20 Cl2  UNK     1      28.034  -9.994  28.332  1.00  0.00    -0.084 Cl
HETATM   21  C7  UNK     1      28.878  -9.272  30.797  1.00  0.00     0.038 A 
BRANCH  15  22
HETATM   22  O1  UNK     1      31.629  -7.206  32.050  1.00  0.00    -0.346 OA
BRANCH  22  23
HETATM   23  C3  UNK     1      32.775  -7.923  32.499  1.00  0.00     0.202 C 
BRANCH  23  24
HETATM   24  C4  UNK     1      33.005  -7.622  33.967  1.00  0.00     0.202 C 
BRANCH  24  25
HETATM   25  O2  UNK     1      32.236  -6.482  34.332  1.00  0.00    -0.349 OA
BRANCH  25  26
HETATM   26  C12 UNK     1      31.867  -6.382  35.648  1.00  0.00     0.071 A 
HETATM   27  C18 UNK     1      31.181  -5.254  36.097  1.00  0.00     0.073 A 
HETATM   28  C20 UNK     1      30.804  -5.153  37.436  1.00  0.00     0.070 A 
HETATM   29  C22 UNK     1      31.114  -6.181  38.327  1.00  0.00     0.037 A 
HETATM   30  C21 UNK     1      31.802  -7.308  37.879  1.00  0.00     0.005 A 
HETATM   31  C19 UNK     1      32.179  -7.409  36.539  1.00  0.00     0.037 A 
BRANCH  28  32
HETATM   32  O3  UNK     1      30.131  -4.054  37.873  1.00  0.00    -0.356 OA
HETATM   33  C24 UNK     1      29.572  -4.114  39.185  1.00  0.00     0.210 C 
ENDBRANCH  28  32
ENDBRANCH  25  26
ENDBRANCH  24  25
ENDBRANCH  23  24
ENDBRANCH  22  23
ENDBRANCH  15  22
ENDBRANCH   2  14
TORSDOF 9
ENDMDL
MODEL 6
REMARK VINA RESULT:      -7.1      0.984      1.874
REMARK  9 active torsions:
REMARK  status: ('A' for Active; 'I' for Inactive)
REMARK    1  A    between atoms: C2_11  and  O1_3 
REMARK    2  A    between atoms: C3_12  and  O1_3 
REMARK    3  A    between atoms: C12_21  and  O2_4 
REMARK    4  A    between atoms: C4_13  and  O2_4 
REMARK    5  A    between atoms: C20_29  and  O3_5 
REMARK    6  A    between atoms: C15_24  and  N1_8 
REMARK    7  A    between atoms: C1_10  and  C5_14 
REMARK    8  A    between atoms: C3_12  and  C4_13 
REMARK    9  A    between atoms: C6_15  and  C8_17 
ROOT
HETATM    1  N2  UNK     1      31.628  -9.882  36.030  1.00  0.00    -0.191 NA
HETATM    2  C5  UNK     1      28.506  -8.759  35.089  1.00  0.00     0.038 C 
HETATM    3  C8  UNK     1      29.594  -9.329  34.506  1.00  0.00     0.055 C 
HETATM    4  C23 UNK     1      30.715  -9.631  35.358  1.00  0.00     0.100 C 
ENDROOT
BRANCH   3   5
HETATM    5  C6  UNK     1      29.680  -9.651  33.091  1.00  0.00    -0.015 A 
HETATM    6  C13 UNK     1      28.734  -9.140  32.201  1.00  0.00     0.015 A 
HETATM    7  C16 UNK     1      28.818  -9.448  30.843  1.00  0.00     0.037 A 
HETATM    8  C15 UNK     1      29.846 -10.266  30.374  1.00  0.00     0.102 A 
HETATM    9  C17 UNK     1      30.791 -10.776  31.264  1.00  0.00     0.037 A 
HETATM   10  C14 UNK     1      30.709 -10.468  32.622  1.00  0.00     0.015 A 
BRANCH   8  11
HETATM   11  N1  UNK     1      29.931 -10.579  28.992  1.00  0.00    -0.116 N 
HETATM   12  O4  UNK     1      28.877 -10.630  28.314  1.00  0.00    -0.532 OA
HETATM   13  O5  UNK     1      31.059 -10.796  28.486  1.00  0.00    -0.532 OA
ENDBRANCH   8  11
ENDBRANCH   3   5
BRANCH   2  14
HETATM   14  C1  UNK     1      28.374  -8.424  36.514  1.00  0.00     0.002 A 
HETATM   15  C2  UNK     1      28.820  -7.200  37.012  1.00  0.00     0.101 A 
HETATM   16  C9  UNK     1      28.683  -6.907  38.369  1.00  0.00     0.069 A 
HETATM   17  C11 UNK     1      28.099  -7.839  39.228  1.00  0.00     0.050 A 
HETATM   18 Cl1  UNK     1      29.224  -5.402  39.015  1.00  0.00    -0.081 Cl
HETATM   19  C10 UNK     1      27.653  -9.062  38.730  1.00  0.00     0.036 A 
HETATM   20 Cl2  UNK     1      26.932 -10.211  39.790  1.00  0.00    -0.084 Cl
HETATM   21  C7  UNK     1      27.790  -9.355  37.373  1.00  0.00     0.038 A 
BRANCH  15  22
HETATM   22  O1  UNK     1      29.391  -6.290  36.170  1.00  0.00    -0.346 OA
BRANCH  22  23
HETATM   23  C3  UNK     1      30.804  -6.128  36.258  1.00  0.00     0.202 C 
BRANCH  23  24
HETATM   24  C4  UNK     1      31.313  -5.513  34.969  1.00  0.00     0.202 C 
BRANCH  24  25
HETATM   25  O2  UNK     1      31.940  -6.524  34.189  1.00  0.00    -0.349 OA
BRANCH  25  26
HETATM   26  C12 UNK     1      31.624  -6.560  32.856  1.00  0.00     0.071 A 
HETATM   27  C18 UNK     1      30.496  -5.888  32.388  1.00  0.00     0.073 A 
HETATM   28  C20 UNK     1      30.175  -5.923  31.031  1.00  0.00     0.070 A 
HETATM   29  C22 UNK     1      30.984  -6.631  30.142  1.00  0.00     0.037 A 
HETATM   30  C21 UNK     1      32.112  -7.304  30.610  1.00  0.00     0.005 A 
HETATM   31  C19 UNK     1      32.432  -7.268  31.967  1.00  0.00     0.037 A 
BRANCH  28  32
HETATM   32  O3  UNK     1      29.076  -5.265  30.574  1.00  0.00    -0.356 OA
HETATM   33  C24 UNK     1      27.914  -6.049  30.303  1.00  0.00     0.210 C 
ENDBRANCH  28  32
ENDBRANCH  25  26
ENDBRANCH  24  25
ENDBRANCH  23  24
ENDBRANCH  22  23
ENDBRANCH  15  22
ENDBRANCH   2  14
TORSDOF 9
ENDMDL
MODEL 7
REMARK VINA RESULT:      -7.0      3.747      7.535
REMARK  9 active torsions:
REMARK  status: ('A' for Active; 'I' for Inactive)
REMARK    1  A    between atoms: C2_11  and  O1_3 
REMARK    2  A    between atoms: C3_12  and  O1_3 
REMARK    3  A    between atoms: C12_21  and  O2_4 
REMARK    4  A    between atoms: C4_13  and  O2_4 
REMARK    5  A    between atoms: C20_29  and  O3_5 
REMARK    6  A    between atoms: C15_24  and  N1_8 
REMARK    7  A    between atoms: C1_10  and  C5_14 
REMARK    8  A    between atoms: C3_12  and  C4_13 
REMARK    9  A    between atoms: C6_15  and  C8_17 
ROOT
HETATM    1  N2  UNK     1      29.718  -5.112  31.957  1.00  0.00    -0.191 NA
HETATM    2  C5  UNK     1      29.787  -8.264  33.355  1.00  0.00     0.038 C 
HETATM    3  C8  UNK     1      29.625  -6.977  33.766  1.00  0.00     0.055 C 
HETATM    4  C23 UNK     1      29.678  -5.952  32.757  1.00  0.00     0.100 C 
ENDROOT
BRANCH   3   5
HETATM    5  C6  UNK     1      29.397  -6.592  35.150  1.00  0.00    -0.015 A 
HETATM    6  C13 UNK     1      28.278  -7.072  35.832  1.00  0.00     0.015 A 
HETATM    7  C16 UNK     1      28.060  -6.702  37.159  1.00  0.00     0.037 A 
HETATM    8  C15 UNK     1      28.960  -5.853  37.805  1.00  0.00     0.102 A 
HETATM    9  C17 UNK     1      30.077  -5.374  37.122  1.00  0.00     0.037 A 
HETATM   10  C14 UNK     1      30.296  -5.743  35.794  1.00  0.00     0.015 A 
BRANCH   8  11
HETATM   11  N1  UNK     1      28.738  -5.477  39.156  1.00  0.00    -0.116 N 
HETATM   12  O4  UNK     1      29.155  -4.363  39.554  1.00  0.00    -0.532 OA
HETATM   13  O5  UNK     1      28.130  -6.270  39.915  1.00  0.00    -0.532 OA
ENDBRANCH   8  11
ENDBRANCH   3   5
BRANCH   2  14
HETATM   14  C1  UNK     1      30.013  -8.698  31.969  1.00  0.00     0.002 A 
HETATM   15  C2  UNK     1      31.302  -8.891  31.474  1.00  0.00     0.101 A 
HETATM   16  C9  UNK     1      31.488  -9.304  30.155  1.00  0.00     0.069 A 
HETATM   17  C11 UNK     1      30.385  -9.524  29.330  1.00  0.00     0.050 A 
HETATM   18 Cl1  UNK     1      33.071  -9.551  29.513  1.00  0.00    -0.081 Cl
HETATM   19  C10 UNK     1      29.095  -9.331  29.826  1.00  0.00     0.036 A 
HETATM   20 Cl2  UNK     1      27.734  -9.604  28.809  1.00  0.00    -0.084 Cl
HETATM   21  C7  UNK     1      28.909  -8.918  31.145  1.00  0.00     0.038 A 
BRANCH  15  22
HETATM   22  O1  UNK     1      32.382  -8.675  32.282  1.00  0.00    -0.346 OA
BRANCH  22  23
HETATM   23  C3  UNK     1      33.017  -7.403  32.183  1.00  0.00     0.202 C 
BRANCH  23  24
HETATM   24  C4  UNK     1      33.399  -6.931  33.572  1.00  0.00     0.202 C 
BRANCH  24  25
HETATM   25  O2  UNK     1      33.742  -8.060  34.367  1.00  0.00    -0.349 OA
BRANCH  25  26
HETATM   26  C12 UNK     1      33.206  -8.112  35.628  1.00  0.00     0.071 A 
HETATM   27  C18 UNK     1      32.163  -8.995  35.907  1.00  0.00     0.073 A 
HETATM   28  C20 UNK     1      31.619  -9.049  37.190  1.00  0.00     0.070 A 
HETATM   29  C22 UNK     1      32.119  -8.219  38.194  1.00  0.00     0.037 A 
HETATM   30  C21 UNK     1      33.161  -7.336  37.915  1.00  0.00     0.005 A 
HETATM   31  C19 UNK     1      33.705  -7.282  36.631  1.00  0.00     0.037 A 
BRANCH  28  32
HETATM   32  O3  UNK     1      30.604  -9.912  37.464  1.00  0.00    -0.356 OA
HETATM   33  C24 UNK     1      29.714  -9.555  38.520  1.00  0.00     0.210 C 
ENDBRANCH  28  32
ENDBRANCH  25  26
ENDBRANCH  24  25
ENDBRANCH  23  24
ENDBRANCH  22  23
ENDBRANCH  15  22
ENDBRANCH   2  14
TORSDOF 9
ENDMDL
MODEL 8
REMARK VINA RESULT:      -7.0      3.831      7.929
REMARK  9 active torsions:
REMARK  status: ('A' for Active; 'I' for Inactive)
REMARK    1  A    between atoms: C2_11  and  O1_3 
REMARK    2  A    between atoms: C3_12  and  O1_3 
REMARK    3  A    between atoms: C12_21  and  O2_4 
REMARK    4  A    between atoms: C4_13  and  O2_4 
REMARK    5  A    between atoms: C20_29  and  O3_5 
REMARK    6  A    between atoms: C15_24  and  N1_8 
REMARK    7  A    between atoms: C1_10  and  C5_14 
REMARK    8  A    between atoms: C3_12  and  C4_13 
REMARK    9  A    between atoms: C6_15  and  C8_17 
ROOT
HETATM    1  N2  UNK     1      29.884  -5.070  31.664  1.00  0.00    -0.191 NA
HETATM    2  C5  UNK     1      31.683  -7.473  33.363  1.00  0.00     0.038 C 
HETATM    3  C8  UNK     1      30.856  -6.433  33.654  1.00  0.00     0.055 C 
HETATM    4  C23 UNK     1      30.324  -5.685  32.546  1.00  0.00     0.100 C 
ENDROOT
BRANCH   3   5
HETATM    5  C6  UNK     1      30.484  -6.048  35.006  1.00  0.00    -0.015 A 
HETATM    6  C13 UNK     1      31.269  -5.137  35.713  1.00  0.00     0.015 A 
HETATM    7  C16 UNK     1      30.911  -4.767  37.010  1.00  0.00     0.037 A 
HETATM    8  C15 UNK     1      29.768  -5.309  37.600  1.00  0.00     0.102 A 
HETATM    9  C17 UNK     1      28.984  -6.220  36.893  1.00  0.00     0.037 A 
HETATM   10  C14 UNK     1      29.342  -6.589  35.596  1.00  0.00     0.015 A 
BRANCH   8  11
HETATM   11  N1  UNK     1      29.404  -4.933  38.920  1.00  0.00    -0.116 N 
HETATM   12  O4  UNK     1      30.046  -4.019  39.491  1.00  0.00    -0.532 OA
HETATM   13  O5  UNK     1      28.449  -5.525  39.478  1.00  0.00    -0.532 OA
ENDBRANCH   8  11
ENDBRANCH   3   5
BRANCH   2  14
HETATM   14  C1  UNK     1      32.079  -7.900  32.013  1.00  0.00     0.002 A 
HETATM   15  C2  UNK     1      31.415  -8.938  31.361  1.00  0.00     0.101 A 
HETATM   16  C9  UNK     1      31.811  -9.324  30.080  1.00  0.00     0.069 A 
HETATM   17  C11 UNK     1      32.871  -8.671  29.452  1.00  0.00     0.050 A 
HETATM   18 Cl1  UNK     1      31.008 -10.605  29.247  1.00  0.00    -0.081 Cl
HETATM   19  C10 UNK     1      33.536  -7.633  30.105  1.00  0.00     0.036 A 
HETATM   20 Cl2  UNK     1      34.843  -6.827  29.328  1.00  0.00    -0.084 Cl
HETATM   21  C7  UNK     1      33.140  -7.247  31.385  1.00  0.00     0.038 A 
BRANCH  15  22
HETATM   22  O1  UNK     1      30.377  -9.577  31.977  1.00  0.00    -0.346 OA
BRANCH  22  23
HETATM   23  C3  UNK     1      30.704 -10.689  32.805  1.00  0.00     0.202 C 
BRANCH  23  24
HETATM   24  C4  UNK     1      30.212 -10.419  34.214  1.00  0.00     0.202 C 
BRANCH  24  25
HETATM   25  O2  UNK     1      31.215 -10.819  35.140  1.00  0.00    -0.349 OA
BRANCH  25  26
HETATM   26  C12 UNK     1      31.571  -9.905  36.097  1.00  0.00     0.071 A 
HETATM   27  C18 UNK     1      32.694  -9.099  35.909  1.00  0.00     0.073 A 
HETATM   28  C20 UNK     1      33.055  -8.168  36.883  1.00  0.00     0.070 A 
HETATM   29  C22 UNK     1      32.293  -8.042  38.044  1.00  0.00     0.037 A 
HETATM   30  C21 UNK     1      31.170  -8.847  38.232  1.00  0.00     0.005 A 
HETATM   31  C19 UNK     1      30.809  -9.779  37.259  1.00  0.00     0.037 A 
BRANCH  28  32
HETATM   32  O3  UNK     1      34.149  -7.380  36.698  1.00  0.00    -0.356 OA
HETATM   33  C24 UNK     1      34.331  -6.297  37.610  1.00  0.00     0.210 C 
ENDBRANCH  28  32
ENDBRANCH  25  26
ENDBRANCH  24  25
ENDBRANCH  23  24
ENDBRANCH  22  23
ENDBRANCH  15  22
ENDBRANCH   2  14
TORSDOF 9
ENDMDL
MODEL 9
REMARK VINA RESULT:      -7.0      3.460      7.089
REMARK  9 active torsions:
REMARK  status: ('A' for Active; 'I' for Inactive)
REMARK    1  A    between atoms: C2_11  and  O1_3 
REMARK    2  A    between atoms: C3_12  and  O1_3 
REMARK    3  A    between atoms: C12_21  and  O2_4 
REMARK    4  A    between atoms: C4_13  and  O2_4 
REMARK    5  A    between atoms: C20_29  and  O3_5 
REMARK    6  A    between atoms: C15_24  and  N1_8 
REMARK    7  A    between atoms: C1_10  and  C5_14 
REMARK    8  A    between atoms: C3_12  and  C4_13 
REMARK    9  A    between atoms: C6_15  and  C8_17 
ROOT
HETATM    1  N2  UNK     1      31.187 -10.915  33.108  1.00  0.00    -0.191 NA
HETATM    2  C5  UNK     1      28.784  -8.442  33.067  1.00  0.00     0.038 C 
HETATM    3  C8  UNK     1      29.334  -9.304  33.964  1.00  0.00     0.055 C 
HETATM    4  C23 UNK     1      30.359 -10.192  33.481  1.00  0.00     0.100 C 
ENDROOT
BRANCH   3   5
HETATM    5  C6  UNK     1      28.951  -9.368  35.365  1.00  0.00    -0.015 A 
HETATM    6  C13 UNK     1      27.601  -9.397  35.718  1.00  0.00     0.015 A 
HETATM    7  C16 UNK     1      27.234  -9.459  37.063  1.00  0.00     0.037 A 
HETATM    8  C15 UNK     1      28.216  -9.494  38.054  1.00  0.00     0.102 A 
HETATM    9  C17 UNK     1      29.564  -9.465  37.700  1.00  0.00     0.037 A 
HETATM   10  C14 UNK     1      29.932  -9.403  36.356  1.00  0.00     0.015 A 
BRANCH   8  11
HETATM   11  N1  UNK     1      27.842  -9.558  39.422  1.00  0.00    -0.116 N 
HETATM   12  O4  UNK     1      26.888  -8.850  39.826  1.00  0.00    -0.532 OA
HETATM   13  O5  UNK     1      28.475 -10.322  40.190  1.00  0.00    -0.532 OA
ENDBRANCH   8  11
ENDBRANCH   3   5
BRANCH   2  14
HETATM   14  C1  UNK     1      29.146  -8.338  31.646  1.00  0.00     0.002 A 
HETATM   15  C2  UNK     1      30.123  -7.442  31.213  1.00  0.00     0.101 A 
HETATM   16  C9  UNK     1      30.447  -7.364  29.859  1.00  0.00     0.069 A 
HETATM   17  C11 UNK     1      29.794  -8.182  28.937  1.00  0.00     0.050 A 
HETATM   18 Cl1  UNK     1      31.652  -6.266  29.293  1.00  0.00    -0.081 Cl
HETATM   19  C10 UNK     1      28.817  -9.078  29.370  1.00  0.00     0.036 A 
HETATM   20 Cl2  UNK     1      28.013 -10.088  28.232  1.00  0.00    -0.084 Cl
HETATM   21  C7  UNK     1      28.493  -9.157  30.724  1.00  0.00     0.038 A 
BRANCH  15  22
HETATM   22  O1  UNK     1      30.761  -6.642  32.117  1.00  0.00    -0.346 OA
BRANCH  22  23
HETATM   23  C3  UNK     1      32.079  -7.024  32.499  1.00  0.00     0.202 C 
BRANCH  23  24
HETATM   24  C4  UNK     1      32.187  -6.987  34.011  1.00  0.00     0.202 C 
BRANCH  24  25
HETATM   25  O2  UNK     1      32.577  -5.680  34.416  1.00  0.00    -0.349 OA
BRANCH  25  26
HETATM   26  C12 UNK     1      31.870  -5.117  35.446  1.00  0.00     0.071 A 
HETATM   27  C18 UNK     1      30.764  -5.780  35.978  1.00  0.00     0.073 A 
HETATM   28  C20 UNK     1      30.045  -5.208  37.027  1.00  0.00     0.070 A 
HETATM   29  C22 UNK     1      30.433  -3.972  37.545  1.00  0.00     0.037 A 
HETATM   30  C21 UNK     1      31.538  -3.309  37.013  1.00  0.00     0.005 A 
HETATM   31  C19 UNK     1      32.257  -3.881  35.963  1.00  0.00     0.037 A 
BRANCH  28  32
HETATM   32  O3  UNK     1      28.968  -5.856  37.548  1.00  0.00    -0.356 OA
HETATM   33  C24 UNK     1      28.947  -6.048  38.962  1.00  0.00     0.210 C 
ENDBRANCH  28  32
ENDBRANCH  25  26
ENDBRANCH  24  25
ENDBRANCH  23  24
ENDBRANCH  22  23
ENDBRANCH  15  22
ENDBRANCH   2  14
TORSDOF 9
ENDMDL
MODEL 10
REMARK VINA RESULT:      -6.9      3.824      7.484
REMARK  9 active torsions:
REMARK  status: ('A' for Active; 'I' for Inactive)
REMARK    1  A    between atoms: C2_11  and  O1_3 
REMARK    2  A    between atoms: C3_12  and  O1_3 
REMARK    3  A    between atoms: C12_21  and  O2_4 
REMARK    4  A    between atoms: C4_13  and  O2_4 
REMARK    5  A    between atoms: C20_29  and  O3_5 
REMARK    6  A    between atoms: C15_24  and  N1_8 
REMARK    7  A    between atoms: C1_10  and  C5_14 
REMARK    8  A    between atoms: C3_12  and  C4_13 
REMARK    9  A    between atoms: C6_15  and  C8_17 
ROOT
HETATM    1  N2  UNK     1      31.079  -6.217  32.149  1.00  0.00    -0.191 NA
HETATM    2  C5  UNK     1      29.309  -8.862  33.478  1.00  0.00     0.038 C 
HETATM    3  C8  UNK     1      29.720  -7.623  33.863  1.00  0.00     0.055 C 
HETATM    4  C23 UNK     1      30.472  -6.853  32.907  1.00  0.00     0.100 C 
ENDROOT
BRANCH   3   5
HETATM    5  C6  UNK     1      29.437  -7.045  35.167  1.00  0.00    -0.015 A 
HETATM    6  C13 UNK     1      28.391  -7.548  35.940  1.00  0.00     0.015 A 
HETATM    7  C16 UNK     1      28.120  -6.994  37.191  1.00  0.00     0.037 A 
HETATM    8  C15 UNK     1      28.895  -5.936  37.669  1.00  0.00     0.102 A 
HETATM    9  C17 UNK     1      29.940  -5.433  36.895  1.00  0.00     0.037 A 
HETATM   10  C14 UNK     1      30.212  -5.988  35.644  1.00  0.00     0.015 A 
BRANCH   8  11
HETATM   11  N1  UNK     1      28.619  -5.371  38.942  1.00  0.00    -0.116 N 
HETATM   12  O4  UNK     1      28.913  -4.170  39.152  1.00  0.00    -0.532 OA
HETATM   13  O5  UNK     1      28.088  -6.090  39.823  1.00  0.00    -0.532 OA
ENDBRANCH   8  11
ENDBRANCH   3   5
BRANCH   2  14
HETATM   14  C1  UNK     1      29.567  -9.482  32.170  1.00  0.00     0.002 A 
HETATM   15  C2  UNK     1      30.677 -10.300  31.966  1.00  0.00     0.101 A 
HETATM   16  C9  UNK     1      30.898 -10.876  30.715  1.00  0.00     0.069 A 
HETATM   17  C11 UNK     1      30.008 -10.634  29.668  1.00  0.00     0.050 A 
HETATM   18 Cl1  UNK     1      32.263 -11.893  30.431  1.00  0.00    -0.081 Cl
HETATM   19  C10 UNK     1      28.898  -9.816  29.873  1.00  0.00     0.036 A 
HETATM   20 Cl2  UNK     1      27.799  -9.519  28.582  1.00  0.00    -0.084 Cl
HETATM   21  C7  UNK     1      28.676  -9.240  31.124  1.00  0.00     0.038 A 
BRANCH  15  22
HETATM   22  O1  UNK     1      31.548 -10.536  32.991  1.00  0.00    -0.346 OA
BRANCH  22  23
HETATM   23  C3  UNK     1      31.353 -11.731  33.741  1.00  0.00     0.202 C 
BRANCH  23  24
HETATM   24  C4  UNK     1      31.787 -11.494  35.174  1.00  0.00     0.202 C 
BRANCH  24  25
HETATM   25  O2  UNK     1      31.000 -10.447  35.729  1.00  0.00    -0.349 OA
BRANCH  25  26
HETATM   26  C12 UNK     1      31.671  -9.469  36.417  1.00  0.00     0.071 A 
HETATM   27  C18 UNK     1      32.731  -8.793  35.813  1.00  0.00     0.073 A 
HETATM   28  C20 UNK     1      33.413  -7.798  36.512  1.00  0.00     0.070 A 
HETATM   29  C22 UNK     1      33.034  -7.478  37.816  1.00  0.00     0.037 A 
HETATM   30  C21 UNK     1      31.974  -8.154  38.420  1.00  0.00     0.005 A 
HETATM   31  C19 UNK     1      31.293  -9.150  37.721  1.00  0.00     0.037 A 
BRANCH  28  32
HETATM   32  O3  UNK     1      34.445  -7.136  35.922  1.00  0.00    -0.356 OA
HETATM   33  C24 UNK     1      34.966  -5.999  36.610  1.00  0.00     0.210 C 
ENDBRANCH  28  32
ENDBRANCH  25  26
ENDBRANCH  24  25
ENDBRANCH  23  24
ENDBRANCH  22  23
ENDBRANCH  15  22
ENDBRANCH   2  14
TORSDOF 9
ENDMDL
