MODEL 1
REMARK VINA RESULT:      -7.7      0.000      0.000
REMARK  1 active torsions:
REMARK  status: ('A' for Active; 'I' for Inactive)
REMARK    1  A    between atoms: C2_6  and  C4_8 
ROOT
HETATM    1 Cl1  UNK     1      16.038  12.347  34.984  1.00  0.00    -0.084 Cl
HETATM    2  O1  UNK     1      17.117   7.253  32.249  1.00  0.00    -0.309 OA
HETATM    3  O2  UNK     1      20.094   8.853  34.525  1.00  0.00    -0.287 OA
HETATM    4  C1  UNK     1      17.889   9.043  33.698  1.00  0.00     0.050 A 
HETATM    5  C2  UNK     1      18.351   6.633  32.374  1.00  0.00     0.090 A 
HETATM    6  C3  UNK     1      16.913   8.441  32.905  1.00  0.00     0.090 A 
HETATM    7  C5  UNK     1      19.194   8.383  33.842  1.00  0.00     0.187 A 
HETATM    8  C6  UNK     1      19.365   7.109  33.114  1.00  0.00     0.093 A 
HETATM    9  C7  UNK     1      17.624  10.253  34.345  1.00  0.00     0.042 A 
HETATM   10  C8  UNK     1      15.665   9.046  32.754  1.00  0.00     0.040 A 
HETATM   11  C11 UNK     1      16.376  10.857  34.190  1.00  0.00     0.035 A 
HETATM   12  C12 UNK     1      15.398  10.254  33.397  1.00  0.00     0.026 A 
ENDROOT
BRANCH   5  13
HETATM   13  C4  UNK     1      18.461   5.360  31.632  1.00  0.00    -0.002 A 
HETATM   14  C10 UNK     1      18.891   5.359  30.303  1.00  0.00     0.015 A 
HETATM   15  C14 UNK     1      18.994   4.157  29.602  1.00  0.00     0.020 A 
HETATM   16  C15 UNK     1      18.669   2.953  30.228  1.00  0.00     0.011 A 
HETATM   17 Br1  UNK     1      18.811   1.326  29.279  1.00  0.00    -0.051 Br
HETATM   18  C13 UNK     1      18.241   2.952  31.556  1.00  0.00     0.020 A 
HETATM   19  C9  UNK     1      18.136   4.154  32.257  1.00  0.00     0.015 A 
ENDBRANCH   5  13
TORSDOF 1
ENDMDL
MODEL 2
REMARK VINA RESULT:      -7.5     11.339     14.246
REMARK  1 active torsions:
REMARK  status: ('A' for Active; 'I' for Inactive)
REMARK    1  A    between atoms: C2_6  and  C4_8 
ROOT
HETATM    1 Cl1  UNK     1      20.333 -10.640  37.119  1.00  0.00    -0.084 Cl
HETATM    2  O1  UNK     1      18.891  -4.962  36.603  1.00  0.00    -0.309 OA
HETATM    3  O2  UNK     1      22.529  -5.858  38.204  1.00  0.00    -0.287 OA
HETATM    4  C1  UNK     1      20.500  -6.648  37.285  1.00  0.00     0.050 A 
HETATM    5  C2  UNK     1      19.764  -3.971  37.025  1.00  0.00     0.090 A 
HETATM    6  C3  UNK     1      19.271  -6.273  36.745  1.00  0.00     0.090 A 
HETATM    7  C5  UNK     1      21.433  -5.600  37.724  1.00  0.00     0.187 A 
HETATM    8  C6  UNK     1      20.976  -4.206  37.554  1.00  0.00     0.093 A 
HETATM    9  C7  UNK     1      20.836  -8.000  37.404  1.00  0.00     0.042 A 
HETATM   10  C8  UNK     1      18.369  -7.247  36.319  1.00  0.00     0.040 A 
HETATM   11  C11 UNK     1      19.930  -8.972  36.979  1.00  0.00     0.035 A 
HETATM   12  C12 UNK     1      18.700  -8.597  36.437  1.00  0.00     0.026 A 
ENDROOT
BRANCH   5  13
HETATM   13  C4  UNK     1      19.258  -2.598  36.822  1.00  0.00    -0.002 A 
HETATM   14  C10 UNK     1      18.498  -1.977  37.816  1.00  0.00     0.015 A 
HETATM   15  C14 UNK     1      18.019  -0.681  37.624  1.00  0.00     0.020 A 
HETATM   16  C15 UNK     1      18.300  -0.002  36.438  1.00  0.00     0.011 A 
HETATM   17 Br1  UNK     1      17.653   1.754  36.179  1.00  0.00    -0.051 Br
HETATM   18  C13 UNK     1      19.059  -0.620  35.444  1.00  0.00     0.020 A 
HETATM   19  C9  UNK     1      19.537  -1.917  35.635  1.00  0.00     0.015 A 
ENDBRANCH   5  13
TORSDOF 1
ENDMDL
MODEL 3
REMARK VINA RESULT:      -7.4     17.111     18.293
REMARK  1 active torsions:
REMARK  status: ('A' for Active; 'I' for Inactive)
REMARK    1  A    between atoms: C2_6  and  C4_8 
ROOT
HETATM    1 Cl1  UNK     1      31.481  -5.058  38.697  1.00  0.00    -0.084 Cl
HETATM    2  O1  UNK     1      25.798  -6.569  38.593  1.00  0.00    -0.309 OA
HETATM    3  O2  UNK     1      28.558  -9.566  38.650  1.00  0.00    -0.287 OA
HETATM    4  C1  UNK     1      28.131  -7.242  38.636  1.00  0.00     0.050 A 
HETATM    5  C2  UNK     1      25.423  -7.905  38.579  1.00  0.00     0.090 A 
HETATM    6  C3  UNK     1      27.136  -6.266  38.616  1.00  0.00     0.090 A 
HETATM    7  C5  UNK     1      27.737  -8.659  38.631  1.00  0.00     0.187 A 
HETATM    8  C6  UNK     1      26.286  -8.933  38.602  1.00  0.00     0.093 A 
HETATM    9  C7  UNK     1      29.479  -6.875  38.660  1.00  0.00     0.042 A 
HETATM   10  C8  UNK     1      27.483  -4.916  38.622  1.00  0.00     0.040 A 
HETATM   11  C11 UNK     1      29.823  -5.523  38.665  1.00  0.00     0.035 A 
HETATM   12  C12 UNK     1      28.828  -4.545  38.646  1.00  0.00     0.026 A 
ENDROOT
BRANCH   5  13
HETATM   13  C4  UNK     1      23.961  -8.117  38.559  1.00  0.00    -0.002 A 
HETATM   14  C10 UNK     1      23.345  -8.642  37.421  1.00  0.00     0.015 A 
HETATM   15  C14 UNK     1      21.964  -8.842  37.402  1.00  0.00     0.020 A 
HETATM   16  C15 UNK     1      21.197  -8.520  38.522  1.00  0.00     0.011 A 
HETATM   17 Br1  UNK     1      19.328  -8.793  38.496  1.00  0.00    -0.051 Br
HETATM   18  C13 UNK     1      21.810  -7.997  39.660  1.00  0.00     0.020 A 
HETATM   19  C9  UNK     1      23.191  -7.795  39.679  1.00  0.00     0.015 A 
ENDBRANCH   5  13
TORSDOF 1
ENDMDL
MODEL 4
REMARK VINA RESULT:      -7.4      4.809      7.456
REMARK  1 active torsions:
REMARK  status: ('A' for Active; 'I' for Inactive)
REMARK    1  A    between atoms: C2_6  and  C4_8 
ROOT
HETATM    1 Cl1  UNK     1      18.516  -1.480  34.680  1.00  0.00    -0.084 Cl
HETATM    2  O1  UNK     1      18.540   4.401  34.596  1.00  0.00    -0.309 OA
HETATM    3  O2  UNK     1      17.757   2.456  31.102  1.00  0.00    -0.287 OA
HETATM    4  C1  UNK     1      18.265   2.302  33.404  1.00  0.00     0.050 A 
HETATM    5  C2  UNK     1      18.296   5.091  33.417  1.00  0.00     0.090 A 
HETATM    6  C3  UNK     1      18.525   3.029  34.565  1.00  0.00     0.090 A 
HETATM    7  C5  UNK     1      17.996   3.030  32.156  1.00  0.00     0.187 A 
HETATM    8  C6  UNK     1      18.027   4.504  32.240  1.00  0.00     0.093 A 
HETATM    9  C7  UNK     1      18.261   0.905  33.433  1.00  0.00     0.042 A 
HETATM   10  C8  UNK     1      18.782   2.363  35.763  1.00  0.00     0.040 A 
HETATM   11  C11 UNK     1      18.520   0.241  34.632  1.00  0.00     0.035 A 
HETATM   12  C12 UNK     1      18.779   0.969  35.795  1.00  0.00     0.026 A 
ENDROOT
BRANCH   5  13
HETATM   13  C4  UNK     1      18.331   6.560  33.564  1.00  0.00    -0.002 A 
HETATM   14  C10 UNK     1      17.263   7.336  33.108  1.00  0.00     0.015 A 
HETATM   15  C14 UNK     1      17.296   8.724  33.246  1.00  0.00     0.020 A 
HETATM   16  C15 UNK     1      18.398   9.340  33.842  1.00  0.00     0.011 A 
HETATM   17 Br1  UNK     1      18.442  11.219  34.029  1.00  0.00    -0.051 Br
HETATM   18  C13 UNK     1      19.465   8.567  34.299  1.00  0.00     0.020 A 
HETATM   19  C9  UNK     1      19.433   7.179  34.160  1.00  0.00     0.015 A 
ENDBRANCH   5  13
TORSDOF 1
ENDMDL
MODEL 5
REMARK VINA RESULT:      -7.4      4.794      7.719
REMARK  1 active torsions:
REMARK  status: ('A' for Active; 'I' for Inactive)
REMARK    1  A    between atoms: C2_6  and  C4_8 
ROOT
HETATM    1 Cl1  UNK     1      19.783  -1.325  29.236  1.00  0.00    -0.084 Cl
HETATM    2  O1  UNK     1      18.249   3.977  31.266  1.00  0.00    -0.309 OA
HETATM    3  O2  UNK     1      18.717   0.970  33.976  1.00  0.00    -0.287 OA
HETATM    4  C1  UNK     1      18.780   1.649  31.714  1.00  0.00     0.050 A 
HETATM    5  C2  UNK     1      18.046   4.181  32.623  1.00  0.00     0.090 A 
HETATM    6  C3  UNK     1      18.605   2.722  30.841  1.00  0.00     0.090 A 
HETATM    7  C5  UNK     1      18.577   1.865  33.154  1.00  0.00     0.187 A 
HETATM    8  C6  UNK     1      18.191   3.231  33.561  1.00  0.00     0.093 A 
HETATM    9  C7  UNK     1      19.145   0.393  31.224  1.00  0.00     0.042 A 
HETATM   10  C8  UNK     1      18.793   2.544  29.470  1.00  0.00     0.040 A 
HETATM   11  C11 UNK     1      19.332   0.218  29.852  1.00  0.00     0.035 A 
HETATM   12  C12 UNK     1      19.157   1.291  28.977  1.00  0.00     0.026 A 
ENDROOT
BRANCH   5  13
HETATM   13  C4  UNK     1      17.672   5.567  32.972  1.00  0.00    -0.002 A 
HETATM   14  C10 UNK     1      18.381   6.258  33.957  1.00  0.00     0.015 A 
HETATM   15  C14 UNK     1      18.027   7.567  34.287  1.00  0.00     0.020 A 
HETATM   16  C15 UNK     1      16.964   8.189  33.631  1.00  0.00     0.011 A 
HETATM   17 Br1  UNK     1      16.487   9.961  34.077  1.00  0.00    -0.051 Br
HETATM   18  C13 UNK     1      16.255   7.501  32.646  1.00  0.00     0.020 A 
HETATM   19  C9  UNK     1      16.608   6.192  32.317  1.00  0.00     0.015 A 
ENDBRANCH   5  13
TORSDOF 1
ENDMDL
MODEL 6
REMARK VINA RESULT:      -7.2      4.778      7.671
REMARK  1 active torsions:
REMARK  status: ('A' for Active; 'I' for Inactive)
REMARK    1  A    between atoms: C2_6  and  C4_8 
ROOT
HETATM    1 Cl1  UNK     1      19.485  -1.828  31.765  1.00  0.00    -0.084 Cl
HETATM    2  O1  UNK     1      17.879   3.625  33.273  1.00  0.00    -0.309 OA
HETATM    3  O2  UNK     1      19.029   2.984  29.418  1.00  0.00    -0.287 OA
HETATM    4  C1  UNK     1      18.669   2.082  31.572  1.00  0.00     0.050 A 
HETATM    5  C2  UNK     1      17.905   4.652  32.341  1.00  0.00     0.090 A 
HETATM    6  C3  UNK     1      18.264   2.370  32.874  1.00  0.00     0.090 A 
HETATM    7  C5  UNK     1      18.688   3.166  30.578  1.00  0.00     0.187 A 
HETATM    8  C6  UNK     1      18.269   4.498  31.058  1.00  0.00     0.093 A 
HETATM    9  C7  UNK     1      19.049   0.784  31.221  1.00  0.00     0.042 A 
HETATM   10  C8  UNK     1      18.235   1.359  33.836  1.00  0.00     0.040 A 
HETATM   11  C11 UNK     1      19.021  -0.224  32.185  1.00  0.00     0.035 A 
HETATM   12  C12 UNK     1      18.614   0.063  33.489  1.00  0.00     0.026 A 
ENDROOT
BRANCH   5  13
HETATM   13  C4  UNK     1      17.468   5.958  32.875  1.00  0.00    -0.002 A 
HETATM   14  C10 UNK     1      18.186   6.570  33.905  1.00  0.00     0.015 A 
HETATM   15  C14 UNK     1      17.773   7.804  34.409  1.00  0.00     0.020 A 
HETATM   16  C15 UNK     1      16.641   8.429  33.884  1.00  0.00     0.011 A 
HETATM   17 Br1  UNK     1      16.082  10.099  34.566  1.00  0.00    -0.051 Br
HETATM   18  C13 UNK     1      15.922   7.819  32.855  1.00  0.00     0.020 A 
HETATM   19  C9  UNK     1      16.334   6.585  32.352  1.00  0.00     0.015 A 
ENDBRANCH   5  13
TORSDOF 1
ENDMDL
MODEL 7
REMARK VINA RESULT:      -7.2      9.084     11.695
REMARK  1 active torsions:
REMARK  status: ('A' for Active; 'I' for Inactive)
REMARK    1  A    between atoms: C2_6  and  C4_8 
ROOT
HETATM    1 Cl1  UNK     1      19.072   0.805  30.785  1.00  0.00    -0.084 Cl
HETATM    2  O1  UNK     1      20.351  -3.422  34.669  1.00  0.00    -0.309 OA
HETATM    3  O2  UNK     1      17.773  -0.490  35.835  1.00  0.00    -0.287 OA
HETATM    4  C1  UNK     1      19.150  -1.380  34.133  1.00  0.00     0.050 A 
HETATM    5  C2  UNK     1      19.795  -3.404  35.940  1.00  0.00     0.090 A 
HETATM    6  C3  UNK     1      20.024  -2.413  33.798  1.00  0.00     0.090 A 
HETATM    7  C5  UNK     1      18.550  -1.364  35.476  1.00  0.00     0.187 A 
HETATM    8  C6  UNK     1      18.937  -2.469  36.376  1.00  0.00     0.093 A 
HETATM    9  C7  UNK     1      18.851  -0.380  33.205  1.00  0.00     0.042 A 
HETATM   10  C8  UNK     1      20.604  -2.453  32.531  1.00  0.00     0.040 A 
HETATM   11  C11 UNK     1      19.434  -0.421  31.938  1.00  0.00     0.035 A 
HETATM   12  C12 UNK     1      20.309  -1.456  31.602  1.00  0.00     0.026 A 
ENDROOT
BRANCH   5  13
HETATM   13  C4  UNK     1      20.211  -4.537  36.792  1.00  0.00    -0.002 A 
HETATM   14  C10 UNK     1      21.394  -4.460  37.532  1.00  0.00     0.015 A 
HETATM   15  C14 UNK     1      21.786  -5.530  38.336  1.00  0.00     0.020 A 
HETATM   16  C15 UNK     1      20.997  -6.679  38.405  1.00  0.00     0.011 A 
HETATM   17 Br1  UNK     1      21.529  -8.126  39.496  1.00  0.00    -0.051 Br
HETATM   18  C13 UNK     1      19.815  -6.757  37.668  1.00  0.00     0.020 A 
HETATM   19  C9  UNK     1      19.423  -5.688  36.862  1.00  0.00     0.015 A 
ENDBRANCH   5  13
TORSDOF 1
ENDMDL
MODEL 8
REMARK VINA RESULT:      -7.2      9.872     12.076
REMARK  1 active torsions:
REMARK  status: ('A' for Active; 'I' for Inactive)
REMARK    1  A    between atoms: C2_6  and  C4_8 
ROOT
HETATM    1 Cl1  UNK     1      18.343   2.179  35.696  1.00  0.00    -0.084 Cl
HETATM    2  O1  UNK     1      18.694  -3.490  37.222  1.00  0.00    -0.309 OA
HETATM    3  O2  UNK     1      20.925  -2.237  34.051  1.00  0.00    -0.287 OA
HETATM    4  C1  UNK     1      19.380  -1.683  35.751  1.00  0.00     0.050 A 
HETATM    5  C2  UNK     1      19.505  -4.363  36.512  1.00  0.00     0.090 A 
HETATM    6  C3  UNK     1      18.644  -2.177  36.827  1.00  0.00     0.090 A 
HETATM    7  C5  UNK     1      20.249  -2.603  35.003  1.00  0.00     0.187 A 
HETATM    8  C6  UNK     1      20.265  -4.006  35.464  1.00  0.00     0.093 A 
HETATM    9  C7  UNK     1      19.292  -0.335  35.395  1.00  0.00     0.042 A 
HETATM   10  C8  UNK     1      17.814  -1.325  37.555  1.00  0.00     0.040 A 
HETATM   11  C11 UNK     1      18.459   0.515  36.124  1.00  0.00     0.035 A 
HETATM   12  C12 UNK     1      17.723   0.022  37.202  1.00  0.00     0.026 A 
ENDROOT
BRANCH   5  13
HETATM   13  C4  UNK     1      19.488  -5.749  37.024  1.00  0.00    -0.002 A 
HETATM   14  C10 UNK     1      20.113  -6.057  38.234  1.00  0.00     0.015 A 
HETATM   15  C14 UNK     1      20.097  -7.366  38.717  1.00  0.00     0.020 A 
HETATM   16  C15 UNK     1      19.454  -8.370  37.992  1.00  0.00     0.011 A 
HETATM   17 Br1  UNK     1      19.432 -10.141  38.647  1.00  0.00    -0.051 Br
HETATM   18  C13 UNK     1      18.828  -8.064  36.783  1.00  0.00     0.020 A 
HETATM   19  C9  UNK     1      18.845  -6.756  36.299  1.00  0.00     0.015 A 
ENDBRANCH   5  13
TORSDOF 1
ENDMDL
MODEL 9
REMARK VINA RESULT:      -7.1     15.418     17.131
REMARK  1 active torsions:
REMARK  status: ('A' for Active; 'I' for Inactive)
REMARK    1  A    between atoms: C2_6  and  C4_8 
ROOT
HETATM    1 Cl1  UNK     1      16.623  -6.866  35.716  1.00  0.00    -0.084 Cl
HETATM    2  O1  UNK     1      22.337  -7.962  36.575  1.00  0.00    -0.309 OA
HETATM    3  O2  UNK     1      19.878  -8.051  39.823  1.00  0.00    -0.287 OA
HETATM    4  C1  UNK     1      20.101  -7.725  37.493  1.00  0.00     0.050 A 
HETATM    5  C2  UNK     1      22.821  -8.230  37.847  1.00  0.00     0.090 A 
HETATM    6  C3  UNK     1      20.996  -7.711  36.425  1.00  0.00     0.090 A 
HETATM    7  C5  UNK     1      20.608  -8.019  38.841  1.00  0.00     0.187 A 
HETATM    8  C6  UNK     1      22.058  -8.278  38.951  1.00  0.00     0.093 A 
HETATM    9  C7  UNK     1      18.745  -7.464  37.281  1.00  0.00     0.042 A 
HETATM   10  C8  UNK     1      20.541  -7.437  35.135  1.00  0.00     0.040 A 
HETATM   11  C11 UNK     1      18.292  -7.188  35.990  1.00  0.00     0.035 A 
HETATM   12  C12 UNK     1      19.188  -7.175  34.920  1.00  0.00     0.026 A 
ENDROOT
BRANCH   5  13
HETATM   13  C4  UNK     1      24.274  -8.490  37.893  1.00  0.00    -0.002 A 
HETATM   14  C10 UNK     1      24.868  -9.324  36.943  1.00  0.00     0.015 A 
HETATM   15  C14 UNK     1      26.241  -9.570  36.988  1.00  0.00     0.020 A 
HETATM   16  C15 UNK     1      27.023  -8.981  37.982  1.00  0.00     0.011 A 
HETATM   17 Br1  UNK     1      28.882  -9.313  38.041  1.00  0.00    -0.051 Br
HETATM   18  C13 UNK     1      26.432  -8.147  38.931  1.00  0.00     0.020 A 
HETATM   19  C9  UNK     1      25.060  -7.902  38.888  1.00  0.00     0.015 A 
ENDBRANCH   5  13
TORSDOF 1
ENDMDL
MODEL 10
REMARK VINA RESULT:      -7.1      9.712     12.585
REMARK  1 active torsions:
REMARK  status: ('A' for Active; 'I' for Inactive)
REMARK    1  A    between atoms: C2_6  and  C4_8 
ROOT
HETATM    1 Cl1  UNK     1      20.347  -8.093  39.183  1.00  0.00    -0.084 Cl
HETATM    2  O1  UNK     1      20.147  -4.453  34.569  1.00  0.00    -0.309 OA
HETATM    3  O2  UNK     1      20.116  -2.800  38.293  1.00  0.00    -0.287 OA
HETATM    4  C1  UNK     1      20.182  -4.762  36.977  1.00  0.00     0.050 A 
HETATM    5  C2  UNK     1      20.081  -3.080  34.755  1.00  0.00     0.090 A 
HETATM    6  C3  UNK     1      20.190  -5.262  35.676  1.00  0.00     0.090 A 
HETATM    7  C5  UNK     1      20.123  -3.306  37.179  1.00  0.00     0.187 A 
HETATM    8  C6  UNK     1      20.074  -2.480  35.956  1.00  0.00     0.093 A 
HETATM    9  C7  UNK     1      20.230  -5.633  38.069  1.00  0.00     0.042 A 
HETATM   10  C8  UNK     1      20.248  -6.638  35.457  1.00  0.00     0.040 A 
HETATM   11  C11 UNK     1      20.285  -7.010  37.847  1.00  0.00     0.035 A 
HETATM   12  C12 UNK     1      20.295  -7.511  36.544  1.00  0.00     0.026 A 
ENDROOT
BRANCH   5  13
HETATM   13  C4  UNK     1      20.043  -2.305  33.498  1.00  0.00    -0.002 A 
HETATM   14  C10 UNK     1      20.977  -2.557  32.491  1.00  0.00     0.015 A 
HETATM   15  C14 UNK     1      20.942  -1.824  31.304  1.00  0.00     0.020 A 
HETATM   16  C15 UNK     1      19.971  -0.839  31.121  1.00  0.00     0.011 A 
HETATM   17 Br1  UNK     1      19.922   0.152  29.513  1.00  0.00    -0.051 Br
HETATM   18  C13 UNK     1      19.036  -0.586  32.125  1.00  0.00     0.020 A 
HETATM   19  C9  UNK     1      19.072  -1.318  33.312  1.00  0.00     0.015 A 
ENDBRANCH   5  13
TORSDOF 1
ENDMDL
