MODEL 1
REMARK VINA RESULT:      -8.7      0.000      0.000
REMARK  1 active torsions:
REMARK  status: ('A' for Active; 'I' for Inactive)
REMARK    1  A    between atoms: C4_6  and  C6_8 
ROOT
HETATM    1  O1  UNK     1      18.553   0.483  32.523  1.00  0.00    -0.308 OA
HETATM    2  O2  UNK     1      20.666  -3.000  32.544  1.00  0.00    -0.287 OA
HETATM    3  C1  UNK     1      19.220   0.082  31.394  1.00  0.00     0.096 A 
HETATM    4  C2  UNK     1      19.960  -1.098  31.332  1.00  0.00     0.048 A 
HETATM    5  C3  UNK     1      19.137   0.911  30.276  1.00  0.00    -0.027 A 
HETATM    6  C4  UNK     1      18.612  -0.326  33.647  1.00  0.00     0.090 A 
HETATM    7  C5  UNK     1      20.033  -1.954  32.526  1.00  0.00     0.187 A 
HETATM    8  C7  UNK     1      19.296  -1.478  33.714  1.00  0.00     0.093 A 
HETATM    9  C8  UNK     1      20.620  -1.458  30.155  1.00  0.00     0.018 A 
HETATM   10  C9  UNK     1      19.794   0.556  29.097  1.00  0.00     0.009 A 
HETATM   11  C10 UNK     1      20.535  -0.626  29.037  1.00  0.00     0.002 A 
HETATM   12  C11 UNK     1      18.350   2.180  30.311  1.00  0.00     0.051 C 
ENDROOT
BRANCH   6  13
HETATM   13  C6  UNK     1      17.864   0.203  34.806  1.00  0.00    -0.002 A 
HETATM   14  C12 UNK     1      18.519   0.969  35.775  1.00  0.00     0.014 A 
HETATM   15  C14 UNK     1      17.813   1.467  36.869  1.00  0.00     0.001 A 
HETATM   16  C16 UNK     1      16.450   1.202  36.999  1.00  0.00     0.000 A 
HETATM   17  C15 UNK     1      15.793   0.437  36.036  1.00  0.00     0.001 A 
HETATM   18  C13 UNK     1      16.499  -0.062  34.941  1.00  0.00     0.014 A 
ENDBRANCH   6  13
TORSDOF 1
ENDMDL
MODEL 2
REMARK VINA RESULT:      -8.6      1.164      2.821
REMARK  1 active torsions:
REMARK  status: ('A' for Active; 'I' for Inactive)
REMARK    1  A    between atoms: C4_6  and  C6_8 
ROOT
HETATM    1  O1  UNK     1      19.039  -0.018  32.788  1.00  0.00    -0.308 OA
HETATM    2  O2  UNK     1      18.427   3.007  30.128  1.00  0.00    -0.287 OA
HETATM    3  C1  UNK     1      19.478  -0.146  31.495  1.00  0.00     0.096 A 
HETATM    4  C2  UNK     1      19.303   0.850  30.535  1.00  0.00     0.048 A 
HETATM    5  C3  UNK     1      20.123  -1.335  31.156  1.00  0.00    -0.027 A 
HETATM    6  C4  UNK     1      18.402   1.158  33.156  1.00  0.00     0.090 A 
HETATM    7  C5  UNK     1      18.618   2.094  30.920  1.00  0.00     0.187 A 
HETATM    8  C7  UNK     1      18.168   2.183  32.324  1.00  0.00     0.093 A 
HETATM    9  C8  UNK     1      19.770   0.666  29.233  1.00  0.00     0.018 A 
HETATM   10  C9  UNK     1      20.591  -1.524  29.855  1.00  0.00     0.009 A 
HETATM   11  C10 UNK     1      20.415  -0.525  28.896  1.00  0.00     0.002 A 
HETATM   12  C11 UNK     1      20.327  -2.419  32.163  1.00  0.00     0.051 C 
ENDROOT
BRANCH   6  13
HETATM   13  C6  UNK     1      17.966   1.187  34.568  1.00  0.00    -0.002 A 
HETATM   14  C12 UNK     1      18.737   1.849  35.527  1.00  0.00     0.014 A 
HETATM   15  C14 UNK     1      18.326   1.876  36.859  1.00  0.00     0.001 A 
HETATM   16  C16 UNK     1      17.143   1.241  37.237  1.00  0.00     0.000 A 
HETATM   17  C15 UNK     1      16.371   0.578  36.283  1.00  0.00     0.001 A 
HETATM   18  C13 UNK     1      16.782   0.551  34.950  1.00  0.00     0.014 A 
ENDBRANCH   6  13
TORSDOF 1
ENDMDL
MODEL 3
REMARK VINA RESULT:      -8.4     23.990     26.123
REMARK  1 active torsions:
REMARK  status: ('A' for Active; 'I' for Inactive)
REMARK    1  A    between atoms: C4_6  and  C6_8 
ROOT
HETATM    1  O1  UNK     1      13.448   7.443   8.525  1.00  0.00    -0.308 OA
HETATM    2  O2  UNK     1      15.427   4.102   9.759  1.00  0.00    -0.287 OA
HETATM    3  C1  UNK     1      14.679   7.558   9.117  1.00  0.00     0.096 A 
HETATM    4  C2  UNK     1      15.411   6.457   9.561  1.00  0.00     0.048 A 
HETATM    5  C3  UNK     1      15.195   8.845   9.269  1.00  0.00    -0.027 A 
HETATM    6  C4  UNK     1      12.913   6.175   8.353  1.00  0.00     0.090 A 
HETATM    7  C5  UNK     1      14.842   5.112   9.390  1.00  0.00     0.187 A 
HETATM    8  C7  UNK     1      13.515   5.042   8.744  1.00  0.00     0.093 A 
HETATM    9  C8  UNK     1      16.660   6.634  10.158  1.00  0.00     0.018 A 
HETATM   10  C9  UNK     1      16.444   9.026   9.865  1.00  0.00     0.009 A 
HETATM   11  C10 UNK     1      17.175   7.923  10.308  1.00  0.00     0.002 A 
HETATM   12  C11 UNK     1      14.436  10.043   8.801  1.00  0.00     0.051 C 
ENDROOT
BRANCH   6  13
HETATM   13  C6  UNK     1      11.583   6.167   7.711  1.00  0.00    -0.002 A 
HETATM   14  C12 UNK     1      11.474   6.198   6.319  1.00  0.00     0.014 A 
HETATM   15  C14 UNK     1      10.218   6.192   5.713  1.00  0.00     0.001 A 
HETATM   16  C16 UNK     1       9.066   6.154   6.498  1.00  0.00     0.000 A 
HETATM   17  C15 UNK     1       9.169   6.123   7.889  1.00  0.00     0.001 A 
HETATM   18  C13 UNK     1      10.426   6.130   8.495  1.00  0.00     0.014 A 
ENDBRANCH   6  13
TORSDOF 1
ENDMDL
MODEL 4
REMARK VINA RESULT:      -8.1      1.682      3.017
REMARK  1 active torsions:
REMARK  status: ('A' for Active; 'I' for Inactive)
REMARK    1  A    between atoms: C4_6  and  C6_8 
ROOT
HETATM    1  O1  UNK     1      19.341  -0.962  32.966  1.00  0.00    -0.308 OA
HETATM    2  O2  UNK     1      18.004   2.663  31.675  1.00  0.00    -0.287 OA
HETATM    3  C1  UNK     1      19.540  -0.586  31.663  1.00  0.00     0.096 A 
HETATM    4  C2  UNK     1      19.110   0.640  31.156  1.00  0.00     0.048 A 
HETATM    5  C3  UNK     1      20.203  -1.488  30.833  1.00  0.00    -0.027 A 
HETATM    6  C4  UNK     1      18.691  -0.081  33.817  1.00  0.00     0.090 A 
HETATM    7  C5  UNK     1      18.411   1.574  32.053  1.00  0.00     0.187 A 
HETATM    8  C7  UNK     1      18.225   1.122  33.447  1.00  0.00     0.093 A 
HETATM    9  C8  UNK     1      19.339   0.972  29.820  1.00  0.00     0.018 A 
HETATM   10  C9  UNK     1      20.434  -1.162  29.496  1.00  0.00     0.009 A 
HETATM   11  C10 UNK     1      20.004   0.066  28.991  1.00  0.00     0.002 A 
HETATM   12  C11 UNK     1      20.677  -2.808  31.348  1.00  0.00     0.051 C 
ENDROOT
BRANCH   6  13
HETATM   13  C6  UNK     1      18.525  -0.589  35.194  1.00  0.00    -0.002 A 
HETATM   14  C12 UNK     1      19.284  -1.674  35.639  1.00  0.00     0.014 A 
HETATM   15  C14 UNK     1      19.127  -2.154  36.939  1.00  0.00     0.001 A 
HETATM   16  C16 UNK     1      18.209  -1.550  37.798  1.00  0.00     0.000 A 
HETATM   17  C15 UNK     1      17.448  -0.467  37.358  1.00  0.00     0.001 A 
HETATM   18  C13 UNK     1      17.606   0.013  36.058  1.00  0.00     0.014 A 
ENDBRANCH   6  13
TORSDOF 1
ENDMDL
MODEL 5
REMARK VINA RESULT:      -8.1      3.071      6.368
REMARK  1 active torsions:
REMARK  status: ('A' for Active; 'I' for Inactive)
REMARK    1  A    between atoms: C4_6  and  C6_8 
ROOT
HETATM    1  O1  UNK     1      18.891   3.460  30.880  1.00  0.00    -0.308 OA
HETATM    2  O2  UNK     1      17.899   2.661  34.750  1.00  0.00    -0.287 OA
HETATM    3  C1  UNK     1      18.579   4.489  31.731  1.00  0.00     0.096 A 
HETATM    4  C2  UNK     1      18.233   4.286  33.067  1.00  0.00     0.048 A 
HETATM    5  C3  UNK     1      18.618   5.781  31.210  1.00  0.00    -0.027 A 
HETATM    6  C4  UNK     1      18.869   2.164  31.373  1.00  0.00     0.090 A 
HETATM    7  C5  UNK     1      18.198   2.912  33.590  1.00  0.00     0.187 A 
HETATM    8  C7  UNK     1      18.545   1.841  32.634  1.00  0.00     0.093 A 
HETATM    9  C8  UNK     1      17.924   5.371  33.889  1.00  0.00     0.018 A 
HETATM   10  C9  UNK     1      18.310   6.869  32.028  1.00  0.00     0.009 A 
HETATM   11  C10 UNK     1      17.964   6.664  33.364  1.00  0.00     0.002 A 
HETATM   12  C11 UNK     1      18.988   6.030  29.784  1.00  0.00     0.051 C 
ENDROOT
BRANCH   6  13
HETATM   13  C6  UNK     1      19.215   1.135  30.371  1.00  0.00    -0.002 A 
HETATM   14  C12 UNK     1      18.554   1.103  29.140  1.00  0.00     0.014 A 
HETATM   15  C14 UNK     1      18.880   0.131  28.195  1.00  0.00     0.001 A 
HETATM   16  C16 UNK     1      19.868  -0.812  28.477  1.00  0.00     0.000 A 
HETATM   17  C15 UNK     1      20.530  -0.784  29.705  1.00  0.00     0.001 A 
HETATM   18  C13 UNK     1      20.204   0.188  30.651  1.00  0.00     0.014 A 
ENDBRANCH   6  13
TORSDOF 1
ENDMDL
MODEL 6
REMARK VINA RESULT:      -8.0      2.713      4.331
REMARK  1 active torsions:
REMARK  status: ('A' for Active; 'I' for Inactive)
REMARK    1  A    between atoms: C4_6  and  C6_8 
ROOT
HETATM    1  O1  UNK     1      18.009   3.588  33.476  1.00  0.00    -0.308 OA
HETATM    2  O2  UNK     1      19.091   1.663  30.053  1.00  0.00    -0.287 OA
HETATM    3  C1  UNK     1      18.308   4.312  32.351  1.00  0.00     0.096 A 
HETATM    4  C2  UNK     1      18.684   3.717  31.147  1.00  0.00     0.048 A 
HETATM    5  C3  UNK     1      18.226   5.700  32.446  1.00  0.00    -0.027 A 
HETATM    6  C4  UNK     1      18.074   2.204  33.409  1.00  0.00     0.090 A 
HETATM    7  C5  UNK     1      18.765   2.250  31.075  1.00  0.00     0.187 A 
HETATM    8  C7  UNK     1      18.430   1.517  32.313  1.00  0.00     0.093 A 
HETATM    9  C8  UNK     1      18.979   4.504  30.033  1.00  0.00     0.018 A 
HETATM   10  C9  UNK     1      18.519   6.491  31.335  1.00  0.00     0.009 A 
HETATM   11  C10 UNK     1      18.894   5.894  30.130  1.00  0.00     0.002 A 
HETATM   12  C11 UNK     1      17.824   6.366  33.722  1.00  0.00     0.051 C 
ENDROOT
BRANCH   6  13
HETATM   13  C6  UNK     1      17.738   1.525  34.677  1.00  0.00    -0.002 A 
HETATM   14  C12 UNK     1      16.873   0.427  34.678  1.00  0.00     0.014 A 
HETATM   15  C14 UNK     1      16.555  -0.213  35.875  1.00  0.00     0.001 A 
HETATM   16  C16 UNK     1      17.101   0.242  37.075  1.00  0.00     0.000 A 
HETATM   17  C15 UNK     1      17.964   1.337  37.079  1.00  0.00     0.001 A 
HETATM   18  C13 UNK     1      18.282   1.978  35.881  1.00  0.00     0.014 A 
ENDBRANCH   6  13
TORSDOF 1
ENDMDL
MODEL 7
REMARK VINA RESULT:      -7.9      7.389     10.011
REMARK  1 active torsions:
REMARK  status: ('A' for Active; 'I' for Inactive)
REMARK    1  A    between atoms: C4_6  and  C6_8 
ROOT
HETATM    1  O1  UNK     1      17.360   8.685  32.912  1.00  0.00    -0.308 OA
HETATM    2  O2  UNK     1      13.834   6.880  31.961  1.00  0.00    -0.287 OA
HETATM    3  C1  UNK     1      16.174   9.301  33.219  1.00  0.00     0.096 A 
HETATM    4  C2  UNK     1      14.932   8.738  32.923  1.00  0.00     0.048 A 
HETATM    5  C3  UNK     1      16.244  10.540  33.853  1.00  0.00    -0.027 A 
HETATM    6  C4  UNK     1      17.321   7.447  32.288  1.00  0.00     0.090 A 
HETATM    7  C5  UNK     1      14.887   7.430  32.253  1.00  0.00     0.187 A 
HETATM    8  C7  UNK     1      16.192   6.809  31.947  1.00  0.00     0.093 A 
HETATM    9  C8  UNK     1      13.755   9.410  33.259  1.00  0.00     0.018 A 
HETATM   10  C9  UNK     1      15.070  11.215  34.190  1.00  0.00     0.009 A 
HETATM   11  C10 UNK     1      13.828  10.651  33.894  1.00  0.00     0.002 A 
HETATM   12  C11 UNK     1      17.559  11.167  34.184  1.00  0.00     0.051 C 
ENDROOT
BRANCH   6  13
HETATM   13  C6  UNK     1      18.654   6.879  31.999  1.00  0.00    -0.002 A 
HETATM   14  C12 UNK     1      19.663   6.928  32.964  1.00  0.00     0.014 A 
HETATM   15  C14 UNK     1      20.921   6.392  32.690  1.00  0.00     0.001 A 
HETATM   16  C16 UNK     1      21.174   5.806  31.450  1.00  0.00     0.000 A 
HETATM   17  C15 UNK     1      20.170   5.757  30.483  1.00  0.00     0.001 A 
HETATM   18  C13 UNK     1      18.911   6.292  30.757  1.00  0.00     0.014 A 
ENDBRANCH   6  13
TORSDOF 1
ENDMDL
MODEL 8
REMARK VINA RESULT:      -7.8      1.846      6.312
REMARK  1 active torsions:
REMARK  status: ('A' for Active; 'I' for Inactive)
REMARK    1  A    between atoms: C4_6  and  C6_8 
ROOT
HETATM    1  O1  UNK     1      19.355  -1.352  33.845  1.00  0.00    -0.308 OA
HETATM    2  O2  UNK     1      17.355   1.963  35.115  1.00  0.00    -0.287 OA
HETATM    3  C1  UNK     1      18.970  -1.247  35.157  1.00  0.00     0.096 A 
HETATM    4  C2  UNK     1      18.282  -0.142  35.657  1.00  0.00     0.048 A 
HETATM    5  C3  UNK     1      19.296  -2.307  36.003  1.00  0.00    -0.027 A 
HETATM    6  C4  UNK     1      19.038  -0.317  32.979  1.00  0.00     0.090 A 
HETATM    7  C5  UNK     1      17.953   0.962  34.744  1.00  0.00     0.187 A 
HETATM    8  C7  UNK     1      18.387   0.799  33.341  1.00  0.00     0.093 A 
HETATM    9  C8  UNK     1      17.916  -0.089  37.003  1.00  0.00     0.018 A 
HETATM   10  C9  UNK     1      18.931  -2.258  37.349  1.00  0.00     0.009 A 
HETATM   11  C10 UNK     1      18.242  -1.151  37.848  1.00  0.00     0.002 A 
HETATM   12  C11 UNK     1      20.030  -3.505  35.495  1.00  0.00     0.051 C 
ENDROOT
BRANCH   6  13
HETATM   13  C6  UNK     1      19.504  -0.530  31.593  1.00  0.00    -0.002 A 
HETATM   14  C12 UNK     1      19.969  -1.785  31.194  1.00  0.00     0.014 A 
HETATM   15  C14 UNK     1      20.410  -1.986  29.886  1.00  0.00     0.001 A 
HETATM   16  C16 UNK     1      20.387  -0.931  28.973  1.00  0.00     0.000 A 
HETATM   17  C15 UNK     1      19.924   0.324  29.368  1.00  0.00     0.001 A 
HETATM   18  C13 UNK     1      19.483   0.525  30.676  1.00  0.00     0.014 A 
ENDBRANCH   6  13
TORSDOF 1
ENDMDL
MODEL 9
REMARK VINA RESULT:      -7.7      2.389      4.755
REMARK  1 active torsions:
REMARK  status: ('A' for Active; 'I' for Inactive)
REMARK    1  A    between atoms: C4_6  and  C6_8 
ROOT
HETATM    1  O1  UNK     1      19.156   1.798  31.044  1.00  0.00    -0.308 OA
HETATM    2  O2  UNK     1      17.963   0.419  34.687  1.00  0.00    -0.287 OA
HETATM    3  C1  UNK     1      19.316   0.473  31.358  1.00  0.00     0.096 A 
HETATM    4  C2  UNK     1      18.928  -0.065  32.585  1.00  0.00     0.048 A 
HETATM    5  C3  UNK     1      19.894  -0.347  30.390  1.00  0.00    -0.027 A 
HETATM    6  C4  UNK     1      18.577   2.636  31.985  1.00  0.00     0.090 A 
HETATM    7  C5  UNK     1      18.322   0.823  33.589  1.00  0.00     0.187 A 
HETATM    8  C7  UNK     1      18.171   2.239  33.200  1.00  0.00     0.093 A 
HETATM    9  C8  UNK     1      19.115  -1.422  32.852  1.00  0.00     0.018 A 
HETATM   10  C9  UNK     1      20.082  -1.704  30.651  1.00  0.00     0.009 A 
HETATM   11  C10 UNK     1      19.694  -2.241  31.880  1.00  0.00     0.002 A 
HETATM   12  C11 UNK     1      20.317   0.200  29.065  1.00  0.00     0.051 C 
ENDROOT
BRANCH   6  13
HETATM   13  C6  UNK     1      18.458   4.041  31.545  1.00  0.00    -0.002 A 
HETATM   14  C12 UNK     1      19.073   4.461  30.363  1.00  0.00     0.014 A 
HETATM   15  C14 UNK     1      18.962   5.788  29.949  1.00  0.00     0.001 A 
HETATM   16  C16 UNK     1      18.236   6.699  30.715  1.00  0.00     0.000 A 
HETATM   17  C15 UNK     1      17.622   6.284  31.897  1.00  0.00     0.001 A 
HETATM   18  C13 UNK     1      17.733   4.957  32.311  1.00  0.00     0.014 A 
ENDBRANCH   6  13
TORSDOF 1
ENDMDL
MODEL 10
REMARK VINA RESULT:      -7.5     13.457     15.597
REMARK  1 active torsions:
REMARK  status: ('A' for Active; 'I' for Inactive)
REMARK    1  A    between atoms: C4_6  and  C6_8 
ROOT
HETATM    1  O1  UNK     1      31.038  -6.946  37.583  1.00  0.00    -0.308 OA
HETATM    2  O2  UNK     1      28.710  -4.192  39.478  1.00  0.00    -0.287 OA
HETATM    3  C1  UNK     1      29.911  -7.349  38.252  1.00  0.00     0.096 A 
HETATM    4  C2  UNK     1      29.069  -6.459  38.919  1.00  0.00     0.048 A 
HETATM    5  C3  UNK     1      29.620  -8.712  38.246  1.00  0.00    -0.027 A 
HETATM    6  C4  UNK     1      31.348  -5.594  37.564  1.00  0.00     0.090 A 
HETATM    7  C5  UNK     1      29.401  -5.026  38.910  1.00  0.00     0.187 A 
HETATM    8  C7  UNK     1      30.623  -4.645  38.174  1.00  0.00     0.093 A 
HETATM    9  C8  UNK     1      27.934  -6.926  39.585  1.00  0.00     0.018 A 
HETATM   10  C9  UNK     1      28.486  -9.183  38.910  1.00  0.00     0.009 A 
HETATM   11  C10 UNK     1      27.645  -8.291  39.578  1.00  0.00     0.002 A 
HETATM   12  C11 UNK     1      30.501  -9.689  37.538  1.00  0.00     0.051 C 
ENDROOT
BRANCH   6  13
HETATM   13  C6  UNK     1      32.584  -5.273  36.822  1.00  0.00    -0.002 A 
HETATM   14  C12 UNK     1      33.763  -5.976  37.082  1.00  0.00     0.014 A 
HETATM   15  C14 UNK     1      34.929  -5.671  36.382  1.00  0.00     0.001 A 
HETATM   16  C16 UNK     1      34.922  -4.662  35.419  1.00  0.00     0.000 A 
HETATM   17  C15 UNK     1      33.747  -3.957  35.157  1.00  0.00     0.001 A 
HETATM   18  C13 UNK     1      32.580  -4.262  35.857  1.00  0.00     0.014 A 
ENDBRANCH   6  13
TORSDOF 1
ENDMDL
