MODEL 1
REMARK VINA RESULT:      -8.0      0.000      0.000
REMARK  4 active torsions:
REMARK  status: ('A' for Active; 'I' for Inactive)
REMARK    1  A    between atoms: C1_4  and  N1_3 
REMARK       I    between atoms: C9_12  and  N1_3 
REMARK    2  A    between atoms: C2_5  and  C7_10 
REMARK    3  A    between atoms: C8_11  and  C9_12 
REMARK    4  A    between atoms: C10_13  and  C11_14 
ROOT
HETATM    1  C1  UNK     1      17.375   7.162  32.532  1.00  0.00     0.034 A 
HETATM    2  C2  UNK     1      18.458   4.910  31.335  1.00  0.00    -0.036 A 
HETATM    3  C3  UNK     1      17.451   5.964  33.241  1.00  0.00     0.030 A 
HETATM    4  C4  UNK     1      17.845   7.227  31.220  1.00  0.00     0.030 A 
HETATM    5  C5  UNK     1      17.996   4.830  32.638  1.00  0.00     0.013 A 
HETATM    6  C6  UNK     1      18.390   6.093  30.618  1.00  0.00     0.013 A 
ENDROOT
BRANCH   2   7
HETATM    7  C7  UNK     1      19.036   3.714  30.698  1.00  0.00     0.012 C 
HETATM    8  C11 UNK     1      18.489   2.475  30.725  1.00  0.00     0.012 C 
BRANCH   8   9
HETATM    9  C10 UNK     1      19.049   1.298  30.079  1.00  0.00    -0.036 A 
HETATM   10  C13 UNK     1      18.645   0.949  28.790  1.00  0.00     0.011 A 
HETATM   11  C15 UNK     1      19.184  -0.179  28.172  1.00  0.00     0.001 A 
HETATM   12  C17 UNK     1      20.127  -0.958  28.842  1.00  0.00     0.000 A 
HETATM   13  C16 UNK     1      20.532  -0.609  30.131  1.00  0.00     0.001 A 
HETATM   14  C14 UNK     1      19.992   0.518  30.750  1.00  0.00     0.011 A 
ENDBRANCH   8   9
ENDBRANCH   2   7
BRANCH   1  15
HETATM   15  N1  UNK     1      16.832   8.297  33.135  1.00  0.00    -0.326 N 
HETATM   16  C9  UNK     1      17.502   9.315  33.833  1.00  0.00     0.236 C 
HETATM   17  O1  UNK     1      18.712   9.392  34.029  1.00  0.00    -0.272 OA
HETATM   18  H5  UNK     1      15.823   8.392  33.046  1.00  0.00     0.169 HD
BRANCH  16  19
HETATM   19  C8  UNK     1      16.548  10.384  34.341  1.00  0.00     0.146 C 
HETATM   20 Br1  UNK     1      14.903  10.138  33.315  1.00  0.00    -0.082 Br
HETATM   21  C12 UNK     1      17.063  11.794  34.118  1.00  0.00     0.032 C 
ENDBRANCH  16  19
ENDBRANCH   1  15
TORSDOF 4
ENDMDL
MODEL 2
REMARK VINA RESULT:      -8.0      1.482      1.914
REMARK  4 active torsions:
REMARK  status: ('A' for Active; 'I' for Inactive)
REMARK    1  A    between atoms: C1_4  and  N1_3 
REMARK       I    between atoms: C9_12  and  N1_3 
REMARK    2  A    between atoms: C2_5  and  C7_10 
REMARK    3  A    between atoms: C8_11  and  C9_12 
REMARK    4  A    between atoms: C10_13  and  C11_14 
ROOT
HETATM    1  C1  UNK     1      17.668   6.689  32.341  1.00  0.00     0.034 A 
HETATM    2  C2  UNK     1      18.588   4.346  31.184  1.00  0.00    -0.036 A 
HETATM    3  C3  UNK     1      18.271   6.723  31.085  1.00  0.00     0.030 A 
HETATM    4  C4  UNK     1      17.527   5.476  33.016  1.00  0.00     0.030 A 
HETATM    5  C5  UNK     1      18.735   5.543  30.502  1.00  0.00     0.013 A 
HETATM    6  C6  UNK     1      17.990   4.297  32.432  1.00  0.00     0.013 A 
ENDROOT
BRANCH   2   7
HETATM    7  C7  UNK     1      19.076   3.099  30.568  1.00  0.00     0.012 C 
HETATM    8  C11 UNK     1      18.933   1.861  31.098  1.00  0.00     0.012 C 
BRANCH   8   9
HETATM    9  C10 UNK     1      19.397   0.627  30.481  1.00  0.00    -0.036 A 
HETATM   10  C13 UNK     1      19.493   0.532  29.093  1.00  0.00     0.011 A 
HETATM   11  C15 UNK     1      19.939  -0.650  28.504  1.00  0.00     0.001 A 
HETATM   12  C17 UNK     1      20.291  -1.738  29.303  1.00  0.00     0.000 A 
HETATM   13  C16 UNK     1      20.197  -1.643  30.691  1.00  0.00     0.001 A 
HETATM   14  C14 UNK     1      19.749  -0.461  31.281  1.00  0.00     0.011 A 
ENDBRANCH   8   9
ENDBRANCH   2   7
BRANCH   1  15
HETATM   15  N1  UNK     1      17.202   7.869  32.923  1.00  0.00    -0.326 N 
HETATM   16  C9  UNK     1      16.239   8.762  32.425  1.00  0.00     0.236 C 
HETATM   17  O1  UNK     1      15.618   8.653  31.372  1.00  0.00    -0.272 OA
HETATM   18  H5  UNK     1      17.614   8.096  33.826  1.00  0.00     0.169 HD
BRANCH  16  19
HETATM   19  C8  UNK     1      16.010   9.936  33.363  1.00  0.00     0.146 C 
HETATM   20 Br1  UNK     1      17.780  10.412  34.038  1.00  0.00    -0.082 Br
HETATM   21  C12 UNK     1      15.111   9.590  34.536  1.00  0.00     0.032 C 
ENDBRANCH  16  19
ENDBRANCH   1  15
TORSDOF 4
ENDMDL
MODEL 3
REMARK VINA RESULT:      -8.0      0.160      1.536
REMARK  4 active torsions:
REMARK  status: ('A' for Active; 'I' for Inactive)
REMARK    1  A    between atoms: C1_4  and  N1_3 
REMARK       I    between atoms: C9_12  and  N1_3 
REMARK    2  A    between atoms: C2_5  and  C7_10 
REMARK    3  A    between atoms: C8_11  and  C9_12 
REMARK    4  A    between atoms: C10_13  and  C11_14 
ROOT
HETATM    1  C1  UNK     1      17.293   7.120  32.694  1.00  0.00     0.034 A 
HETATM    2  C2  UNK     1      18.414   4.901  31.471  1.00  0.00    -0.036 A 
HETATM    3  C3  UNK     1      17.726   7.198  31.371  1.00  0.00     0.030 A 
HETATM    4  C4  UNK     1      17.423   5.925  33.402  1.00  0.00     0.030 A 
HETATM    5  C5  UNK     1      18.292   6.081  30.756  1.00  0.00     0.013 A 
HETATM    6  C6  UNK     1      17.988   4.808  32.786  1.00  0.00     0.013 A 
ENDROOT
BRANCH   2   7
HETATM    7  C7  UNK     1      19.010   3.720  30.822  1.00  0.00     0.012 C 
HETATM    8  C11 UNK     1      18.436   2.495  30.755  1.00  0.00     0.012 C 
BRANCH   8   9
HETATM    9  C10 UNK     1      19.014   1.334  30.096  1.00  0.00    -0.036 A 
HETATM   10  C13 UNK     1      20.010   0.593  30.733  1.00  0.00     0.011 A 
HETATM   11  C15 UNK     1      20.562  -0.521  30.101  1.00  0.00     0.001 A 
HETATM   12  C17 UNK     1      20.117  -0.896  28.833  1.00  0.00     0.000 A 
HETATM   13  C16 UNK     1      19.121  -0.155  28.197  1.00  0.00     0.001 A 
HETATM   14  C14 UNK     1      18.570   0.960  28.828  1.00  0.00     0.011 A 
ENDBRANCH   8   9
ENDBRANCH   2   7
BRANCH   1  15
HETATM   15  N1  UNK     1      16.725   8.237  33.308  1.00  0.00    -0.326 N 
HETATM   16  C9  UNK     1      17.377   9.369  33.824  1.00  0.00     0.236 C 
HETATM   17  O1  UNK     1      18.585   9.584  33.815  1.00  0.00    -0.272 OA
HETATM   18  H5  UNK     1      15.710   8.221  33.379  1.00  0.00     0.169 HD
BRANCH  16  19
HETATM   19  C8  UNK     1      16.399  10.371  34.417  1.00  0.00     0.146 C 
HETATM   20 Br1  UNK     1      14.770  10.195  33.351  1.00  0.00    -0.082 Br
HETATM   21  C12 UNK     1      16.893  11.804  34.331  1.00  0.00     0.032 C 
ENDBRANCH  16  19
ENDBRANCH   1  15
TORSDOF 4
ENDMDL
MODEL 4
REMARK VINA RESULT:      -7.7      3.835      9.170
REMARK  4 active torsions:
REMARK  status: ('A' for Active; 'I' for Inactive)
REMARK    1  A    between atoms: C1_4  and  N1_3 
REMARK       I    between atoms: C9_12  and  N1_3 
REMARK    2  A    between atoms: C2_5  and  C7_10 
REMARK    3  A    between atoms: C8_11  and  C9_12 
REMARK    4  A    between atoms: C10_13  and  C11_14 
ROOT
HETATM    1  C1  UNK     1      18.919   4.028  30.869  1.00  0.00     0.034 A 
HETATM    2  C2  UNK     1      17.903   6.427  31.810  1.00  0.00    -0.036 A 
HETATM    3  C3  UNK     1      19.110   5.199  30.139  1.00  0.00     0.030 A 
HETATM    4  C4  UNK     1      18.216   4.063  32.074  1.00  0.00     0.030 A 
HETATM    5  C5  UNK     1      18.598   6.408  30.612  1.00  0.00     0.013 A 
HETATM    6  C6  UNK     1      17.705   5.272  32.547  1.00  0.00     0.013 A 
ENDROOT
BRANCH   2   7
HETATM    7  C7  UNK     1      17.363   7.703  32.312  1.00  0.00     0.012 C 
HETATM    8  C11 UNK     1      17.852   8.394  33.369  1.00  0.00     0.012 C 
BRANCH   8   9
HETATM    9  C10 UNK     1      17.332   9.664  33.853  1.00  0.00    -0.036 A 
HETATM   10  C13 UNK     1      18.167  10.779  33.926  1.00  0.00     0.011 A 
HETATM   11  C15 UNK     1      17.666  11.996  34.388  1.00  0.00     0.001 A 
HETATM   12  C17 UNK     1      16.331  12.099  34.776  1.00  0.00     0.000 A 
HETATM   13  C16 UNK     1      15.495  10.984  34.703  1.00  0.00     0.001 A 
HETATM   14  C14 UNK     1      15.995   9.767  34.242  1.00  0.00     0.011 A 
ENDBRANCH   8   9
ENDBRANCH   2   7
BRANCH   1  15
HETATM   15  N1  UNK     1      19.432   2.819  30.397  1.00  0.00    -0.326 N 
HETATM   16  C9  UNK     1      18.757   1.798  29.708  1.00  0.00     0.236 C 
HETATM   17  O1  UNK     1      17.573   1.795  29.385  1.00  0.00    -0.272 OA
HETATM   18  H5  UNK     1      20.424   2.674  30.572  1.00  0.00     0.169 HD
BRANCH  16  19
HETATM   19  C8  UNK     1      19.676   0.636  29.364  1.00  0.00     0.146 C 
HETATM   20 Br1  UNK     1      18.765  -0.336  27.935  1.00  0.00    -0.082 Br
HETATM   21  C12 UNK     1      19.905  -0.304  30.533  1.00  0.00     0.032 C 
ENDBRANCH  16  19
ENDBRANCH   1  15
TORSDOF 4
ENDMDL
MODEL 5
REMARK VINA RESULT:      -7.6     10.585     14.224
REMARK  4 active torsions:
REMARK  status: ('A' for Active; 'I' for Inactive)
REMARK    1  A    between atoms: C1_4  and  N1_3 
REMARK       I    between atoms: C9_12  and  N1_3 
REMARK    2  A    between atoms: C2_5  and  C7_10 
REMARK    3  A    between atoms: C8_11  and  C9_12 
REMARK    4  A    between atoms: C10_13  and  C11_14 
ROOT
HETATM    1  C1  UNK     1      20.732  -7.000  36.681  1.00  0.00     0.034 A 
HETATM    2  C2  UNK     1      20.140  -4.310  36.973  1.00  0.00    -0.036 A 
HETATM    3  C3  UNK     1      21.432  -6.229  37.608  1.00  0.00     0.030 A 
HETATM    4  C4  UNK     1      19.733  -6.417  35.901  1.00  0.00     0.030 A 
HETATM    5  C5  UNK     1      21.133  -4.874  37.755  1.00  0.00     0.013 A 
HETATM    6  C6  UNK     1      19.435  -5.063  36.048  1.00  0.00     0.013 A 
ENDROOT
BRANCH   2   7
HETATM    7  C7  UNK     1      19.822  -2.879  37.129  1.00  0.00     0.012 C 
HETATM    8  C11 UNK     1      18.829  -2.226  36.481  1.00  0.00     0.012 C 
BRANCH   8   9
HETATM    9  C10 UNK     1      18.502  -0.818  36.649  1.00  0.00    -0.036 A 
HETATM   10  C13 UNK     1      17.835  -0.387  37.795  1.00  0.00     0.011 A 
HETATM   11  C15 UNK     1      17.525   0.963  37.956  1.00  0.00     0.001 A 
HETATM   12  C17 UNK     1      17.883   1.883  36.970  1.00  0.00     0.000 A 
HETATM   13  C16 UNK     1      18.551   1.452  35.824  1.00  0.00     0.001 A 
HETATM   14  C14 UNK     1      18.861   0.102  35.663  1.00  0.00     0.011 A 
ENDBRANCH   8   9
ENDBRANCH   2   7
BRANCH   1  15
HETATM   15  N1  UNK     1      21.029  -8.356  36.536  1.00  0.00    -0.326 N 
HETATM   16  C9  UNK     1      21.322  -9.060  35.356  1.00  0.00     0.236 C 
HETATM   17  O1  UNK     1      21.381  -8.592  34.223  1.00  0.00    -0.272 OA
HETATM   18  H5  UNK     1      21.038  -8.890  37.402  1.00  0.00     0.169 HD
BRANCH  16  19
HETATM   19  C8  UNK     1      21.591 -10.532  35.621  1.00  0.00     0.146 C 
HETATM   20 Br1  UNK     1      20.614 -10.949  37.261  1.00  0.00    -0.082 Br
HETATM   21  C12 UNK     1      23.063 -10.837  35.833  1.00  0.00     0.032 C 
ENDBRANCH  16  19
ENDBRANCH   1  15
TORSDOF 4
ENDMDL
MODEL 6
REMARK VINA RESULT:      -7.5      3.809      9.096
REMARK  4 active torsions:
REMARK  status: ('A' for Active; 'I' for Inactive)
REMARK    1  A    between atoms: C1_4  and  N1_3 
REMARK       I    between atoms: C9_12  and  N1_3 
REMARK    2  A    between atoms: C2_5  and  C7_10 
REMARK    3  A    between atoms: C8_11  and  C9_12 
REMARK    4  A    between atoms: C10_13  and  C11_14 
ROOT
HETATM    1  C1  UNK     1      18.656   3.617  30.975  1.00  0.00     0.034 A 
HETATM    2  C2  UNK     1      18.260   6.258  31.712  1.00  0.00    -0.036 A 
HETATM    3  C3  UNK     1      19.203   4.644  30.208  1.00  0.00     0.030 A 
HETATM    4  C4  UNK     1      17.908   3.919  32.114  1.00  0.00     0.030 A 
HETATM    5  C5  UNK     1      19.003   5.975  30.579  1.00  0.00     0.013 A 
HETATM    6  C6  UNK     1      17.710   5.249  32.484  1.00  0.00     0.013 A 
ENDROOT
BRANCH   2   7
HETATM    7  C7  UNK     1      18.049   7.663  32.105  1.00  0.00     0.012 C 
HETATM    8  C11 UNK     1      17.820   8.093  33.369  1.00  0.00     0.012 C 
BRANCH   8   9
HETATM    9  C10 UNK     1      17.633   9.481  33.761  1.00  0.00    -0.036 A 
HETATM   10  C13 UNK     1      16.351   9.968  34.016  1.00  0.00     0.011 A 
HETATM   11  C15 UNK     1      16.173  11.299  34.393  1.00  0.00     0.001 A 
HETATM   12  C17 UNK     1      17.277  12.142  34.518  1.00  0.00     0.000 A 
HETATM   13  C16 UNK     1      18.559  11.655  34.264  1.00  0.00     0.001 A 
HETATM   14  C14 UNK     1      18.737  10.325  33.886  1.00  0.00     0.011 A 
ENDBRANCH   8   9
ENDBRANCH   2   7
BRANCH   1  15
HETATM   15  N1  UNK     1      18.857   2.287  30.605  1.00  0.00    -0.326 N 
HETATM   16  C9  UNK     1      18.561   1.672  29.378  1.00  0.00     0.236 C 
HETATM   17  O1  UNK     1      18.071   2.212  28.390  1.00  0.00    -0.272 OA
HETATM   18  H5  UNK     1      19.280   1.700  31.321  1.00  0.00     0.169 HD
BRANCH  16  19
HETATM   19  C8  UNK     1      18.933   0.198  29.372  1.00  0.00     0.146 C 
HETATM   20 Br1  UNK     1      20.545   0.069  30.470  1.00  0.00    -0.082 Br
HETATM   21  C12 UNK     1      19.238  -0.331  27.983  1.00  0.00     0.032 C 
ENDBRANCH  16  19
ENDBRANCH   1  15
TORSDOF 4
ENDMDL
MODEL 7
REMARK VINA RESULT:      -7.3      6.617      9.700
REMARK  4 active torsions:
REMARK  status: ('A' for Active; 'I' for Inactive)
REMARK    1  A    between atoms: C1_4  and  N1_3 
REMARK       I    between atoms: C9_12  and  N1_3 
REMARK    2  A    between atoms: C2_5  and  C7_10 
REMARK    3  A    between atoms: C8_11  and  C9_12 
REMARK    4  A    between atoms: C10_13  and  C11_14 
ROOT
HETATM    1  C1  UNK     1      18.638  -1.231  35.438  1.00  0.00     0.034 A 
HETATM    2  C2  UNK     1      18.361   1.342  34.448  1.00  0.00    -0.036 A 
HETATM    3  C3  UNK     1      18.589  -1.015  34.062  1.00  0.00     0.030 A 
HETATM    4  C4  UNK     1      18.548  -0.151  36.318  1.00  0.00     0.030 A 
HETATM    5  C5  UNK     1      18.449   0.280  33.563  1.00  0.00     0.013 A 
HETATM    6  C6  UNK     1      18.409   1.144  35.818  1.00  0.00     0.013 A 
ENDROOT
BRANCH   2   7
HETATM    7  C7  UNK     1      18.215   2.711  33.923  1.00  0.00     0.012 C 
HETATM    8  C11 UNK     1      18.391   3.073  32.630  1.00  0.00     0.012 C 
BRANCH   8   9
HETATM    9  C10 UNK     1      18.228   4.421  32.108  1.00  0.00    -0.036 A 
HETATM   10  C13 UNK     1      18.857   4.791  30.919  1.00  0.00     0.011 A 
HETATM   11  C15 UNK     1      18.698   6.083  30.419  1.00  0.00     0.001 A 
HETATM   12  C17 UNK     1      17.908   7.005  31.106  1.00  0.00     0.000 A 
HETATM   13  C16 UNK     1      17.277   6.635  32.294  1.00  0.00     0.001 A 
HETATM   14  C14 UNK     1      17.438   5.343  32.795  1.00  0.00     0.011 A 
ENDBRANCH   8   9
ENDBRANCH   2   7
BRANCH   1  15
HETATM   15  N1  UNK     1      18.780  -2.526  35.937  1.00  0.00    -0.326 N 
HETATM   16  C9  UNK     1      19.965  -3.252  36.147  1.00  0.00     0.236 C 
HETATM   17  O1  UNK     1      21.108  -2.859  35.934  1.00  0.00    -0.272 OA
HETATM   18  H5  UNK     1      17.909  -2.992  36.183  1.00  0.00     0.169 HD
BRANCH  16  19
HETATM   19  C8  UNK     1      19.694  -4.639  36.707  1.00  0.00     0.146 C 
HETATM   20 Br1  UNK     1      21.202  -5.022  37.889  1.00  0.00    -0.082 Br
HETATM   21  C12 UNK     1      19.624  -5.708  35.632  1.00  0.00     0.032 C 
ENDBRANCH  16  19
ENDBRANCH   1  15
TORSDOF 4
ENDMDL
MODEL 8
REMARK VINA RESULT:      -7.3      4.498      9.179
REMARK  4 active torsions:
REMARK  status: ('A' for Active; 'I' for Inactive)
REMARK    1  A    between atoms: C1_4  and  N1_3 
REMARK       I    between atoms: C9_12  and  N1_3 
REMARK    2  A    between atoms: C2_5  and  C7_10 
REMARK    3  A    between atoms: C8_11  and  C9_12 
REMARK    4  A    between atoms: C10_13  and  C11_14 
ROOT
HETATM    1  C1  UNK     1      18.579   1.700  32.143  1.00  0.00     0.034 A 
HETATM    2  C2  UNK     1      18.170   4.403  32.593  1.00  0.00    -0.036 A 
HETATM    3  C3  UNK     1      18.561   2.590  31.071  1.00  0.00     0.030 A 
HETATM    4  C4  UNK     1      18.392   2.170  33.444  1.00  0.00     0.030 A 
HETATM    5  C5  UNK     1      18.354   3.952  31.297  1.00  0.00     0.013 A 
HETATM    6  C6  UNK     1      18.186   3.531  33.669  1.00  0.00     0.013 A 
ENDROOT
BRANCH   2   7
HETATM    7  C7  UNK     1      17.954   5.841  32.835  1.00  0.00     0.012 C 
HETATM    8  C11 UNK     1      18.767   6.640  33.566  1.00  0.00     0.012 C 
BRANCH   8   9
HETATM    9  C10 UNK     1      18.565   8.063  33.787  1.00  0.00    -0.036 A 
HETATM   10  C13 UNK     1      19.646   8.880  34.119  1.00  0.00     0.011 A 
HETATM   11  C15 UNK     1      19.451  10.244  34.329  1.00  0.00     0.001 A 
HETATM   12  C17 UNK     1      18.175  10.794  34.206  1.00  0.00     0.000 A 
HETATM   13  C16 UNK     1      17.093   9.978  33.874  1.00  0.00     0.001 A 
HETATM   14  C14 UNK     1      17.288   8.613  33.665  1.00  0.00     0.011 A 
ENDBRANCH   8   9
ENDBRANCH   2   7
BRANCH   1  15
HETATM   15  N1  UNK     1      18.787   0.339  31.917  1.00  0.00    -0.326 N 
HETATM   16  C9  UNK     1      19.921  -0.288  31.374  1.00  0.00     0.236 C 
HETATM   17  O1  UNK     1      20.954   0.264  31.005  1.00  0.00    -0.272 OA
HETATM   18  H5  UNK     1      18.016  -0.266  32.191  1.00  0.00     0.169 HD
BRANCH  16  19
HETATM   19  C8  UNK     1      19.755  -1.797  31.291  1.00  0.00     0.146 C 
HETATM   20 Br1  UNK     1      20.687  -2.506  32.854  1.00  0.00    -0.082 Br
HETATM   21  C12 UNK     1      20.369  -2.392  30.037  1.00  0.00     0.032 C 
ENDBRANCH  16  19
ENDBRANCH   1  15
TORSDOF 4
ENDMDL
MODEL 9
REMARK VINA RESULT:      -7.2     10.722     14.176
REMARK  4 active torsions:
REMARK  status: ('A' for Active; 'I' for Inactive)
REMARK    1  A    between atoms: C1_4  and  N1_3 
REMARK       I    between atoms: C9_12  and  N1_3 
REMARK    2  A    between atoms: C2_5  and  C7_10 
REMARK    3  A    between atoms: C8_11  and  C9_12 
REMARK    4  A    between atoms: C10_13  and  C11_14 
ROOT
HETATM    1  C1  UNK     1      20.702  -6.697  37.225  1.00  0.00     0.034 A 
HETATM    2  C2  UNK     1      20.128  -4.003  36.929  1.00  0.00    -0.036 A 
HETATM    3  C3  UNK     1      21.470  -5.743  37.892  1.00  0.00     0.030 A 
HETATM    4  C4  UNK     1      19.644  -6.295  36.409  1.00  0.00     0.030 A 
HETATM    5  C5  UNK     1      21.181  -4.387  37.742  1.00  0.00     0.013 A 
HETATM    6  C6  UNK     1      19.356  -4.939  36.260  1.00  0.00     0.013 A 
ENDROOT
BRANCH   2   7
HETATM    7  C7  UNK     1      19.820  -2.570  36.771  1.00  0.00     0.012 C 
HETATM    8  C11 UNK     1      18.585  -2.023  36.864  1.00  0.00     0.012 C 
BRANCH   8   9
HETATM    9  C10 UNK     1      18.284  -0.606  36.729  1.00  0.00    -0.036 A 
HETATM   10  C13 UNK     1      18.818   0.124  35.666  1.00  0.00     0.011 A 
HETATM   11  C15 UNK     1      18.527   1.481  35.537  1.00  0.00     0.001 A 
HETATM   12  C17 UNK     1      17.700   2.109  36.469  1.00  0.00     0.000 A 
HETATM   13  C16 UNK     1      17.166   1.380  37.531  1.00  0.00     0.001 A 
HETATM   14  C14 UNK     1      17.458   0.022  37.661  1.00  0.00     0.011 A 
ENDBRANCH   8   9
ENDBRANCH   2   7
BRANCH   1  15
HETATM   15  N1  UNK     1      20.989  -8.054  37.377  1.00  0.00    -0.326 N 
HETATM   16  C9  UNK     1      21.494  -8.948  36.418  1.00  0.00     0.236 C 
HETATM   17  O1  UNK     1      21.787  -8.682  35.255  1.00  0.00    -0.272 OA
HETATM   18  H5  UNK     1      20.814  -8.431  38.306  1.00  0.00     0.169 HD
BRANCH  16  19
HETATM   19  C8  UNK     1      21.671 -10.349  36.979  1.00  0.00     0.146 C 
HETATM   20 Br1  UNK     1      22.788 -11.289  35.681  1.00  0.00    -0.082 Br
HETATM   21  C12 UNK     1      20.358 -11.095  37.133  1.00  0.00     0.032 C 
ENDBRANCH  16  19
ENDBRANCH   1  15
TORSDOF 4
ENDMDL
MODEL 10
REMARK VINA RESULT:      -7.1      3.886      9.029
REMARK  4 active torsions:
REMARK  status: ('A' for Active; 'I' for Inactive)
REMARK    1  A    between atoms: C1_4  and  N1_3 
REMARK       I    between atoms: C9_12  and  N1_3 
REMARK    2  A    between atoms: C2_5  and  C7_10 
REMARK    3  A    between atoms: C8_11  and  C9_12 
REMARK    4  A    between atoms: C10_13  and  C11_14 
ROOT
HETATM    1  C1  UNK     1      18.964   3.498  30.701  1.00  0.00     0.034 A 
HETATM    2  C2  UNK     1      18.029   5.901  31.713  1.00  0.00    -0.036 A 
HETATM    3  C3  UNK     1      19.223   4.688  30.022  1.00  0.00     0.030 A 
HETATM    4  C4  UNK     1      18.235   3.517  31.890  1.00  0.00     0.030 A 
HETATM    5  C5  UNK     1      18.751   5.898  30.532  1.00  0.00     0.013 A 
HETATM    6  C6  UNK     1      17.765   4.728  32.400  1.00  0.00     0.013 A 
ENDROOT
BRANCH   2   7
HETATM    7  C7  UNK     1      17.532   7.179  32.254  1.00  0.00     0.012 C 
HETATM    8  C11 UNK     1      16.511   7.309  33.134  1.00  0.00     0.012 C 
BRANCH   8   9
HETATM    9  C10 UNK     1      16.033   8.569  33.683  1.00  0.00    -0.036 A 
HETATM   10  C13 UNK     1      16.918   9.631  33.868  1.00  0.00     0.011 A 
HETATM   11  C15 UNK     1      16.458  10.839  34.393  1.00  0.00     0.001 A 
HETATM   12  C17 UNK     1      15.113  10.985  34.731  1.00  0.00     0.000 A 
HETATM   13  C16 UNK     1      14.227   9.923  34.545  1.00  0.00     0.001 A 
HETATM   14  C14 UNK     1      14.687   8.715  34.022  1.00  0.00     0.011 A 
ENDBRANCH   8   9
ENDBRANCH   2   7
BRANCH   1  15
HETATM   15  N1  UNK     1      19.438   2.288  30.192  1.00  0.00    -0.326 N 
HETATM   16  C9  UNK     1      19.459   1.031  30.819  1.00  0.00     0.236 C 
HETATM   17  O1  UNK     1      19.047   0.770  31.945  1.00  0.00    -0.272 OA
HETATM   18  H5  UNK     1      19.804   2.333  29.244  1.00  0.00     0.169 HD
BRANCH  16  19
HETATM   19  C8  UNK     1      20.059  -0.043  29.926  1.00  0.00     0.146 C 
HETATM   20 Br1  UNK     1      18.971  -0.031  28.303  1.00  0.00    -0.082 Br
HETATM   21  C12 UNK     1      20.006  -1.427  30.546  1.00  0.00     0.032 C 
ENDBRANCH  16  19
ENDBRANCH   1  15
TORSDOF 4
ENDMDL
