MODEL 1
REMARK VINA RESULT:     -11.3      0.000      0.000
REMARK  5 active torsions:
REMARK  status: ('A' for Active; 'I' for Inactive)
REMARK    1  A    between atoms: C1_9  and  N1_7 
REMARK       I    between atoms: C4_12  and  N1_7 
REMARK    2  A    between atoms: C2_10  and  N2_8 
REMARK       I    between atoms: C6_14  and  N2_8 
REMARK    3  A    between atoms: C1_9  and  C2_10 
REMARK    4  A    between atoms: C4_12  and  C5_13 
REMARK    5  A    between atoms: C6_14  and  C7_15 
ROOT
HETATM    1  C1  UNK     1      18.424  -1.757  36.974  1.00  0.00     0.098 C 
HETATM    2  C3  UNK     1      17.909  -0.603  37.829  1.00  0.00     0.034 C 
ENDROOT
BRANCH   1   3
HETATM    3  N1  UNK     1      18.732  -1.302  35.639  1.00  0.00    -0.351 N 
HETATM    4  C4  UNK     1      17.760  -0.924  34.734  1.00  0.00     0.258 C 
HETATM    5  O3  UNK     1      16.547  -0.919  34.920  1.00  0.00    -0.267 OA
HETATM    6  H4  UNK     1      19.705  -1.339  35.350  1.00  0.00     0.163 HD
BRANCH   4   7
HETATM    7  C5  UNK     1      18.322  -0.495  33.440  1.00  0.00     0.108 A 
HETATM    8  C14 UNK     1      18.220   0.903  32.964  1.00  0.00     0.304 A 
HETATM    9  O1  UNK     1      18.790   1.185  31.726  1.00  0.00    -0.274 OA
HETATM   10  O5  UNK     1      17.661   1.772  33.624  1.00  0.00    -0.259 OA
HETATM   11  C12 UNK     1      19.435   0.193  30.962  1.00  0.00     0.089 A 
HETATM   12  C8  UNK     1      19.520  -1.115  31.427  1.00  0.00    -0.001 A 
HETATM   13  C18 UNK     1      19.977   0.572  29.735  1.00  0.00     0.038 A 
HETATM   14  C16 UNK     1      20.166  -2.070  30.640  1.00  0.00     0.014 A 
HETATM   15  C9  UNK     1      18.933  -1.442  32.718  1.00  0.00     0.037 A 
HETATM   16  C20 UNK     1      20.715  -1.706  29.407  1.00  0.00     0.001 A 
HETATM   17  C21 UNK     1      20.619  -0.387  28.955  1.00  0.00     0.003 A 
ENDBRANCH   4   7
ENDBRANCH   1   3
BRANCH   1  18
HETATM   18  C2  UNK     1      19.624  -2.467  37.603  1.00  0.00     0.147 C 
BRANCH  18  19
HETATM   19  N2  UNK     1      19.535  -3.909  37.528  1.00  0.00    -0.355 N 
HETATM   20  C6  UNK     1      19.836  -4.624  36.384  1.00  0.00     0.257 C 
HETATM   21  O4  UNK     1      20.206  -4.153  35.309  1.00  0.00    -0.267 OA
HETATM   22  H8  UNK     1      19.216  -4.390  38.363  1.00  0.00     0.162 HD
BRANCH  20  23
HETATM   23  C7  UNK     1      19.673  -6.072  36.556  1.00  0.00     0.108 A 
HETATM   24  C11 UNK     1      20.790  -6.806  36.483  1.00  0.00     0.037 A 
HETATM   25  C10 UNK     1      20.729  -8.250  36.640  1.00  0.00    -0.001 A 
HETATM   26  C13 UNK     1      19.495  -8.852  36.867  1.00  0.00     0.089 A 
HETATM   27  C17 UNK     1      21.869  -9.056  36.573  1.00  0.00     0.014 A 
HETATM   28  O2  UNK     1      18.324  -8.074  36.943  1.00  0.00    -0.274 OA
HETATM   29  C19 UNK     1      19.369 -10.230  37.026  1.00  0.00     0.038 A 
HETATM   30  C15 UNK     1      18.350  -6.690  36.796  1.00  0.00     0.304 A 
HETATM   31  O6  UNK     1      17.325  -6.021  36.862  1.00  0.00    -0.259 OA
HETATM   32  C23 UNK     1      20.510 -11.026  36.956  1.00  0.00     0.003 A 
HETATM   33  C22 UNK     1      21.758 -10.440  36.730  1.00  0.00     0.001 A 
ENDBRANCH  20  23
ENDBRANCH  18  19
ENDBRANCH   1  18
TORSDOF 5
ENDMDL
MODEL 2
REMARK VINA RESULT:     -10.5      1.041      1.805
REMARK  5 active torsions:
REMARK  status: ('A' for Active; 'I' for Inactive)
REMARK    1  A    between atoms: C1_9  and  N1_7 
REMARK       I    between atoms: C4_12  and  N1_7 
REMARK    2  A    between atoms: C2_10  and  N2_8 
REMARK       I    between atoms: C6_14  and  N2_8 
REMARK    3  A    between atoms: C1_9  and  C2_10 
REMARK    4  A    between atoms: C4_12  and  C5_13 
REMARK    5  A    between atoms: C6_14  and  C7_15 
ROOT
HETATM    1  C1  UNK     1      18.571  -2.218  36.822  1.00  0.00     0.098 C 
HETATM    2  C3  UNK     1      19.875  -2.361  37.602  1.00  0.00     0.034 C 
ENDROOT
BRANCH   1   3
HETATM    3  N1  UNK     1      18.824  -1.692  35.502  1.00  0.00    -0.351 N 
HETATM    4  C4  UNK     1      17.937  -0.864  34.843  1.00  0.00     0.258 C 
HETATM    5  O3  UNK     1      16.854  -0.469  35.262  1.00  0.00    -0.267 OA
HETATM    6  H4  UNK     1      19.661  -2.017  35.027  1.00  0.00     0.163 HD
BRANCH   4   7
HETATM    7  C5  UNK     1      18.419  -0.457  33.511  1.00  0.00     0.108 A 
HETATM    8  C14 UNK     1      18.243   0.921  32.998  1.00  0.00     0.304 A 
HETATM    9  O1  UNK     1      18.742   1.183  31.725  1.00  0.00    -0.274 OA
HETATM   10  O5  UNK     1      17.685   1.791  33.658  1.00  0.00    -0.259 OA
HETATM   11  C12 UNK     1      19.385   0.191  30.961  1.00  0.00     0.089 A 
HETATM   12  C8  UNK     1      19.540  -1.098  31.461  1.00  0.00    -0.001 A 
HETATM   13  C18 UNK     1      19.853   0.549  29.697  1.00  0.00     0.038 A 
HETATM   14  C16 UNK     1      20.183  -2.054  30.672  1.00  0.00     0.014 A 
HETATM   15  C9  UNK     1      19.029  -1.404  32.788  1.00  0.00     0.037 A 
HETATM   16  C20 UNK     1      20.657  -1.711  29.403  1.00  0.00     0.001 A 
HETATM   17  C21 UNK     1      20.491  -0.411  28.916  1.00  0.00     0.003 A 
ENDBRANCH   4   7
ENDBRANCH   1   3
BRANCH   1  18
HETATM   18  C2  UNK     1      17.779  -3.524  36.752  1.00  0.00     0.147 C 
BRANCH  18  19
HETATM   19  N2  UNK     1      18.606  -4.677  36.475  1.00  0.00    -0.355 N 
HETATM   20  C6  UNK     1      18.111  -5.967  36.436  1.00  0.00     0.257 C 
HETATM   21  O4  UNK     1      16.944  -6.305  36.626  1.00  0.00    -0.267 OA
HETATM   22  H8  UNK     1      19.595  -4.504  36.325  1.00  0.00     0.162 HD
BRANCH  20  23
HETATM   23  C7  UNK     1      19.144  -6.966  36.131  1.00  0.00     0.108 A 
HETATM   24  C11 UNK     1      19.099  -8.099  36.842  1.00  0.00     0.037 A 
HETATM   25  C10 UNK     1      20.080  -9.148  36.612  1.00  0.00    -0.001 A 
HETATM   26  C13 UNK     1      21.061  -8.952  35.645  1.00  0.00     0.089 A 
HETATM   27  C17 UNK     1      20.071 -10.347  37.330  1.00  0.00     0.014 A 
HETATM   28  O2  UNK     1      21.102  -7.757  34.900  1.00  0.00    -0.274 OA
HETATM   29  C19 UNK     1      22.030  -9.916  35.377  1.00  0.00     0.038 A 
HETATM   30  C15 UNK     1      20.177  -6.736  35.098  1.00  0.00     0.304 A 
HETATM   31  O6  UNK     1      20.223  -5.699  34.445  1.00  0.00    -0.259 OA
HETATM   32  C23 UNK     1      22.014 -11.109  36.098  1.00  0.00     0.003 A 
HETATM   33  C22 UNK     1      21.036 -11.324  37.072  1.00  0.00     0.001 A 
ENDBRANCH  20  23
ENDBRANCH  18  19
ENDBRANCH   1  18
TORSDOF 5
ENDMDL
MODEL 3
REMARK VINA RESULT:     -10.4      0.750      8.735
REMARK  5 active torsions:
REMARK  status: ('A' for Active; 'I' for Inactive)
REMARK    1  A    between atoms: C1_9  and  N1_7 
REMARK       I    between atoms: C4_12  and  N1_7 
REMARK    2  A    between atoms: C2_10  and  N2_8 
REMARK       I    between atoms: C6_14  and  N2_8 
REMARK    3  A    between atoms: C1_9  and  C2_10 
REMARK    4  A    between atoms: C4_12  and  C5_13 
REMARK    5  A    between atoms: C6_14  and  C7_15 
ROOT
HETATM    1  C1  UNK     1      18.729  -2.243  37.148  1.00  0.00     0.098 C 
HETATM    2  C3  UNK     1      18.649  -1.706  38.574  1.00  0.00     0.034 C 
ENDROOT
BRANCH   1   3
HETATM    3  N1  UNK     1      18.852  -3.681  37.153  1.00  0.00    -0.351 N 
HETATM    4  C4  UNK     1      19.583  -4.373  36.208  1.00  0.00     0.258 C 
HETATM    5  O3  UNK     1      20.207  -3.893  35.268  1.00  0.00    -0.267 OA
HETATM    6  H4  UNK     1      18.311  -4.190  37.847  1.00  0.00     0.163 HD
BRANCH   4   7
HETATM    7  C5  UNK     1      19.560  -5.832  36.427  1.00  0.00     0.108 A 
HETATM    8  C14 UNK     1      18.307  -6.562  36.721  1.00  0.00     0.304 A 
HETATM    9  O1  UNK     1      18.414  -7.938  36.907  1.00  0.00    -0.274 OA
HETATM   10  O5  UNK     1      17.226  -5.989  36.798  1.00  0.00    -0.259 OA
HETATM   11  C12 UNK     1      19.651  -8.605  36.820  1.00  0.00     0.089 A 
HETATM   12  C8  UNK     1      20.817  -7.899  36.542  1.00  0.00    -0.001 A 
HETATM   13  C18 UNK     1      19.658  -9.984  37.020  1.00  0.00     0.038 A 
HETATM   14  C16 UNK     1      22.025  -8.597  36.464  1.00  0.00     0.014 A 
HETATM   15  C9  UNK     1      20.738  -6.460  36.342  1.00  0.00     0.037 A 
HETATM   16  C20 UNK     1      22.048  -9.980  36.663  1.00  0.00     0.001 A 
HETATM   17  C21 UNK     1      20.866 -10.672  36.941  1.00  0.00     0.003 A 
ENDBRANCH   4   7
ENDBRANCH   1   3
BRANCH   1  18
HETATM   18  C2  UNK     1      17.550  -1.795  36.283  1.00  0.00     0.147 C 
BRANCH  18  19
HETATM   19  N2  UNK     1      17.945  -1.373  34.957  1.00  0.00    -0.355 N 
HETATM   20  C6  UNK     1      18.182  -0.051  34.627  1.00  0.00     0.257 C 
HETATM   21  O4  UNK     1      18.093   0.914  35.384  1.00  0.00    -0.267 OA
HETATM   22  H8  UNK     1      18.025  -2.098  34.252  1.00  0.00     0.162 HD
BRANCH  20  23
HETATM   23  C7  UNK     1      18.574   0.126  33.224  1.00  0.00     0.108 A 
HETATM   24  C11 UNK     1      19.166  -0.922  32.638  1.00  0.00     0.037 A 
HETATM   25  C10 UNK     1      19.589  -0.842  31.249  1.00  0.00    -0.001 A 
HETATM   26  C13 UNK     1      19.370   0.338  30.544  1.00  0.00     0.089 A 
HETATM   27  C17 UNK     1      20.210  -1.910  30.596  1.00  0.00     0.014 A 
HETATM   28  O2  UNK     1      18.746   1.437  31.167  1.00  0.00    -0.274 OA
HETATM   29  C19 UNK     1      19.752   0.480  29.213  1.00  0.00     0.038 A 
HETATM   30  C15 UNK     1      18.330   1.390  32.494  1.00  0.00     0.304 A 
HETATM   31  O6  UNK     1      17.789   2.352  33.028  1.00  0.00    -0.259 OA
HETATM   32  C23 UNK     1      20.371  -0.591  28.570  1.00  0.00     0.003 A 
HETATM   33  C22 UNK     1      20.599  -1.783  29.260  1.00  0.00     0.001 A 
ENDBRANCH  20  23
ENDBRANCH  18  19
ENDBRANCH   1  18
TORSDOF 5
ENDMDL
MODEL 4
REMARK VINA RESULT:     -10.3      2.374     10.228
REMARK  5 active torsions:
REMARK  status: ('A' for Active; 'I' for Inactive)
REMARK    1  A    between atoms: C1_9  and  N1_7 
REMARK       I    between atoms: C4_12  and  N1_7 
REMARK    2  A    between atoms: C2_10  and  N2_8 
REMARK       I    between atoms: C6_14  and  N2_8 
REMARK    3  A    between atoms: C1_9  and  C2_10 
REMARK    4  A    between atoms: C4_12  and  C5_13 
REMARK    5  A    between atoms: C6_14  and  C7_15 
ROOT
HETATM    1  C1  UNK     1      19.374  -2.623  36.253  1.00  0.00     0.098 C 
HETATM    2  C3  UNK     1      18.073  -2.100  36.853  1.00  0.00     0.034 C 
ENDROOT
BRANCH   1   3
HETATM    3  N1  UNK     1      19.429  -4.063  36.335  1.00  0.00    -0.351 N 
HETATM    4  C4  UNK     1      20.531  -4.744  36.814  1.00  0.00     0.258 C 
HETATM    5  O3  UNK     1      21.578  -4.250  37.221  1.00  0.00    -0.267 OA
HETATM    6  H4  UNK     1      18.642  -4.578  35.952  1.00  0.00     0.163 HD
BRANCH   4   7
HETATM    7  C5  UNK     1      20.345  -6.206  36.803  1.00  0.00     0.108 A 
HETATM    8  C14 UNK     1      20.377  -6.992  35.548  1.00  0.00     0.304 A 
HETATM    9  O1  UNK     1      20.191  -8.367  35.667  1.00  0.00    -0.274 OA
HETATM   10  O5  UNK     1      20.559  -6.463  34.457  1.00  0.00    -0.259 OA
HETATM   11  C12 UNK     1      19.982  -8.983  36.915  1.00  0.00     0.089 A 
HETATM   12  C8  UNK     1      19.955  -8.226  38.082  1.00  0.00    -0.001 A 
HETATM   13  C18 UNK     1      19.805 -10.365  36.934  1.00  0.00     0.038 A 
HETATM   14  C16 UNK     1      19.745  -8.874  39.301  1.00  0.00     0.014 A 
HETATM   15  C9  UNK     1      20.147  -6.787  37.992  1.00  0.00     0.037 A 
HETATM   16  C20 UNK     1      19.566 -10.260  39.336  1.00  0.00     0.001 A 
HETATM   17  C21 UNK     1      19.596 -11.004  38.153  1.00  0.00     0.003 A 
ENDBRANCH   4   7
ENDBRANCH   1   3
BRANCH   1  18
HETATM   18  C2  UNK     1      19.595  -2.145  34.816  1.00  0.00     0.147 C 
BRANCH  18  19
HETATM   19  N2  UNK     1      19.384  -0.724  34.650  1.00  0.00    -0.355 N 
HETATM   20  C6  UNK     1      18.295  -0.198  33.981  1.00  0.00     0.257 C 
HETATM   21  O4  UNK     1      17.387  -0.838  33.452  1.00  0.00    -0.267 OA
HETATM   22  H8  UNK     1      20.094  -0.110  35.035  1.00  0.00     0.162 HD
BRANCH  20  23
HETATM   23  C7  UNK     1      18.300   1.270  33.947  1.00  0.00     0.108 A 
HETATM   24  C11 UNK     1      18.315   1.834  32.734  1.00  0.00     0.037 A 
HETATM   25  C10 UNK     1      18.321   3.282  32.599  1.00  0.00    -0.001 A 
HETATM   26  C13 UNK     1      18.313   4.066  33.748  1.00  0.00     0.089 A 
HETATM   27  C17 UNK     1      18.335   3.914  31.352  1.00  0.00     0.014 A 
HETATM   28  O2  UNK     1      18.298   3.466  35.022  1.00  0.00    -0.274 OA
HETATM   29  C19 UNK     1      18.320   5.457  33.687  1.00  0.00     0.038 A 
HETATM   30  C15 UNK     1      18.291   2.083  35.183  1.00  0.00     0.304 A 
HETATM   31  O6  UNK     1      18.280   1.570  36.297  1.00  0.00    -0.259 OA
HETATM   32  C23 UNK     1      18.334   6.080  32.441  1.00  0.00     0.003 A 
HETATM   33  C22 UNK     1      18.341   5.309  31.276  1.00  0.00     0.001 A 
ENDBRANCH  20  23
ENDBRANCH  18  19
ENDBRANCH   1  18
TORSDOF 5
ENDMDL
MODEL 5
REMARK VINA RESULT:     -10.3      4.795     11.014
REMARK  5 active torsions:
REMARK  status: ('A' for Active; 'I' for Inactive)
REMARK    1  A    between atoms: C1_9  and  N1_7 
REMARK       I    between atoms: C4_12  and  N1_7 
REMARK    2  A    between atoms: C2_10  and  N2_8 
REMARK       I    between atoms: C6_14  and  N2_8 
REMARK    3  A    between atoms: C1_9  and  C2_10 
REMARK    4  A    between atoms: C4_12  and  C5_13 
REMARK    5  A    between atoms: C6_14  and  C7_15 
ROOT
HETATM    1  C1  UNK     1      19.113   0.592  29.968  1.00  0.00     0.098 C 
HETATM    2  C3  UNK     1      20.452  -0.090  29.704  1.00  0.00     0.034 C 
ENDROOT
BRANCH   1   3
HETATM    3  N1  UNK     1      18.839   0.642  31.384  1.00  0.00    -0.351 N 
HETATM    4  C4  UNK     1      18.851  -0.479  32.189  1.00  0.00     0.258 C 
HETATM    5  O3  UNK     1      19.084  -1.631  31.838  1.00  0.00    -0.267 OA
HETATM    6  H4  UNK     1      18.557   1.539  31.769  1.00  0.00     0.163 HD
BRANCH   4   7
HETATM    7  C5  UNK     1      18.544  -0.172  33.599  1.00  0.00     0.108 A 
HETATM    8  C14 UNK     1      17.996   1.139  34.015  1.00  0.00     0.304 A 
HETATM    9  O1  UNK     1      17.746   1.309  35.374  1.00  0.00    -0.274 OA
HETATM   10  O5  UNK     1      17.771   2.033  33.206  1.00  0.00    -0.259 OA
HETATM   11  C12 UNK     1      18.001   0.288  36.309  1.00  0.00     0.089 A 
HETATM   12  C8  UNK     1      18.516  -0.937  35.897  1.00  0.00    -0.001 A 
HETATM   13  C18 UNK     1      17.718   0.551  37.648  1.00  0.00     0.038 A 
HETATM   14  C16 UNK     1      18.755  -1.925  36.855  1.00  0.00     0.014 A 
HETATM   15  C9  UNK     1      18.788  -1.146  34.483  1.00  0.00     0.037 A 
HETATM   16  C20 UNK     1      18.477  -1.675  38.202  1.00  0.00     0.001 A 
HETATM   17  C21 UNK     1      17.959  -0.439  38.597  1.00  0.00     0.003 A 
ENDBRANCH   4   7
ENDBRANCH   1   3
BRANCH   1  18
HETATM   18  C2  UNK     1      19.027   1.985  29.341  1.00  0.00     0.147 C 
BRANCH  18  19
HETATM   19  N2  UNK     1      19.107   3.052  30.313  1.00  0.00    -0.355 N 
HETATM   20  C6  UNK     1      18.919   4.382  29.988  1.00  0.00     0.257 C 
HETATM   21  O4  UNK     1      18.668   4.829  28.869  1.00  0.00    -0.267 OA
HETATM   22  H8  UNK     1      19.333   2.785  31.266  1.00  0.00     0.162 HD
BRANCH  20  23
HETATM   23  C7  UNK     1      19.046   5.277  31.145  1.00  0.00     0.108 A 
HETATM   24  C11 UNK     1      17.934   5.482  31.859  1.00  0.00     0.037 A 
HETATM   25  C10 UNK     1      17.962   6.353  33.024  1.00  0.00    -0.001 A 
HETATM   26  C13 UNK     1      19.159   6.966  33.379  1.00  0.00     0.089 A 
HETATM   27  C17 UNK     1      16.825   6.596  33.800  1.00  0.00     0.014 A 
HETATM   28  O2  UNK     1      20.327   6.746  32.622  1.00  0.00    -0.274 OA
HETATM   29  C19 UNK     1      19.253   7.812  34.481  1.00  0.00     0.038 A 
HETATM   30  C15 UNK     1      20.331   5.918  31.503  1.00  0.00     0.304 A 
HETATM   31  O6  UNK     1      21.352   5.733  30.850  1.00  0.00    -0.259 OA
HETATM   32  C23 UNK     1      18.115   8.049  35.250  1.00  0.00     0.003 A 
HETATM   33  C22 UNK     1      16.903   7.442  34.910  1.00  0.00     0.001 A 
ENDBRANCH  20  23
ENDBRANCH  18  19
ENDBRANCH   1  18
TORSDOF 5
ENDMDL
MODEL 6
REMARK VINA RESULT:     -10.3      4.415      7.245
REMARK  5 active torsions:
REMARK  status: ('A' for Active; 'I' for Inactive)
REMARK    1  A    between atoms: C1_9  and  N1_7 
REMARK       I    between atoms: C4_12  and  N1_7 
REMARK    2  A    between atoms: C2_10  and  N2_8 
REMARK       I    between atoms: C6_14  and  N2_8 
REMARK    3  A    between atoms: C1_9  and  C2_10 
REMARK    4  A    between atoms: C4_12  and  C5_13 
REMARK    5  A    between atoms: C6_14  and  C7_15 
ROOT
HETATM    1  C1  UNK     1      20.502  -0.437  29.574  1.00  0.00     0.098 C 
HETATM    2  C3  UNK     1      19.687  -0.707  28.313  1.00  0.00     0.034 C 
ENDROOT
BRANCH   1   3
HETATM    3  N1  UNK     1      19.974   0.703  30.286  1.00  0.00    -0.351 N 
HETATM    4  C4  UNK     1      19.146   1.637  29.694  1.00  0.00     0.258 C 
HETATM    5  O3  UNK     1      18.755   1.638  28.532  1.00  0.00    -0.267 OA
HETATM    6  H4  UNK     1      20.296   0.843  31.239  1.00  0.00     0.163 HD
BRANCH   4   7
HETATM    7  C5  UNK     1      18.736   2.705  30.625  1.00  0.00     0.108 A 
HETATM    8  C14 UNK     1      18.283   2.413  32.004  1.00  0.00     0.304 A 
HETATM    9  O1  UNK     1      17.923   3.506  32.788  1.00  0.00    -0.274 OA
HETATM   10  O5  UNK     1      18.226   1.268  32.438  1.00  0.00    -0.259 OA
HETATM   11  C12 UNK     1      17.986   4.824  32.298  1.00  0.00     0.089 A 
HETATM   12  C8  UNK     1      18.415   5.076  30.999  1.00  0.00    -0.001 A 
HETATM   13  C18 UNK     1      17.606   5.853  33.157  1.00  0.00     0.038 A 
HETATM   14  C16 UNK     1      18.463   6.398  30.549  1.00  0.00     0.014 A 
HETATM   15  C9  UNK     1      18.798   3.955  30.154  1.00  0.00     0.037 A 
HETATM   16  C20 UNK     1      18.085   7.441  31.399  1.00  0.00     0.001 A 
HETATM   17  C21 UNK     1      17.656   7.168  32.701  1.00  0.00     0.003 A 
ENDBRANCH   4   7
ENDBRANCH   1   3
BRANCH   1  18
HETATM   18  C2  UNK     1      20.597  -1.660  30.488  1.00  0.00     0.147 C 
BRANCH  18  19
HETATM   19  N2  UNK     1      20.073  -1.421  31.815  1.00  0.00    -0.355 N 
HETATM   20  C6  UNK     1      20.338  -2.249  32.890  1.00  0.00     0.257 C 
HETATM   21  O4  UNK     1      21.029  -3.266  32.871  1.00  0.00    -0.267 OA
HETATM   22  H8  UNK     1      19.469  -0.613  31.928  1.00  0.00     0.162 HD
BRANCH  20  23
HETATM   23  C7  UNK     1      19.697  -1.797  34.131  1.00  0.00     0.108 A 
HETATM   24  C11 UNK     1      18.548  -1.127  33.993  1.00  0.00     0.037 A 
HETATM   25  C10 UNK     1      17.839  -0.638  35.165  1.00  0.00    -0.001 A 
HETATM   26  C13 UNK     1      18.375  -0.879  36.426  1.00  0.00     0.089 A 
HETATM   27  C17 UNK     1      16.635   0.065  35.069  1.00  0.00     0.014 A 
HETATM   28  O2  UNK     1      19.586  -1.586  36.564  1.00  0.00    -0.274 OA
HETATM   29  C19 UNK     1      17.747  -0.438  37.588  1.00  0.00     0.038 A 
HETATM   30  C15 UNK     1      20.287  -2.065  35.461  1.00  0.00     0.304 A 
HETATM   31  O6  UNK     1      21.341  -2.678  35.592  1.00  0.00    -0.259 OA
HETATM   32  C23 UNK     1      16.547   0.264  37.483  1.00  0.00     0.003 A 
HETATM   33  C22 UNK     1      15.993   0.514  36.226  1.00  0.00     0.001 A 
ENDBRANCH  20  23
ENDBRANCH  18  19
ENDBRANCH   1  18
TORSDOF 5
ENDMDL
MODEL 7
REMARK VINA RESULT:     -10.1      3.296      9.614
REMARK  5 active torsions:
REMARK  status: ('A' for Active; 'I' for Inactive)
REMARK    1  A    between atoms: C1_9  and  N1_7 
REMARK       I    between atoms: C4_12  and  N1_7 
REMARK    2  A    between atoms: C2_10  and  N2_8 
REMARK       I    between atoms: C6_14  and  N2_8 
REMARK    3  A    between atoms: C1_9  and  C2_10 
REMARK    4  A    between atoms: C4_12  and  C5_13 
REMARK    5  A    between atoms: C6_14  and  C7_15 
ROOT
HETATM    1  C1  UNK     1      19.869  -7.388  35.993  1.00  0.00     0.098 C 
HETATM    2  C3  UNK     1      19.944  -6.820  34.579  1.00  0.00     0.034 C 
ENDROOT
BRANCH   1   3
HETATM    3  N1  UNK     1      21.186  -7.474  36.577  1.00  0.00    -0.351 N 
HETATM    4  C4  UNK     1      21.742  -8.665  36.999  1.00  0.00     0.258 C 
HETATM    5  O3  UNK     1      21.225  -9.776  36.943  1.00  0.00    -0.267 OA
HETATM    6  H4  UNK     1      21.677  -6.600  36.742  1.00  0.00     0.163 HD
BRANCH   4   7
HETATM    7  C5  UNK     1      23.097  -8.496  37.556  1.00  0.00     0.108 A 
HETATM    8  C14 UNK     1      23.355  -7.661  38.752  1.00  0.00     0.304 A 
HETATM    9  O1  UNK     1      24.676  -7.579  39.184  1.00  0.00    -0.274 OA
HETATM   10  O5  UNK     1      22.453  -7.069  39.335  1.00  0.00    -0.259 OA
HETATM   11  C12 UNK     1      25.717  -8.256  38.521  1.00  0.00     0.089 A 
HETATM   12  C8  UNK     1      25.453  -9.035  37.399  1.00  0.00    -0.001 A 
HETATM   13  C18 UNK     1      27.008  -8.114  39.028  1.00  0.00     0.038 A 
HETATM   14  C16 UNK     1      26.513  -9.691  36.769  1.00  0.00     0.014 A 
HETATM   15  C9  UNK     1      24.082  -9.141  36.922  1.00  0.00     0.037 A 
HETATM   16  C20 UNK     1      27.813  -9.558  37.265  1.00  0.00     0.001 A 
HETATM   17  C21 UNK     1      28.059  -8.770  38.393  1.00  0.00     0.003 A 
ENDBRANCH   4   7
ENDBRANCH   1   3
BRANCH   1  18
HETATM   18  C2  UNK     1      18.917  -6.601  36.896  1.00  0.00     0.147 C 
BRANCH  18  19
HETATM   19  N2  UNK     1      18.837  -5.199  36.553  1.00  0.00    -0.355 N 
HETATM   20  C6  UNK     1      19.750  -4.261  36.998  1.00  0.00     0.257 C 
HETATM   21  O4  UNK     1      20.721  -4.478  37.721  1.00  0.00    -0.267 OA
HETATM   22  H8  UNK     1      18.053  -4.915  35.975  1.00  0.00     0.162 HD
BRANCH  20  23
HETATM   23  C7  UNK     1      19.459  -2.906  36.514  1.00  0.00     0.108 A 
HETATM   24  C11 UNK     1      18.774  -2.115  37.347  1.00  0.00     0.037 A 
HETATM   25  C10 UNK     1      18.438  -0.755  36.956  1.00  0.00    -0.001 A 
HETATM   26  C13 UNK     1      18.840  -0.294  35.706  1.00  0.00     0.089 A 
HETATM   27  C17 UNK     1      17.724   0.107  37.793  1.00  0.00     0.014 A 
HETATM   28  O2  UNK     1      19.562  -1.133  34.834  1.00  0.00    -0.274 OA
HETATM   29  C19 UNK     1      18.550   0.996  35.270  1.00  0.00     0.038 A 
HETATM   30  C15 UNK     1      19.898  -2.438  35.180  1.00  0.00     0.304 A 
HETATM   31  O6  UNK     1      20.525  -3.161  34.414  1.00  0.00    -0.259 OA
HETATM   32  C23 UNK     1      17.838   1.849  36.111  1.00  0.00     0.003 A 
HETATM   33  C22 UNK     1      17.426   1.405  37.370  1.00  0.00     0.001 A 
ENDBRANCH  20  23
ENDBRANCH  18  19
ENDBRANCH   1  18
TORSDOF 5
ENDMDL
MODEL 8
REMARK VINA RESULT:     -10.0      7.230     13.296
REMARK  5 active torsions:
REMARK  status: ('A' for Active; 'I' for Inactive)
REMARK    1  A    between atoms: C1_9  and  N1_7 
REMARK       I    between atoms: C4_12  and  N1_7 
REMARK    2  A    between atoms: C2_10  and  N2_8 
REMARK       I    between atoms: C6_14  and  N2_8 
REMARK    3  A    between atoms: C1_9  and  C2_10 
REMARK    4  A    between atoms: C4_12  and  C5_13 
REMARK    5  A    between atoms: C6_14  and  C7_15 
ROOT
HETATM    1  C1  UNK     1      18.882   6.215  31.650  1.00  0.00     0.098 C 
HETATM    2  C3  UNK     1      18.925   6.102  33.171  1.00  0.00     0.034 C 
ENDROOT
BRANCH   1   3
HETATM    3  N1  UNK     1      19.067   4.920  31.039  1.00  0.00    -0.351 N 
HETATM    4  C4  UNK     1      18.376   3.795  31.444  1.00  0.00     0.258 C 
HETATM    5  O3  UNK     1      17.543   3.731  32.341  1.00  0.00    -0.267 OA
HETATM    6  H4  UNK     1      19.793   4.841  30.332  1.00  0.00     0.163 HD
BRANCH   4   7
HETATM    7  C5  UNK     1      18.736   2.595  30.666  1.00  0.00     0.108 A 
HETATM    8  C14 UNK     1      18.586   2.539  29.194  1.00  0.00     0.304 A 
HETATM    9  O1  UNK     1      18.960   1.352  28.572  1.00  0.00    -0.274 OA
HETATM   10  O5  UNK     1      18.154   3.490  28.551  1.00  0.00    -0.259 OA
HETATM   11  C12 UNK     1      19.458   0.256  29.303  1.00  0.00     0.089 A 
HETATM   12  C8  UNK     1      19.591   0.329  30.685  1.00  0.00    -0.001 A 
HETATM   13  C18 UNK     1      19.807  -0.891  28.592  1.00  0.00     0.038 A 
HETATM   14  C16 UNK     1      20.088  -0.780  31.374  1.00  0.00     0.014 A 
HETATM   15  C9  UNK     1      19.208   1.557  31.365  1.00  0.00     0.037 A 
HETATM   16  C20 UNK     1      20.442  -1.937  30.675  1.00  0.00     0.001 A 
HETATM   17  C21 UNK     1      20.301  -1.993  29.286  1.00  0.00     0.003 A 
ENDBRANCH   4   7
ENDBRANCH   1   3
BRANCH   1  18
HETATM   18  C2  UNK     1      17.603   6.884  31.144  1.00  0.00     0.147 C 
BRANCH  18  19
HETATM   19  N2  UNK     1      16.987   7.749  32.125  1.00  0.00    -0.355 N 
HETATM   20  C6  UNK     1      15.617   7.895  32.246  1.00  0.00     0.257 C 
HETATM   21  O4  UNK     1      14.763   7.333  31.563  1.00  0.00    -0.267 OA
HETATM   22  H8  UNK     1      17.613   8.276  32.725  1.00  0.00     0.162 HD
BRANCH  20  23
HETATM   23  C7  UNK     1      15.235   8.825  33.316  1.00  0.00     0.108 A 
HETATM   24  C11 UNK     1      14.275   9.708  33.016  1.00  0.00     0.037 A 
HETATM   25  C10 UNK     1      13.829  10.671  34.011  1.00  0.00    -0.001 A 
HETATM   26  C13 UNK     1      14.415  10.656  35.273  1.00  0.00     0.089 A 
HETATM   27  C17 UNK     1      12.830  11.611  33.743  1.00  0.00     0.014 A 
HETATM   28  O2  UNK     1      15.424   9.723  35.582  1.00  0.00    -0.274 OA
HETATM   29  C19 UNK     1      14.034  11.551  36.270  1.00  0.00     0.038 A 
HETATM   30  C15 UNK     1      15.872   8.791  34.651  1.00  0.00     0.304 A 
HETATM   31  O6  UNK     1      16.752   7.983  34.928  1.00  0.00    -0.259 OA
HETATM   32  C23 UNK     1      13.037  12.486  35.994  1.00  0.00     0.003 A 
HETATM   33  C22 UNK     1      12.437  12.515  34.734  1.00  0.00     0.001 A 
ENDBRANCH  20  23
ENDBRANCH  18  19
ENDBRANCH   1  18
TORSDOF 5
ENDMDL
MODEL 9
REMARK VINA RESULT:     -10.0      4.618     10.538
REMARK  5 active torsions:
REMARK  status: ('A' for Active; 'I' for Inactive)
REMARK    1  A    between atoms: C1_9  and  N1_7 
REMARK       I    between atoms: C4_12  and  N1_7 
REMARK    2  A    between atoms: C2_10  and  N2_8 
REMARK       I    between atoms: C6_14  and  N2_8 
REMARK    3  A    between atoms: C1_9  and  C2_10 
REMARK    4  A    between atoms: C4_12  and  C5_13 
REMARK    5  A    between atoms: C6_14  and  C7_15 
ROOT
HETATM    1  C1  UNK     1      19.638  -0.345  29.450  1.00  0.00     0.098 C 
HETATM    2  C3  UNK     1      21.057  -0.792  29.110  1.00  0.00     0.034 C 
ENDROOT
BRANCH   1   3
HETATM    3  N1  UNK     1      19.392  -0.473  30.867  1.00  0.00    -0.351 N 
HETATM    4  C4  UNK     1      19.651  -1.633  31.570  1.00  0.00     0.258 C 
HETATM    5  O3  UNK     1      20.107  -2.678  31.118  1.00  0.00    -0.267 OA
HETATM    6  H4  UNK     1      18.941   0.310  31.331  1.00  0.00     0.163 HD
BRANCH   4   7
HETATM    7  C5  UNK     1      19.319  -1.517  33.002  1.00  0.00     0.108 A 
HETATM    8  C14 UNK     1      20.104  -2.210  34.049  1.00  0.00     0.304 A 
HETATM    9  O1  UNK     1      19.694  -2.022  35.366  1.00  0.00    -0.274 OA
HETATM   10  O5  UNK     1      21.069  -2.915  33.774  1.00  0.00    -0.259 OA
HETATM   11  C12 UNK     1      18.588  -1.213  35.690  1.00  0.00     0.089 A 
HETATM   12  C8  UNK     1      17.863  -0.571  34.691  1.00  0.00    -0.001 A 
HETATM   13  C18 UNK     1      18.253  -1.084  37.037  1.00  0.00     0.038 A 
HETATM   14  C16 UNK     1      16.772   0.222  35.054  1.00  0.00     0.014 A 
HETATM   15  C9  UNK     1      18.267  -0.747  33.305  1.00  0.00     0.037 A 
HETATM   16  C20 UNK     1      16.424   0.361  36.400  1.00  0.00     0.001 A 
HETATM   17  C21 UNK     1      17.163  -0.292  37.390  1.00  0.00     0.003 A 
ENDBRANCH   4   7
ENDBRANCH   1   3
BRANCH   1  18
HETATM   18  C2  UNK     1      19.335   1.074  28.966  1.00  0.00     0.147 C 
BRANCH  18  19
HETATM   19  N2  UNK     1      19.040   1.993  30.043  1.00  0.00    -0.355 N 
HETATM   20  C6  UNK     1      18.663   3.306  29.831  1.00  0.00     0.257 C 
HETATM   21  O4  UNK     1      18.531   3.857  28.739  1.00  0.00    -0.267 OA
HETATM   22  H8  UNK     1      19.143   1.636  30.987  1.00  0.00     0.162 HD
BRANCH  20  23
HETATM   23  C7  UNK     1      18.415   4.038  31.079  1.00  0.00     0.108 A 
HETATM   24  C11 UNK     1      18.534   5.369  31.018  1.00  0.00     0.037 A 
HETATM   25  C10 UNK     1      18.308   6.180  32.204  1.00  0.00    -0.001 A 
HETATM   26  C13 UNK     1      17.968   5.550  33.397  1.00  0.00     0.089 A 
HETATM   27  C17 UNK     1      18.420   7.573  32.186  1.00  0.00     0.014 A 
HETATM   28  O2  UNK     1      17.845   4.147  33.454  1.00  0.00    -0.274 OA
HETATM   29  C19 UNK     1      17.740   6.268  34.568  1.00  0.00     0.038 A 
HETATM   30  C15 UNK     1      18.055   3.345  32.336  1.00  0.00     0.304 A 
HETATM   31  O6  UNK     1      17.946   2.125  32.396  1.00  0.00    -0.259 OA
HETATM   32  C23 UNK     1      17.854   7.656  34.542  1.00  0.00     0.003 A 
HETATM   33  C22 UNK     1      18.194   8.307  33.354  1.00  0.00     0.001 A 
ENDBRANCH  20  23
ENDBRANCH  18  19
ENDBRANCH   1  18
TORSDOF 5
ENDMDL
MODEL 10
REMARK VINA RESULT:     -10.0      5.439     11.974
REMARK  5 active torsions:
REMARK  status: ('A' for Active; 'I' for Inactive)
REMARK    1  A    between atoms: C1_9  and  N1_7 
REMARK       I    between atoms: C4_12  and  N1_7 
REMARK    2  A    between atoms: C2_10  and  N2_8 
REMARK       I    between atoms: C6_14  and  N2_8 
REMARK    3  A    between atoms: C1_9  and  C2_10 
REMARK    4  A    between atoms: C4_12  and  C5_13 
REMARK    5  A    between atoms: C6_14  and  C7_15 
ROOT
HETATM    1  C1  UNK     1      18.013   2.265  29.610  1.00  0.00     0.098 C 
HETATM    2  C3  UNK     1      18.321   1.207  28.555  1.00  0.00     0.034 C 
ENDROOT
BRANCH   1   3
HETATM    3  N1  UNK     1      17.989   1.677  30.928  1.00  0.00    -0.351 N 
HETATM    4  C4  UNK     1      19.028   0.917  31.427  1.00  0.00     0.258 C 
HETATM    5  O3  UNK     1      20.077   0.642  30.853  1.00  0.00    -0.267 OA
HETATM    6  H4  UNK     1      17.132   1.777  31.464  1.00  0.00     0.163 HD
BRANCH   4   7
HETATM    7  C5  UNK     1      18.771   0.429  32.795  1.00  0.00     0.108 A 
HETATM    8  C14 UNK     1      18.864  -1.006  33.147  1.00  0.00     0.304 A 
HETATM    9  O1  UNK     1      18.599  -1.343  34.471  1.00  0.00    -0.274 OA
HETATM   10  O5  UNK     1      19.158  -1.859  32.316  1.00  0.00    -0.259 OA
HETATM   11  C12 UNK     1      18.260  -0.371  35.432  1.00  0.00     0.089 A 
HETATM   12  C8  UNK     1      18.179   0.972  35.080  1.00  0.00    -0.001 A 
HETATM   13  C18 UNK     1      18.014  -0.804  36.733  1.00  0.00     0.038 A 
HETATM   14  C16 UNK     1      17.840   1.907  36.061  1.00  0.00     0.014 A 
HETATM   15  C9  UNK     1      18.450   1.357  33.703  1.00  0.00     0.037 A 
HETATM   16  C20 UNK     1      17.589   1.488  37.370  1.00  0.00     0.001 A 
HETATM   17  C21 UNK     1      17.676   0.133  37.705  1.00  0.00     0.003 A 
ENDBRANCH   4   7
ENDBRANCH   1   3
BRANCH   1  18
HETATM   18  C2  UNK     1      18.976   3.452  29.555  1.00  0.00     0.147 C 
BRANCH  18  19
HETATM   19  N2  UNK     1      18.627   4.512  30.474  1.00  0.00    -0.355 N 
HETATM   20  C6  UNK     1      19.366   5.673  30.602  1.00  0.00     0.257 C 
HETATM   21  O4  UNK     1      20.387   5.957  29.978  1.00  0.00    -0.267 OA
HETATM   22  H8  UNK     1      17.807   4.361  31.054  1.00  0.00     0.162 HD
BRANCH  20  23
HETATM   23  C7  UNK     1      18.810   6.598  31.597  1.00  0.00     0.108 A 
HETATM   24  C11 UNK     1      17.584   7.071  31.344  1.00  0.00     0.037 A 
HETATM   25  C10 UNK     1      16.949   7.994  32.271  1.00  0.00    -0.001 A 
HETATM   26  C13 UNK     1      17.636   8.375  33.419  1.00  0.00     0.089 A 
HETATM   27  C17 UNK     1      15.670   8.512  32.049  1.00  0.00     0.014 A 
HETATM   28  O2  UNK     1      18.927   7.874  33.679  1.00  0.00    -0.274 OA
HETATM   29  C19 UNK     1      17.085   9.256  34.347  1.00  0.00     0.038 A 
HETATM   30  C15 UNK     1      19.560   6.989  32.811  1.00  0.00     0.304 A 
HETATM   31  O6  UNK     1      20.684   6.559  33.045  1.00  0.00    -0.259 OA
HETATM   32  C23 UNK     1      15.810   9.769  34.117  1.00  0.00     0.003 A 
HETATM   33  C22 UNK     1      15.104   9.397  32.971  1.00  0.00     0.001 A 
ENDBRANCH  20  23
ENDBRANCH  18  19
ENDBRANCH   1  18
TORSDOF 5
ENDMDL
