MODEL 1
REMARK VINA RESULT:      -9.1      0.000      0.000
REMARK  6 active torsions:
REMARK  status: ('A' for Active; 'I' for Inactive)
REMARK    1  A    between atoms: C6_12  and  N1_4 
REMARK    2  A    between atoms: C1_7  and  N2_5 
REMARK    3  A    between atoms: C8_14  and  N2_5 
REMARK    4  A    between atoms: C11_17  and  N3_6 
REMARK    5  A    between atoms: C8_14  and  N3_6 
REMARK    6  A    between atoms: C6_12  and  C7_13 
ROOT
HETATM    1  S1  UNK     1      20.825  -0.489  29.178  1.00  0.00    -0.041 SA
HETATM    2  C8  UNK     1      19.705   0.095  30.285  1.00  0.00     0.172 C 
ENDROOT
BRANCH   2   3
HETATM    3  N2  UNK     1      19.531   1.476  30.345  1.00  0.00    -0.362 N 
HETATM    4  H12 UNK     1      20.386   2.023  30.380  1.00  0.00     0.162 HD
BRANCH   3   5
HETATM    5  C1  UNK     1      18.284   2.204  30.298  1.00  0.00     0.087 C 
HETATM    6  C2  UNK     1      18.328   3.310  29.242  1.00  0.00     0.055 C 
HETATM    7  C4  UNK     1      19.210   4.486  29.673  1.00  0.00     0.275 C 
HETATM    8  N1  UNK     1      18.780   5.023  30.971  1.00  0.00     0.092 N 
HETATM    9  C5  UNK     1      18.835   3.992  32.017  1.00  0.00     0.275 C 
HETATM   10  C3  UNK     1      17.941   2.799  31.666  1.00  0.00     0.055 C 
BRANCH   8  11
HETATM   11  C6  UNK     1      19.597   6.177  31.345  1.00  0.00     0.311 C 
BRANCH  11  12
HETATM   12  C7  UNK     1      18.987   6.954  32.476  1.00  0.00    -0.030 A 
HETATM   13  C10 UNK     1      17.693   7.445  32.353  1.00  0.00     0.009 A 
HETATM   14  C13 UNK     1      17.126   8.167  33.404  1.00  0.00     0.001 A 
HETATM   15  C14 UNK     1      17.857   8.391  34.570  1.00  0.00     0.000 A 
HETATM   16  C12 UNK     1      19.156   7.896  34.685  1.00  0.00     0.001 A 
HETATM   17  C9  UNK     1      19.723   7.174  33.635  1.00  0.00     0.009 A 
ENDBRANCH  11  12
ENDBRANCH   8  11
ENDBRANCH   3   5
ENDBRANCH   2   3
BRANCH   2  18
HETATM   18  N3  UNK     1      18.880  -0.626  31.142  1.00  0.00    -0.333 N 
HETATM   19  H15 UNK     1      18.161  -1.169  30.676  1.00  0.00     0.168 HD
BRANCH  18  20
HETATM   20  C11 UNK     1      19.041  -1.030  32.492  1.00  0.00     0.036 A 
HETATM   21  C15 UNK     1      18.304  -0.405  33.476  1.00  0.00     0.067 A 
HETATM   22  C18 UNK     1      18.477  -0.819  34.798  1.00  0.00     0.092 A 
HETATM   23  C17 UNK     1      19.365  -1.837  35.150  1.00  0.00     0.004 A 
HETATM   24  O1  UNK     1      17.704  -0.156  35.772  1.00  0.00    -0.275 OA
HETATM   25  C19 UNK     1      20.096  -2.447  34.122  1.00  0.00     0.017 A 
HETATM   26  C20 UNK     1      19.482  -2.208  36.567  1.00  0.00    -0.043 A 
HETATM   27  C16 UNK     1      19.932  -2.043  32.792  1.00  0.00     0.030 A 
HETATM   28  C21 UNK     1      18.736  -1.561  37.472  1.00  0.00     0.090 A 
HETATM   29  C22 UNK     1      20.428  -3.299  36.978  1.00  0.00     0.049 C 
HETATM   30  C23 UNK     1      17.795  -0.485  37.116  1.00  0.00     0.288 A 
HETATM   31  O2  UNK     1      17.128   0.085  37.972  1.00  0.00    -0.260 OA
ENDBRANCH  18  20
ENDBRANCH   2  18
TORSDOF 6
ENDMDL
MODEL 2
REMARK VINA RESULT:      -9.1      1.383      1.991
REMARK  6 active torsions:
REMARK  status: ('A' for Active; 'I' for Inactive)
REMARK    1  A    between atoms: C6_12  and  N1_4 
REMARK    2  A    between atoms: C1_7  and  N2_5 
REMARK    3  A    between atoms: C8_14  and  N2_5 
REMARK    4  A    between atoms: C11_17  and  N3_6 
REMARK    5  A    between atoms: C8_14  and  N3_6 
REMARK    6  A    between atoms: C6_12  and  C7_13 
ROOT
HETATM    1  S1  UNK     1      20.718  -0.404  29.543  1.00  0.00    -0.041 SA
HETATM    2  C8  UNK     1      19.581   0.221  30.610  1.00  0.00     0.172 C 
ENDROOT
BRANCH   2   3
HETATM    3  N2  UNK     1      19.464   1.608  30.672  1.00  0.00    -0.362 N 
HETATM    4  H12 UNK     1      20.318   2.109  30.897  1.00  0.00     0.162 HD
BRANCH   3   5
HETATM    5  C1  UNK     1      18.289   2.401  30.392  1.00  0.00     0.087 C 
HETATM    6  C2  UNK     1      18.594   3.501  29.373  1.00  0.00     0.055 C 
HETATM    7  C4  UNK     1      19.437   4.629  29.976  1.00  0.00     0.275 C 
HETATM    8  N1  UNK     1      18.792   5.191  31.171  1.00  0.00     0.092 N 
HETATM    9  C5  UNK     1      18.591   4.161  32.200  1.00  0.00     0.275 C 
HETATM   10  C3  UNK     1      17.720   3.016  31.673  1.00  0.00     0.055 C 
BRANCH   8  11
HETATM   11  C6  UNK     1      19.582   6.301  31.705  1.00  0.00     0.311 C 
BRANCH  11  12
HETATM   12  C7  UNK     1      18.810   7.105  32.711  1.00  0.00    -0.030 A 
HETATM   13  C10 UNK     1      17.601   7.687  32.346  1.00  0.00     0.009 A 
HETATM   14  C13 UNK     1      16.884   8.433  33.281  1.00  0.00     0.001 A 
HETATM   15  C14 UNK     1      17.380   8.592  34.574  1.00  0.00     0.000 A 
HETATM   16  C12 UNK     1      18.593   8.006  34.933  1.00  0.00     0.001 A 
HETATM   17  C9  UNK     1      19.311   7.259  33.999  1.00  0.00     0.009 A 
ENDBRANCH  11  12
ENDBRANCH   8  11
ENDBRANCH   3   5
ENDBRANCH   2   3
BRANCH   2  18
HETATM   18  N3  UNK     1      18.693  -0.468  31.429  1.00  0.00    -0.333 N 
HETATM   19  H15 UNK     1      18.045  -1.072  30.933  1.00  0.00     0.168 HD
BRANCH  18  20
HETATM   20  C11 UNK     1      18.721  -0.766  32.815  1.00  0.00     0.036 A 
HETATM   21  C15 UNK     1      19.520  -1.794  33.268  1.00  0.00     0.067 A 
HETATM   22  C18 UNK     1      19.533  -2.070  34.637  1.00  0.00     0.092 A 
HETATM   23  C17 UNK     1      18.769  -1.343  35.551  1.00  0.00     0.004 A 
HETATM   24  O1  UNK     1      20.364  -3.127  35.059  1.00  0.00    -0.275 OA
HETATM   25  C19 UNK     1      17.969  -0.306  35.051  1.00  0.00     0.017 A 
HETATM   26  C20 UNK     1      18.844  -1.702  36.974  1.00  0.00    -0.043 A 
HETATM   27  C16 UNK     1      17.946  -0.018  33.682  1.00  0.00     0.030 A 
HETATM   28  C21 UNK     1      19.642  -2.712  37.348  1.00  0.00     0.090 A 
HETATM   29  C22 UNK     1      18.035  -0.940  37.982  1.00  0.00     0.049 C 
HETATM   30  C23 UNK     1      20.455  -3.488  36.395  1.00  0.00     0.288 A 
HETATM   31  O2  UNK     1      21.174  -4.406  36.773  1.00  0.00    -0.260 OA
ENDBRANCH  18  20
ENDBRANCH   2  18
TORSDOF 6
ENDMDL
MODEL 3
REMARK VINA RESULT:      -8.9      1.555      2.171
REMARK  6 active torsions:
REMARK  status: ('A' for Active; 'I' for Inactive)
REMARK    1  A    between atoms: C6_12  and  N1_4 
REMARK    2  A    between atoms: C1_7  and  N2_5 
REMARK    3  A    between atoms: C8_14  and  N2_5 
REMARK    4  A    between atoms: C11_17  and  N3_6 
REMARK    5  A    between atoms: C8_14  and  N3_6 
REMARK    6  A    between atoms: C6_12  and  C7_13 
ROOT
HETATM    1  S1  UNK     1      17.942   1.534  28.746  1.00  0.00    -0.041 SA
HETATM    2  C8  UNK     1      18.980   1.692  30.056  1.00  0.00     0.172 C 
ENDROOT
BRANCH   2   3
HETATM    3  N2  UNK     1      19.350   2.985  30.420  1.00  0.00    -0.362 N 
HETATM    4  H12 UNK     1      20.261   3.072  30.860  1.00  0.00     0.162 HD
BRANCH   3   5
HETATM    5  C1  UNK     1      18.613   4.206  30.184  1.00  0.00     0.087 C 
HETATM    6  C2  UNK     1      19.556   5.401  30.033  1.00  0.00     0.055 C 
HETATM    7  C4  UNK     1      20.177   5.819  31.369  1.00  0.00     0.275 C 
HETATM    8  N1  UNK     1      19.139   6.097  32.372  1.00  0.00     0.092 N 
HETATM    9  C5  UNK     1      18.293   4.918  32.601  1.00  0.00     0.275 C 
HETATM   10  C3  UNK     1      17.607   4.469  31.307  1.00  0.00     0.055 C 
BRANCH   8  11
HETATM   11  C6  UNK     1      19.745   6.545  33.626  1.00  0.00     0.311 C 
BRANCH  11  12
HETATM   12  C7  UNK     1      19.504   8.006  33.875  1.00  0.00    -0.030 A 
HETATM   13  C10 UNK     1      20.549   8.810  34.316  1.00  0.00     0.009 A 
HETATM   14  C13 UNK     1      20.325  10.167  34.547  1.00  0.00     0.001 A 
HETATM   15  C14 UNK     1      19.059  10.711  34.335  1.00  0.00     0.000 A 
HETATM   16  C12 UNK     1      18.016   9.898  33.892  1.00  0.00     0.001 A 
HETATM   17  C9  UNK     1      18.239   8.540  33.661  1.00  0.00     0.009 A 
ENDBRANCH  11  12
ENDBRANCH   8  11
ENDBRANCH   3   5
ENDBRANCH   2   3
BRANCH   2  18
HETATM   18  N3  UNK     1      19.503   0.694  30.870  1.00  0.00    -0.333 N 
HETATM   19  H15 UNK     1      20.446   0.405  30.630  1.00  0.00     0.168 HD
BRANCH  18  20
HETATM   20  C11 UNK     1      19.135   0.237  32.162  1.00  0.00     0.036 A 
HETATM   21  C15 UNK     1      18.543   1.113  33.045  1.00  0.00     0.067 A 
HETATM   22  C18 UNK     1      18.189   0.642  34.310  1.00  0.00     0.092 A 
HETATM   23  C17 UNK     1      18.414  -0.678  34.704  1.00  0.00     0.004 A 
HETATM   24  O1  UNK     1      17.584   1.570  35.182  1.00  0.00    -0.275 OA
HETATM   25  C19 UNK     1      19.018  -1.539  33.778  1.00  0.00     0.017 A 
HETATM   26  C20 UNK     1      18.008  -1.087  36.055  1.00  0.00    -0.043 A 
HETATM   27  C16 UNK     1      19.378  -1.080  32.505  1.00  0.00     0.030 A 
HETATM   28  C21 UNK     1      17.436  -0.185  36.864  1.00  0.00     0.090 A 
HETATM   29  C22 UNK     1      18.236  -2.500  36.509  1.00  0.00     0.049 C 
HETATM   30  C23 UNK     1      17.191   1.212  36.463  1.00  0.00     0.288 A 
HETATM   31  O2  UNK     1      16.665   2.011  37.230  1.00  0.00    -0.260 OA
ENDBRANCH  18  20
ENDBRANCH   2  18
TORSDOF 6
ENDMDL
MODEL 4
REMARK VINA RESULT:      -8.8      3.520      9.767
REMARK  6 active torsions:
REMARK  status: ('A' for Active; 'I' for Inactive)
REMARK    1  A    between atoms: C6_12  and  N1_4 
REMARK    2  A    between atoms: C1_7  and  N2_5 
REMARK    3  A    between atoms: C8_14  and  N2_5 
REMARK    4  A    between atoms: C11_17  and  N3_6 
REMARK    5  A    between atoms: C8_14  and  N3_6 
REMARK    6  A    between atoms: C6_12  and  C7_13 
ROOT
HETATM    1  S1  UNK     1      16.482   1.332  37.124  1.00  0.00    -0.041 SA
HETATM    2  C8  UNK     1      17.861   1.547  36.190  1.00  0.00     0.172 C 
ENDROOT
BRANCH   2   3
HETATM    3  N2  UNK     1      18.598   0.408  35.874  1.00  0.00    -0.362 N 
HETATM    4  H12 UNK     1      19.564   0.412  36.187  1.00  0.00     0.162 HD
BRANCH   3   5
HETATM    5  C1  UNK     1      18.124  -0.787  35.214  1.00  0.00     0.087 C 
HETATM    6  C2  UNK     1      17.488  -1.755  36.213  1.00  0.00     0.055 C 
HETATM    7  C4  UNK     1      18.534  -2.439  37.099  1.00  0.00     0.275 C 
HETATM    8  N1  UNK     1      19.552  -3.121  36.287  1.00  0.00     0.092 N 
HETATM    9  C5  UNK     1      20.242  -2.177  35.398  1.00  0.00     0.275 C 
HETATM   10  C3  UNK     1      19.254  -1.484  34.454  1.00  0.00     0.055 C 
BRANCH   8  11
HETATM   11  C6  UNK     1      20.513  -3.814  37.145  1.00  0.00     0.311 C 
BRANCH  11  12
HETATM   12  C7  UNK     1      20.052  -5.197  37.502  1.00  0.00    -0.030 A 
HETATM   13  C10 UNK     1      20.561  -5.820  38.636  1.00  0.00     0.009 A 
HETATM   14  C13 UNK     1      20.132  -7.106  38.967  1.00  0.00     0.001 A 
HETATM   15  C14 UNK     1      19.197  -7.758  38.165  1.00  0.00     0.000 A 
HETATM   16  C12 UNK     1      18.691  -7.126  37.029  1.00  0.00     0.001 A 
HETATM   17  C9  UNK     1      19.119  -5.840  36.697  1.00  0.00     0.009 A 
ENDBRANCH  11  12
ENDBRANCH   8  11
ENDBRANCH   3   5
ENDBRANCH   2   3
BRANCH   2  18
HETATM   18  N3  UNK     1      18.359   2.725  35.643  1.00  0.00    -0.333 N 
HETATM   19  H15 UNK     1      18.991   3.237  36.251  1.00  0.00     0.168 HD
BRANCH  18  20
HETATM   20  C11 UNK     1      18.442   3.185  34.304  1.00  0.00     0.036 A 
HETATM   21  C15 UNK     1      18.241   2.295  33.271  1.00  0.00     0.067 A 
HETATM   22  C18 UNK     1      18.327   2.770  31.960  1.00  0.00     0.092 A 
HETATM   23  C17 UNK     1      18.607   4.106  31.668  1.00  0.00     0.004 A 
HETATM   24  O1  UNK     1      18.113   1.829  30.934  1.00  0.00    -0.275 OA
HETATM   25  C19 UNK     1      18.806   4.979  32.746  1.00  0.00     0.017 A 
HETATM   26  C20 UNK     1      18.678   4.518  30.260  1.00  0.00    -0.043 A 
HETATM   27  C16 UNK     1      18.722   4.518  34.065  1.00  0.00     0.030 A 
HETATM   28  C21 UNK     1      18.471   3.602  29.304  1.00  0.00     0.090 A 
HETATM   29  C22 UNK     1      18.977   5.947  29.913  1.00  0.00     0.049 C 
HETATM   30  C23 UNK     1      18.174   2.189  29.596  1.00  0.00     0.288 A 
HETATM   31  O2  UNK     1      17.990   1.378  28.695  1.00  0.00    -0.260 OA
ENDBRANCH  18  20
ENDBRANCH   2  18
TORSDOF 6
ENDMDL
MODEL 5
REMARK VINA RESULT:      -8.7      4.906     10.261
REMARK  6 active torsions:
REMARK  status: ('A' for Active; 'I' for Inactive)
REMARK    1  A    between atoms: C6_12  and  N1_4 
REMARK    2  A    between atoms: C1_7  and  N2_5 
REMARK    3  A    between atoms: C8_14  and  N2_5 
REMARK    4  A    between atoms: C11_17  and  N3_6 
REMARK    5  A    between atoms: C8_14  and  N3_6 
REMARK    6  A    between atoms: C6_12  and  C7_13 
ROOT
HETATM    1  S1  UNK     1      18.935   9.060  33.860  1.00  0.00    -0.041 SA
HETATM    2  C8  UNK     1      17.815   8.095  33.064  1.00  0.00     0.172 C 
ENDROOT
BRANCH   2   3
HETATM    3  N2  UNK     1      18.315   7.128  32.194  1.00  0.00    -0.362 N 
HETATM    4  H12 UNK     1      17.907   7.122  31.265  1.00  0.00     0.162 HD
BRANCH   3   5
HETATM    5  C1  UNK     1      19.382   6.187  32.452  1.00  0.00     0.087 C 
HETATM    6  C2  UNK     1      20.086   5.781  31.156  1.00  0.00     0.055 C 
HETATM    7  C4  UNK     1      19.224   4.849  30.298  1.00  0.00     0.275 C 
HETATM    8  N1  UNK     1      18.808   3.663  31.059  1.00  0.00     0.092 N 
HETATM    9  C5  UNK     1      18.039   4.040  32.253  1.00  0.00     0.275 C 
HETATM   10  C3  UNK     1      18.860   4.945  33.177  1.00  0.00     0.055 C 
BRANCH   8  11
HETATM   11  C6  UNK     1      18.031   2.757  30.213  1.00  0.00     0.311 C 
BRANCH  11  12
HETATM   12  C7  UNK     1      18.804   1.522  29.853  1.00  0.00    -0.030 A 
HETATM   13  C10 UNK     1      19.732   1.006  30.751  1.00  0.00     0.009 A 
HETATM   14  C13 UNK     1      20.450  -0.142  30.417  1.00  0.00     0.001 A 
HETATM   15  C14 UNK     1      20.235  -0.767  29.189  1.00  0.00     0.000 A 
HETATM   16  C12 UNK     1      19.303  -0.243  28.294  1.00  0.00     0.001 A 
HETATM   17  C9  UNK     1      18.584   0.905  28.627  1.00  0.00     0.009 A 
ENDBRANCH  11  12
ENDBRANCH   8  11
ENDBRANCH   3   5
ENDBRANCH   2   3
BRANCH   2  18
HETATM   18  N3  UNK     1      16.430   8.100  33.183  1.00  0.00    -0.333 N 
HETATM   19  H15 UNK     1      16.006   7.178  33.207  1.00  0.00     0.168 HD
BRANCH  18  20
HETATM   20  C11 UNK     1      15.521   9.099  33.617  1.00  0.00     0.036 A 
HETATM   21  C15 UNK     1      15.454   9.414  34.957  1.00  0.00     0.067 A 
HETATM   22  C18 UNK     1      14.553  10.400  35.362  1.00  0.00     0.092 A 
HETATM   23  C17 UNK     1      13.726  11.071  34.460  1.00  0.00     0.004 A 
HETATM   24  O1  UNK     1      14.517  10.694  36.740  1.00  0.00    -0.275 OA
HETATM   25  C19 UNK     1      13.823  10.722  33.106  1.00  0.00     0.017 A 
HETATM   26  C20 UNK     1      12.808  12.096  34.975  1.00  0.00    -0.043 A 
HETATM   27  C16 UNK     1      14.723   9.735  32.685  1.00  0.00     0.030 A 
HETATM   28  C21 UNK     1      12.794  12.354  36.290  1.00  0.00     0.090 A 
HETATM   29  C22 UNK     1      11.906  12.834  34.030  1.00  0.00     0.049 C 
HETATM   30  C23 UNK     1      13.661  11.655  37.255  1.00  0.00     0.288 A 
HETATM   31  O2  UNK     1      13.621  11.918  38.451  1.00  0.00    -0.260 OA
ENDBRANCH  18  20
ENDBRANCH   2  18
TORSDOF 6
ENDMDL
MODEL 6
REMARK VINA RESULT:      -8.7      5.063     10.515
REMARK  6 active torsions:
REMARK  status: ('A' for Active; 'I' for Inactive)
REMARK    1  A    between atoms: C6_12  and  N1_4 
REMARK    2  A    between atoms: C1_7  and  N2_5 
REMARK    3  A    between atoms: C8_14  and  N2_5 
REMARK    4  A    between atoms: C11_17  and  N3_6 
REMARK    5  A    between atoms: C8_14  and  N3_6 
REMARK    6  A    between atoms: C6_12  and  C7_13 
ROOT
HETATM    1  S1  UNK     1      15.092   6.923  32.019  1.00  0.00    -0.041 SA
HETATM    2  C8  UNK     1      16.637   7.290  32.566  1.00  0.00     0.172 C 
ENDROOT
BRANCH   2   3
HETATM    3  N2  UNK     1      17.705   6.871  31.776  1.00  0.00    -0.362 N 
HETATM    4  H12 UNK     1      17.709   7.221  30.823  1.00  0.00     0.162 HD
BRANCH   3   5
HETATM    5  C1  UNK     1      18.826   6.054  32.182  1.00  0.00     0.087 C 
HETATM    6  C2  UNK     1      19.752   5.758  31.000  1.00  0.00     0.055 C 
HETATM    7  C4  UNK     1      19.136   4.751  30.023  1.00  0.00     0.275 C 
HETATM    8  N1  UNK     1      18.756   3.509  30.711  1.00  0.00     0.092 N 
HETATM    9  C5  UNK     1      17.785   3.771  31.782  1.00  0.00     0.275 C 
HETATM   10  C3  UNK     1      18.353   4.745  32.819  1.00  0.00     0.055 C 
BRANCH   8  11
HETATM   11  C6  UNK     1      18.219   2.538  29.757  1.00  0.00     0.311 C 
BRANCH  11  12
HETATM   12  C7  UNK     1      19.029   1.274  29.727  1.00  0.00    -0.030 A 
HETATM   13  C10 UNK     1      19.071   0.512  28.565  1.00  0.00     0.009 A 
HETATM   14  C13 UNK     1      19.824  -0.662  28.537  1.00  0.00     0.001 A 
HETATM   15  C14 UNK     1      20.530  -1.064  29.670  1.00  0.00     0.000 A 
HETATM   16  C12 UNK     1      20.483  -0.294  30.832  1.00  0.00     0.001 A 
HETATM   17  C9  UNK     1      19.730   0.880  30.861  1.00  0.00     0.009 A 
ENDBRANCH  11  12
ENDBRANCH   8  11
ENDBRANCH   3   5
ENDBRANCH   2   3
BRANCH   2  18
HETATM   18  N3  UNK     1      17.006   8.003  33.701  1.00  0.00    -0.333 N 
HETATM   19  H15 UNK     1      17.804   7.620  34.198  1.00  0.00     0.168 HD
BRANCH  18  20
HETATM   20  C11 UNK     1      16.724   9.329  34.118  1.00  0.00     0.036 A 
HETATM   21  C15 UNK     1      17.644  10.325  33.869  1.00  0.00     0.067 A 
HETATM   22  C18 UNK     1      17.346  11.623  34.288  1.00  0.00     0.092 A 
HETATM   23  C17 UNK     1      16.156  11.939  34.946  1.00  0.00     0.004 A 
HETATM   24  O1  UNK     1      18.311  12.612  34.012  1.00  0.00    -0.275 OA
HETATM   25  C19 UNK     1      15.247  10.899  35.181  1.00  0.00     0.017 A 
HETATM   26  C20 UNK     1      15.925  13.333  35.351  1.00  0.00    -0.043 A 
HETATM   27  C16 UNK     1      15.532   9.593  34.766  1.00  0.00     0.030 A 
HETATM   28  C21 UNK     1      16.860  14.253  35.076  1.00  0.00     0.090 A 
HETATM   29  C22 UNK     1      14.656  13.705  36.060  1.00  0.00     0.049 C 
HETATM   30  C23 UNK     1      18.121  13.934  34.383  1.00  0.00     0.288 A 
HETATM   31  O2  UNK     1      18.954  14.802  34.148  1.00  0.00    -0.260 OA
ENDBRANCH  18  20
ENDBRANCH   2  18
TORSDOF 6
ENDMDL
MODEL 7
REMARK VINA RESULT:      -8.6      3.486     10.010
REMARK  6 active torsions:
REMARK  status: ('A' for Active; 'I' for Inactive)
REMARK    1  A    between atoms: C6_12  and  N1_4 
REMARK    2  A    between atoms: C1_7  and  N2_5 
REMARK    3  A    between atoms: C8_14  and  N2_5 
REMARK    4  A    between atoms: C11_17  and  N3_6 
REMARK    5  A    between atoms: C8_14  and  N3_6 
REMARK    6  A    between atoms: C6_12  and  C7_13 
ROOT
HETATM    1  S1  UNK     1      16.257   0.333  34.964  1.00  0.00    -0.041 SA
HETATM    2  C8  UNK     1      17.722  -0.110  34.273  1.00  0.00     0.172 C 
ENDROOT
BRANCH   2   3
HETATM    3  N2  UNK     1      18.354  -1.238  34.793  1.00  0.00    -0.362 N 
HETATM    4  H12 UNK     1      18.166  -2.108  34.305  1.00  0.00     0.162 HD
BRANCH   3   5
HETATM    5  C1  UNK     1      19.285  -1.290  35.897  1.00  0.00     0.087 C 
HETATM    6  C2  UNK     1      20.532  -2.097  35.532  1.00  0.00     0.055 C 
HETATM    7  C4  UNK     1      20.247  -3.600  35.464  1.00  0.00     0.275 C 
HETATM    8  N1  UNK     1      19.661  -4.086  36.721  1.00  0.00     0.092 N 
HETATM    9  C5  UNK     1      18.404  -3.389  37.025  1.00  0.00     0.275 C 
HETATM   10  C3  UNK     1      18.626  -1.878  37.147  1.00  0.00     0.055 C 
BRANCH   8  11
HETATM   11  C6  UNK     1      19.443  -5.532  36.659  1.00  0.00     0.311 C 
BRANCH  11  12
HETATM   12  C7  UNK     1      20.206  -6.260  37.728  1.00  0.00    -0.030 A 
HETATM   13  C10 UNK     1      21.552  -5.975  37.928  1.00  0.00     0.009 A 
HETATM   14  C13 UNK     1      22.260  -6.651  38.921  1.00  0.00     0.001 A 
HETATM   15  C14 UNK     1      21.618  -7.606  39.708  1.00  0.00     0.000 A 
HETATM   16  C12 UNK     1      20.268  -7.887  39.502  1.00  0.00     0.001 A 
HETATM   17  C9  UNK     1      19.558  -7.211  38.508  1.00  0.00     0.009 A 
ENDBRANCH  11  12
ENDBRANCH   8  11
ENDBRANCH   3   5
ENDBRANCH   2   3
BRANCH   2  18
HETATM   18  N3  UNK     1      18.388   0.481  33.206  1.00  0.00    -0.333 N 
HETATM   19  H15 UNK     1      18.710  -0.171  32.496  1.00  0.00     0.168 HD
BRANCH  18  20
HETATM   20  C11 UNK     1      18.416   1.818  32.731  1.00  0.00     0.036 A 
HETATM   21  C15 UNK     1      18.216   2.853  33.617  1.00  0.00     0.067 A 
HETATM   22  C18 UNK     1      18.248   4.161  33.128  1.00  0.00     0.092 A 
HETATM   23  C17 UNK     1      18.475   4.447  31.782  1.00  0.00     0.004 A 
HETATM   24  O1  UNK     1      18.041   5.190  34.068  1.00  0.00    -0.275 OA
HETATM   25  C19 UNK     1      18.674   3.367  30.911  1.00  0.00     0.017 A 
HETATM   26  C20 UNK     1      18.493   5.853  31.355  1.00  0.00    -0.043 A 
HETATM   27  C16 UNK     1      18.645   2.051  31.387  1.00  0.00     0.030 A 
HETATM   28  C21 UNK     1      18.292   6.812  32.270  1.00  0.00     0.090 A 
HETATM   29  C22 UNK     1      18.734   6.195  29.914  1.00  0.00     0.049 C 
HETATM   30  C23 UNK     1      18.052   6.526  33.695  1.00  0.00     0.288 A 
HETATM   31  O2  UNK     1      17.872   7.429  34.503  1.00  0.00    -0.260 OA
ENDBRANCH  18  20
ENDBRANCH   2  18
TORSDOF 6
ENDMDL
MODEL 8
REMARK VINA RESULT:      -8.6     13.330     16.049
REMARK  6 active torsions:
REMARK  status: ('A' for Active; 'I' for Inactive)
REMARK    1  A    between atoms: C6_12  and  N1_4 
REMARK    2  A    between atoms: C1_7  and  N2_5 
REMARK    3  A    between atoms: C8_14  and  N2_5 
REMARK    4  A    between atoms: C11_17  and  N3_6 
REMARK    5  A    between atoms: C8_14  and  N3_6 
REMARK    6  A    between atoms: C6_12  and  C7_13 
ROOT
HETATM    1  S1  UNK     1      35.134  -5.846  36.586  1.00  0.00    -0.041 SA
HETATM    2  C8  UNK     1      34.026  -7.069  36.896  1.00  0.00     0.172 C 
ENDROOT
BRANCH   2   3
HETATM    3  N2  UNK     1      33.905  -8.073  35.937  1.00  0.00    -0.362 N 
HETATM    4  H12 UNK     1      33.847  -9.019  36.299  1.00  0.00     0.162 HD
BRANCH   3   5
HETATM    5  C1  UNK     1      33.789  -7.906  34.506  1.00  0.00     0.087 C 
HETATM    6  C2  UNK     1      32.859  -6.742  34.158  1.00  0.00     0.055 C 
HETATM    7  C4  UNK     1      31.389  -7.079  34.422  1.00  0.00     0.275 C 
HETATM    8  N1  UNK     1      30.987  -8.298  33.706  1.00  0.00     0.092 N 
HETATM    9  C5  UNK     1      31.807  -9.447  34.113  1.00  0.00     0.275 C 
HETATM   10  C3  UNK     1      33.293  -9.192  33.839  1.00  0.00     0.055 C 
BRANCH   8  11
HETATM   11  C6  UNK     1      29.568  -8.578  33.925  1.00  0.00     0.311 C 
BRANCH  11  12
HETATM   12  C7  UNK     1      28.728  -8.177  32.747  1.00  0.00    -0.030 A 
HETATM   13  C10 UNK     1      28.603  -9.042  31.666  1.00  0.00     0.009 A 
HETATM   14  C13 UNK     1      27.822  -8.670  30.572  1.00  0.00     0.001 A 
HETATM   15  C14 UNK     1      27.172  -7.436  30.566  1.00  0.00     0.000 A 
HETATM   16  C12 UNK     1      27.303  -6.574  31.654  1.00  0.00     0.001 A 
HETATM   17  C9  UNK     1      28.083  -6.945  32.749  1.00  0.00     0.009 A 
ENDBRANCH  11  12
ENDBRANCH   8  11
ENDBRANCH   3   5
ENDBRANCH   2   3
BRANCH   2  18
HETATM   18  N3  UNK     1      33.225  -7.246  38.017  1.00  0.00    -0.333 N 
HETATM   19  H15 UNK     1      33.623  -6.890  38.880  1.00  0.00     0.168 HD
BRANCH  18  20
HETATM   20  C11 UNK     1      31.837  -7.507  38.158  1.00  0.00     0.036 A 
HETATM   21  C15 UNK     1      30.962  -6.452  38.298  1.00  0.00     0.067 A 
HETATM   22  C18 UNK     1      29.601  -6.732  38.434  1.00  0.00     0.092 A 
HETATM   23  C17 UNK     1      29.105  -8.036  38.431  1.00  0.00     0.004 A 
HETATM   24  O1  UNK     1      28.741  -5.624  38.574  1.00  0.00    -0.275 OA
HETATM   25  C19 UNK     1      30.026  -9.082  38.286  1.00  0.00     0.017 A 
HETATM   26  C20 UNK     1      27.657  -8.237  38.579  1.00  0.00    -0.043 A 
HETATM   27  C16 UNK     1      31.393  -8.817  38.148  1.00  0.00     0.030 A 
HETATM   28  C21 UNK     1      26.862  -7.167  38.711  1.00  0.00     0.090 A 
HETATM   29  C22 UNK     1      27.092  -9.628  38.580  1.00  0.00     0.049 C 
HETATM   30  C23 UNK     1      27.371  -5.784  38.716  1.00  0.00     0.288 A 
HETATM   31  O2  UNK     1      26.613  -4.828  38.838  1.00  0.00    -0.260 OA
ENDBRANCH  18  20
ENDBRANCH   2  18
TORSDOF 6
ENDMDL
MODEL 9
REMARK VINA RESULT:      -8.6      3.684      6.088
REMARK  6 active torsions:
REMARK  status: ('A' for Active; 'I' for Inactive)
REMARK    1  A    between atoms: C6_12  and  N1_4 
REMARK    2  A    between atoms: C1_7  and  N2_5 
REMARK    3  A    between atoms: C8_14  and  N2_5 
REMARK    4  A    between atoms: C11_17  and  N3_6 
REMARK    5  A    between atoms: C8_14  and  N3_6 
REMARK    6  A    between atoms: C6_12  and  C7_13 
ROOT
HETATM    1  S1  UNK     1      19.491   5.922  31.885  1.00  0.00    -0.041 SA
HETATM    2  C8  UNK     1      17.964   5.284  32.172  1.00  0.00     0.172 C 
ENDROOT
BRANCH   2   3
HETATM    3  N2  UNK     1      16.997   6.152  32.672  1.00  0.00    -0.362 N 
HETATM    4  H12 UNK     1      16.983   6.256  33.682  1.00  0.00     0.162 HD
BRANCH   3   5
HETATM    5  C1  UNK     1      16.067   6.958  31.914  1.00  0.00     0.087 C 
HETATM    6  C2  UNK     1      16.538   8.410  31.825  1.00  0.00     0.055 C 
HETATM    7  C4  UNK     1      16.378   9.152  33.156  1.00  0.00     0.275 C 
HETATM    8  N1  UNK     1      14.992   9.082  33.638  1.00  0.00     0.092 N 
HETATM    9  C5  UNK     1      14.565   7.689  33.828  1.00  0.00     0.275 C 
HETATM   10  C3  UNK     1      14.662   6.898  32.520  1.00  0.00     0.055 C 
BRANCH   8  11
HETATM   11  C6  UNK     1      14.844   9.838  34.882  1.00  0.00     0.311 C 
BRANCH  11  12
HETATM   12  C7  UNK     1      13.805  10.916  34.764  1.00  0.00    -0.030 A 
HETATM   13  C10 UNK     1      13.178  11.135  33.543  1.00  0.00     0.009 A 
HETATM   14  C13 UNK     1      12.212  12.135  33.433  1.00  0.00     0.001 A 
HETATM   15  C14 UNK     1      11.880  12.909  34.544  1.00  0.00     0.000 A 
HETATM   16  C12 UNK     1      12.514  12.683  35.766  1.00  0.00     0.001 A 
HETATM   17  C9  UNK     1      13.480  11.682  35.877  1.00  0.00     0.009 A 
ENDBRANCH  11  12
ENDBRANCH   8  11
ENDBRANCH   3   5
ENDBRANCH   2   3
BRANCH   2  18
HETATM   18  N3  UNK     1      17.510   3.991  31.937  1.00  0.00    -0.333 N 
HETATM   19  H15 UNK     1      16.504   3.911  31.826  1.00  0.00     0.168 HD
BRANCH  18  20
HETATM   20  C11 UNK     1      18.175   2.822  31.485  1.00  0.00     0.036 A 
HETATM   21  C15 UNK     1      18.402   1.789  32.369  1.00  0.00     0.067 A 
HETATM   22  C18 UNK     1      19.056   0.648  31.902  1.00  0.00     0.092 A 
HETATM   23  C17 UNK     1      19.484   0.522  30.580  1.00  0.00     0.004 A 
HETATM   24  O1  UNK     1      19.267  -0.385  32.838  1.00  0.00    -0.275 OA
HETATM   25  C19 UNK     1      19.235   1.594  29.711  1.00  0.00     0.017 A 
HETATM   26  C20 UNK     1      20.164  -0.715  30.175  1.00  0.00    -0.043 A 
HETATM   27  C16 UNK     1      18.579   2.744  30.165  1.00  0.00     0.030 A 
HETATM   28  C21 UNK     1      20.352  -1.681  31.085  1.00  0.00     0.090 A 
HETATM   29  C22 UNK     1      20.636  -0.882  28.760  1.00  0.00     0.049 C 
HETATM   30  C23 UNK     1      19.907  -1.563  32.485  1.00  0.00     0.288 A 
HETATM   31  O2  UNK     1      20.096  -2.467  33.290  1.00  0.00    -0.260 OA
ENDBRANCH  18  20
ENDBRANCH   2  18
TORSDOF 6
ENDMDL
MODEL 10
REMARK VINA RESULT:      -8.5     13.648     16.501
REMARK  6 active torsions:
REMARK  status: ('A' for Active; 'I' for Inactive)
REMARK    1  A    between atoms: C6_12  and  N1_4 
REMARK    2  A    between atoms: C1_7  and  N2_5 
REMARK    3  A    between atoms: C8_14  and  N2_5 
REMARK    4  A    between atoms: C11_17  and  N3_6 
REMARK    5  A    between atoms: C8_14  and  N3_6 
REMARK    6  A    between atoms: C6_12  and  C7_13 
ROOT
HETATM    1  S1  UNK     1      36.930  -7.188  34.667  1.00  0.00    -0.041 SA
HETATM    2  C8  UNK     1      35.363  -7.443  35.213  1.00  0.00     0.172 C 
ENDROOT
BRANCH   2   3
HETATM    3  N2  UNK     1      34.400  -7.758  34.256  1.00  0.00    -0.362 N 
HETATM    4  H12 UNK     1      34.041  -8.706  34.293  1.00  0.00     0.162 HD
BRANCH   3   5
HETATM    5  C1  UNK     1      33.822  -6.872  33.272  1.00  0.00     0.087 C 
HETATM    6  C2  UNK     1      32.570  -6.181  33.817  1.00  0.00     0.055 C 
HETATM    7  C4  UNK     1      31.381  -7.141  33.920  1.00  0.00     0.275 C 
HETATM    8  N1  UNK     1      31.102  -7.780  32.626  1.00  0.00     0.092 N 
HETATM    9  C5  UNK     1      32.267  -8.535  32.145  1.00  0.00     0.275 C 
HETATM   10  C3  UNK     1      33.488  -7.623  31.981  1.00  0.00     0.055 C 
BRANCH   8  11
HETATM   11  C6  UNK     1      29.932  -8.653  32.727  1.00  0.00     0.311 C 
BRANCH  11  12
HETATM   12  C7  UNK     1      28.786  -8.153  31.896  1.00  0.00    -0.030 A 
HETATM   13  C10 UNK     1      28.391  -8.866  30.770  1.00  0.00     0.009 A 
HETATM   14  C13 UNK     1      27.326  -8.402  29.998  1.00  0.00     0.001 A 
HETATM   15  C14 UNK     1      26.663  -7.230  30.358  1.00  0.00     0.000 A 
HETATM   16  C12 UNK     1      27.064  -6.520  31.489  1.00  0.00     0.001 A 
HETATM   17  C9  UNK     1      28.130  -6.984  32.262  1.00  0.00     0.009 A 
ENDBRANCH  11  12
ENDBRANCH   8  11
ENDBRANCH   3   5
ENDBRANCH   2   3
BRANCH   2  18
HETATM   18  N3  UNK     1      34.888  -7.422  36.520  1.00  0.00    -0.333 N 
HETATM   19  H15 UNK     1      35.610  -7.484  37.231  1.00  0.00     0.168 HD
BRANCH  18  20
HETATM   20  C11 UNK     1      33.654  -6.992  37.072  1.00  0.00     0.036 A 
HETATM   21  C15 UNK     1      32.646  -7.912  37.268  1.00  0.00     0.067 A 
HETATM   22  C18 UNK     1      31.440  -7.468  37.813  1.00  0.00     0.092 A 
HETATM   23  C17 UNK     1      31.226  -6.134  38.163  1.00  0.00     0.004 A 
HETATM   24  O1  UNK     1      30.437  -8.440  37.999  1.00  0.00    -0.275 OA
HETATM   25  C19 UNK     1      32.275  -5.229  37.948  1.00  0.00     0.017 A 
HETATM   26  C20 UNK     1      29.926  -5.755  38.731  1.00  0.00    -0.043 A 
HETATM   27  C16 UNK     1      33.490  -5.660  37.403  1.00  0.00     0.030 A 
HETATM   28  C21 UNK     1      28.989  -6.700  38.897  1.00  0.00     0.090 A 
HETATM   29  C22 UNK     1      29.664  -4.329  39.117  1.00  0.00     0.049 C 
HETATM   30  C23 UNK     1      29.199  -8.112  38.533  1.00  0.00     0.288 A 
HETATM   31  O2  UNK     1      28.319  -8.949  38.698  1.00  0.00    -0.260 OA
ENDBRANCH  18  20
ENDBRANCH   2  18
TORSDOF 6
ENDMDL
