MODEL 1
REMARK VINA RESULT:      -8.7      0.000      0.000
REMARK  4 active torsions:
REMARK  status: ('A' for Active; 'I' for Inactive)
REMARK    1  A    between atoms: C17_21  and  O2_2 
REMARK    2  A    between atoms: C8_12  and  O2_2 
REMARK    3  A    between atoms: C2_6  and  C4_8 
REMARK    4  A    between atoms: C16_20  and  C17_21 
ROOT
HETATM    1  O1  UNK     1      17.995   3.086  34.300  1.00  0.00    -0.275 OA
HETATM    2  O3  UNK     1      18.050   1.035  35.307  1.00  0.00    -0.260 OA
HETATM    3  C1  UNK     1      18.532   3.258  31.927  1.00  0.00     0.009 A 
HETATM    4  C2  UNK     1      18.753   1.805  31.882  1.00  0.00    -0.007 A 
HETATM    5  C3  UNK     1      18.162   3.854  33.131  1.00  0.00     0.093 A 
HETATM    6  C5  UNK     1      18.678   4.084  30.804  1.00  0.00     0.018 A 
HETATM    7  C6  UNK     1      17.938   5.228  33.242  1.00  0.00     0.075 A 
HETATM    8  C7  UNK     1      18.585   1.102  33.014  1.00  0.00     0.095 A 
HETATM    9  C8  UNK     1      18.090   6.032  32.117  1.00  0.00     0.082 A 
HETATM   10  C9  UNK     1      18.458   5.462  30.899  1.00  0.00     0.038 A 
HETATM   11  C10 UNK     1      18.192   1.715  34.296  1.00  0.00     0.289 A 
ENDROOT
BRANCH   4  12
HETATM   12  C4  UNK     1      19.142   1.029  30.708  1.00  0.00    -0.025 A 
HETATM   13  C11 UNK     1      20.204   0.133  30.793  1.00  0.00     0.012 A 
HETATM   14  C13 UNK     1      20.577  -0.608  29.671  1.00  0.00     0.001 A 
HETATM   15  C15 UNK     1      19.885  -0.451  28.470  1.00  0.00     0.000 A 
HETATM   16  C14 UNK     1      18.822   0.447  28.390  1.00  0.00     0.001 A 
HETATM   17  C12 UNK     1      18.449   1.189  29.512  1.00  0.00     0.012 A 
ENDBRANCH   4  12
BRANCH   9  18
HETATM   18  O2  UNK     1      17.877   7.373  32.205  1.00  0.00    -0.279 OA
BRANCH  18  19
HETATM   19  C17 UNK     1      16.617   7.790  31.733  1.00  0.00     0.263 C 
HETATM   20  O4  UNK     1      16.412   8.346  30.662  1.00  0.00    -0.265 OA
BRANCH  19  21
HETATM   21  C16 UNK     1      15.558   7.444  32.756  1.00  0.00     0.107 C 
HETATM   22  C18 UNK     1      14.224   7.116  32.108  1.00  0.00     0.015 C 
ENDBRANCH  19  21
ENDBRANCH  18  19
ENDBRANCH   9  18
TORSDOF 4
ENDMDL
MODEL 2
REMARK VINA RESULT:      -8.2     22.440     24.068
REMARK  4 active torsions:
REMARK  status: ('A' for Active; 'I' for Inactive)
REMARK    1  A    between atoms: C17_21  and  O2_2 
REMARK    2  A    between atoms: C8_12  and  O2_2 
REMARK    3  A    between atoms: C2_6  and  C4_8 
REMARK    4  A    between atoms: C16_20  and  C17_21 
ROOT
HETATM    1  O1  UNK     1      16.039   6.119   9.925  1.00  0.00    -0.275 OA
HETATM    2  O3  UNK     1      15.813   3.846   9.846  1.00  0.00    -0.260 OA
HETATM    3  C1  UNK     1      14.270   7.520   9.000  1.00  0.00     0.009 A 
HETATM    4  C2  UNK     1      13.517   6.311   8.635  1.00  0.00    -0.007 A 
HETATM    5  C3  UNK     1      15.506   7.389   9.632  1.00  0.00     0.093 A 
HETATM    6  C5  UNK     1      13.800   8.815   8.742  1.00  0.00     0.018 A 
HETATM    7  C6  UNK     1      16.271   8.495  10.004  1.00  0.00     0.075 A 
HETATM    8  C7  UNK     1      14.054   5.116   8.928  1.00  0.00     0.095 A 
HETATM    9  C8  UNK     1      15.789   9.773   9.738  1.00  0.00     0.082 A 
HETATM   10  C9  UNK     1      14.555   9.934   9.109  1.00  0.00     0.038 A 
HETATM   11  C10 UNK     1      15.358   4.958   9.597  1.00  0.00     0.289 A 
ENDROOT
BRANCH   4  12
HETATM   12  C4  UNK     1      12.217   6.275   7.972  1.00  0.00    -0.025 A 
HETATM   13  C11 UNK     1      11.055   6.190   8.735  1.00  0.00     0.012 A 
HETATM   14  C13 UNK     1       9.811   6.155   8.103  1.00  0.00     0.001 A 
HETATM   15  C15 UNK     1       9.736   6.206   6.711  1.00  0.00     0.000 A 
HETATM   16  C14 UNK     1      10.901   6.292   5.951  1.00  0.00     0.001 A 
HETATM   17  C12 UNK     1      12.145   6.327   6.584  1.00  0.00     0.012 A 
ENDBRANCH   4  12
BRANCH   9  18
HETATM   18  O2  UNK     1      16.520  10.865  10.093  1.00  0.00    -0.279 OA
BRANCH  18  19
HETATM   19  C17 UNK     1      17.734  10.999   9.392  1.00  0.00     0.263 C 
HETATM   20  O4  UNK     1      18.836  10.678   9.818  1.00  0.00    -0.265 OA
BRANCH  19  21
HETATM   21  C16 UNK     1      17.464  11.601   8.031  1.00  0.00     0.107 C 
HETATM   22  C18 UNK     1      18.743  11.846   7.251  1.00  0.00     0.015 C 
ENDBRANCH  19  21
ENDBRANCH  18  19
ENDBRANCH   9  18
TORSDOF 4
ENDMDL
MODEL 3
REMARK VINA RESULT:      -8.1      2.692      5.026
REMARK  4 active torsions:
REMARK  status: ('A' for Active; 'I' for Inactive)
REMARK    1  A    between atoms: C17_21  and  O2_2 
REMARK    2  A    between atoms: C8_12  and  O2_2 
REMARK    3  A    between atoms: C2_6  and  C4_8 
REMARK    4  A    between atoms: C16_20  and  C17_21 
ROOT
HETATM    1  O1  UNK     1      19.389   0.012  31.049  1.00  0.00    -0.275 OA
HETATM    2  O3  UNK     1      19.651  -2.153  31.735  1.00  0.00    -0.260 OA
HETATM    3  C1  UNK     1      18.400   1.631  32.582  1.00  0.00     0.009 A 
HETATM    4  C2  UNK     1      18.262   0.573  33.594  1.00  0.00    -0.007 A 
HETATM    5  C3  UNK     1      18.957   1.319  31.342  1.00  0.00     0.093 A 
HETATM    6  C5  UNK     1      17.993   2.954  32.804  1.00  0.00     0.018 A 
HETATM    7  C6  UNK     1      19.114   2.275  30.337  1.00  0.00     0.075 A 
HETATM    8  C7  UNK     1      18.684  -0.663  33.283  1.00  0.00     0.095 A 
HETATM    9  C8  UNK     1      18.703   3.583  30.576  1.00  0.00     0.082 A 
HETATM   10  C9  UNK     1      18.145   3.923  31.807  1.00  0.00     0.038 A 
HETATM   11  C10 UNK     1      19.278  -1.010  31.979  1.00  0.00     0.289 A 
ENDROOT
BRANCH   4  12
HETATM   12  C4  UNK     1      17.703   0.732  34.933  1.00  0.00    -0.025 A 
HETATM   13  C11 UNK     1      18.503   1.222  35.963  1.00  0.00     0.012 A 
HETATM   14  C13 UNK     1      17.969   1.374  37.243  1.00  0.00     0.001 A 
HETATM   15  C15 UNK     1      16.638   1.036  37.488  1.00  0.00     0.000 A 
HETATM   16  C14 UNK     1      15.841   0.547  36.454  1.00  0.00     0.001 A 
HETATM   17  C12 UNK     1      16.375   0.395  35.173  1.00  0.00     0.012 A 
ENDBRANCH   4  12
BRANCH   9  18
HETATM   18  O2  UNK     1      18.848   4.530  29.609  1.00  0.00    -0.279 OA
BRANCH  18  19
HETATM   19  C17 UNK     1      19.175   5.810  30.097  1.00  0.00     0.263 C 
HETATM   20  O4  UNK     1      18.403   6.757  30.167  1.00  0.00    -0.265 OA
BRANCH  19  21
HETATM   21  C16 UNK     1      20.626   5.830  30.522  1.00  0.00     0.107 C 
HETATM   22  C18 UNK     1      20.789   6.231  31.978  1.00  0.00     0.015 C 
ENDBRANCH  19  21
ENDBRANCH  18  19
ENDBRANCH   9  18
TORSDOF 4
ENDMDL
MODEL 4
REMARK VINA RESULT:      -8.1      2.725      6.807
REMARK  4 active torsions:
REMARK  status: ('A' for Active; 'I' for Inactive)
REMARK    1  A    between atoms: C17_21  and  O2_2 
REMARK    2  A    between atoms: C8_12  and  O2_2 
REMARK    3  A    between atoms: C2_6  and  C4_8 
REMARK    4  A    between atoms: C16_20  and  C17_21 
ROOT
HETATM    1  O1  UNK     1      18.443   1.366  30.630  1.00  0.00    -0.275 OA
HETATM    2  O3  UNK     1      18.403   2.375  28.580  1.00  0.00    -0.260 OA
HETATM    3  C1  UNK     1      18.356   2.750  32.637  1.00  0.00     0.009 A 
HETATM    4  C2  UNK     1      18.299   3.952  31.792  1.00  0.00    -0.007 A 
HETATM    5  C3  UNK     1      18.427   1.496  32.032  1.00  0.00     0.093 A 
HETATM    6  C5  UNK     1      18.342   2.804  34.037  1.00  0.00     0.018 A 
HETATM    7  C6  UNK     1      18.485   0.316  32.776  1.00  0.00     0.075 A 
HETATM    8  C7  UNK     1      18.317   3.794  30.459  1.00  0.00     0.095 A 
HETATM    9  C8  UNK     1      18.471   0.388  34.165  1.00  0.00     0.082 A 
HETATM   10  C9  UNK     1      18.399   1.630  34.795  1.00  0.00     0.038 A 
HETATM   11  C10 UNK     1      18.389   2.475  29.802  1.00  0.00     0.289 A 
ENDROOT
BRANCH   4  12
HETATM   12  C4  UNK     1      18.222   5.332  32.263  1.00  0.00    -0.025 A 
HETATM   13  C11 UNK     1      19.386   6.001  32.635  1.00  0.00     0.012 A 
HETATM   14  C13 UNK     1      19.313   7.320  33.086  1.00  0.00     0.001 A 
HETATM   15  C15 UNK     1      18.078   7.963  33.161  1.00  0.00     0.000 A 
HETATM   16  C14 UNK     1      16.916   7.290  32.787  1.00  0.00     0.001 A 
HETATM   17  C12 UNK     1      16.989   5.971  32.337  1.00  0.00     0.012 A 
ENDBRANCH   4  12
BRANCH   9  18
HETATM   18  O2  UNK     1      18.527  -0.751  34.908  1.00  0.00    -0.279 OA
BRANCH  18  19
HETATM   19  C17 UNK     1      17.349  -1.030  35.627  1.00  0.00     0.263 C 
HETATM   20  O4  UNK     1      16.225  -1.086  35.147  1.00  0.00    -0.265 OA
BRANCH  19  21
HETATM   21  C16 UNK     1      17.691  -1.248  37.084  1.00  0.00     0.107 C 
HETATM   22  C18 UNK     1      17.674   0.048  37.875  1.00  0.00     0.015 C 
ENDBRANCH  19  21
ENDBRANCH  18  19
ENDBRANCH   9  18
TORSDOF 4
ENDMDL
MODEL 5
REMARK VINA RESULT:      -8.0      3.149      6.708
REMARK  4 active torsions:
REMARK  status: ('A' for Active; 'I' for Inactive)
REMARK    1  A    between atoms: C17_21  and  O2_2 
REMARK    2  A    between atoms: C8_12  and  O2_2 
REMARK    3  A    between atoms: C2_6  and  C4_8 
REMARK    4  A    between atoms: C16_20  and  C17_21 
ROOT
HETATM    1  O1  UNK     1      19.261  -0.345  30.609  1.00  0.00    -0.275 OA
HETATM    2  O3  UNK     1      19.851   0.120  28.450  1.00  0.00    -0.260 OA
HETATM    3  C1  UNK     1      18.588   1.484  32.076  1.00  0.00     0.009 A 
HETATM    4  C2  UNK     1      18.800   2.433  30.972  1.00  0.00    -0.007 A 
HETATM    5  C3  UNK     1      18.825   0.127  31.862  1.00  0.00     0.093 A 
HETATM    6  C5  UNK     1      18.153   1.882  33.347  1.00  0.00     0.018 A 
HETATM    7  C6  UNK     1      18.643  -0.825  32.866  1.00  0.00     0.075 A 
HETATM    8  C7  UNK     1      19.217   1.951  29.791  1.00  0.00     0.095 A 
HETATM    9  C8  UNK     1      18.213  -0.412  34.123  1.00  0.00     0.082 A 
HETATM   10  C9  UNK     1      17.967   0.939  34.364  1.00  0.00     0.038 A 
HETATM   11  C10 UNK     1      19.470   0.519  29.546  1.00  0.00     0.289 A 
ENDROOT
BRANCH   4  12
HETATM   12  C4  UNK     1      18.599   3.878  31.030  1.00  0.00    -0.025 A 
HETATM   13  C11 UNK     1      17.853   4.431  32.067  1.00  0.00     0.012 A 
HETATM   14  C13 UNK     1      17.661   5.812  32.122  1.00  0.00     0.001 A 
HETATM   15  C15 UNK     1      18.217   6.633  31.142  1.00  0.00     0.000 A 
HETATM   16  C14 UNK     1      18.964   6.075  30.106  1.00  0.00     0.001 A 
HETATM   17  C12 UNK     1      19.156   4.694  30.050  1.00  0.00     0.012 A 
ENDBRANCH   4  12
BRANCH   9  18
HETATM   18  O2  UNK     1      18.031  -1.325  35.115  1.00  0.00    -0.279 OA
BRANCH  18  19
HETATM   19  C17 UNK     1      19.025  -1.301  36.112  1.00  0.00     0.263 C 
HETATM   20  O4  UNK     1      20.231  -1.255  35.906  1.00  0.00    -0.265 OA
BRANCH  19  21
HETATM   21  C16 UNK     1      18.371  -1.339  37.475  1.00  0.00     0.107 C 
HETATM   22  C18 UNK     1      17.755  -0.003  37.850  1.00  0.00     0.015 C 
ENDBRANCH  19  21
ENDBRANCH  18  19
ENDBRANCH   9  18
TORSDOF 4
ENDMDL
MODEL 6
REMARK VINA RESULT:      -8.0      5.293      7.715
REMARK  4 active torsions:
REMARK  status: ('A' for Active; 'I' for Inactive)
REMARK    1  A    between atoms: C17_21  and  O2_2 
REMARK    2  A    between atoms: C8_12  and  O2_2 
REMARK    3  A    between atoms: C2_6  and  C4_8 
REMARK    4  A    between atoms: C16_20  and  C17_21 
ROOT
HETATM    1  O1  UNK     1      20.677  -3.236  35.072  1.00  0.00    -0.275 OA
HETATM    2  O3  UNK     1      20.786  -3.824  37.278  1.00  0.00    -0.260 OA
HETATM    3  C1  UNK     1      19.124  -1.485  34.386  1.00  0.00     0.009 A 
HETATM    4  C2  UNK     1      18.688  -1.339  35.783  1.00  0.00    -0.007 A 
HETATM    5  C3  UNK     1      20.102  -2.427  34.073  1.00  0.00     0.093 A 
HETATM    6  C5  UNK     1      18.598  -0.713  33.341  1.00  0.00     0.018 A 
HETATM    7  C6  UNK     1      20.560  -2.617  32.768  1.00  0.00     0.075 A 
HETATM    8  C7  UNK     1      19.255  -2.125  36.712  1.00  0.00     0.095 A 
HETATM    9  C8  UNK     1      20.025  -1.843  31.743  1.00  0.00     0.082 A 
HETATM   10  C9  UNK     1      19.046  -0.891  32.028  1.00  0.00     0.038 A 
HETATM   11  C10 UNK     1      20.293  -3.125  36.399  1.00  0.00     0.289 A 
ENDROOT
BRANCH   4  12
HETATM   12  C4  UNK     1      17.679  -0.405  36.276  1.00  0.00    -0.025 A 
HETATM   13  C11 UNK     1      16.409  -0.395  35.706  1.00  0.00     0.012 A 
HETATM   14  C13 UNK     1      15.445   0.498  36.177  1.00  0.00     0.001 A 
HETATM   15  C15 UNK     1      15.755   1.374  37.217  1.00  0.00     0.000 A 
HETATM   16  C14 UNK     1      17.028   1.359  37.786  1.00  0.00     0.001 A 
HETATM   17  C12 UNK     1      17.993   0.467  37.314  1.00  0.00     0.012 A 
ENDBRANCH   4  12
BRANCH   9  18
HETATM   18  O2  UNK     1      20.457  -2.013  30.464  1.00  0.00    -0.279 OA
BRANCH  18  19
HETATM   19  C17 UNK     1      20.628  -0.812  29.748  1.00  0.00     0.263 C 
HETATM   20  O4  UNK     1      21.332   0.125  30.098  1.00  0.00    -0.265 OA
BRANCH  19  21
HETATM   21  C16 UNK     1      19.808  -0.864  28.478  1.00  0.00     0.107 C 
HETATM   22  C18 UNK     1      18.843   0.304  28.375  1.00  0.00     0.015 C 
ENDBRANCH  19  21
ENDBRANCH  18  19
ENDBRANCH   9  18
TORSDOF 4
ENDMDL
MODEL 7
REMARK VINA RESULT:      -8.0     15.945     18.464
REMARK  4 active torsions:
REMARK  status: ('A' for Active; 'I' for Inactive)
REMARK    1  A    between atoms: C17_21  and  O2_2 
REMARK    2  A    between atoms: C8_12  and  O2_2 
REMARK    3  A    between atoms: C2_6  and  C4_8 
REMARK    4  A    between atoms: C16_20  and  C17_21 
ROOT
HETATM    1  O1  UNK     1      30.879  -4.532  38.965  1.00  0.00    -0.275 OA
HETATM    2  O3  UNK     1      28.989  -3.543  39.784  1.00  0.00    -0.260 OA
HETATM    3  C1  UNK     1      30.762  -6.832  38.159  1.00  0.00     0.009 A 
HETATM    4  C2  UNK     1      29.331  -6.866  38.497  1.00  0.00    -0.007 A 
HETATM    5  C3  UNK     1      31.492  -5.669  38.404  1.00  0.00     0.093 A 
HETATM    6  C5  UNK     1      31.436  -7.924  37.597  1.00  0.00     0.018 A 
HETATM    7  C6  UNK     1      32.853  -5.571  38.108  1.00  0.00     0.075 A 
HETATM    8  C7  UNK     1      28.778  -5.765  39.031  1.00  0.00     0.095 A 
HETATM    9  C8  UNK     1      33.506  -6.666  37.552  1.00  0.00     0.082 A 
HETATM   10  C9  UNK     1      32.800  -7.840  37.295  1.00  0.00     0.038 A 
HETATM   11  C10 UNK     1      29.533  -4.527  39.294  1.00  0.00     0.289 A 
ENDROOT
BRANCH   4  12
HETATM   12  C4  UNK     1      28.429  -7.998  38.306  1.00  0.00    -0.025 A 
HETATM   13  C11 UNK     1      27.862  -8.226  37.055  1.00  0.00     0.012 A 
HETATM   14  C13 UNK     1      26.999  -9.308  36.872  1.00  0.00     0.001 A 
HETATM   15  C15 UNK     1      26.710 -10.157  37.940  1.00  0.00     0.000 A 
HETATM   16  C14 UNK     1      27.281  -9.925  39.190  1.00  0.00     0.001 A 
HETATM   17  C12 UNK     1      28.143  -8.843  39.374  1.00  0.00     0.012 A 
ENDBRANCH   4  12
BRANCH   9  18
HETATM   18  O2  UNK     1      34.832  -6.590  37.257  1.00  0.00    -0.279 OA
BRANCH  18  19
HETATM   19  C17 UNK     1      35.112  -6.027  35.997  1.00  0.00     0.263 C 
HETATM   20  O4  UNK     1      35.069  -4.833  35.731  1.00  0.00    -0.265 OA
BRANCH  19  21
HETATM   21  C16 UNK     1      35.476  -7.127  35.025  1.00  0.00     0.107 C 
HETATM   22  C18 UNK     1      36.968  -7.170  34.743  1.00  0.00     0.015 C 
ENDBRANCH  19  21
ENDBRANCH  18  19
ENDBRANCH   9  18
TORSDOF 4
ENDMDL
MODEL 8
REMARK VINA RESULT:      -7.9      2.489      6.613
REMARK  4 active torsions:
REMARK  status: ('A' for Active; 'I' for Inactive)
REMARK    1  A    between atoms: C17_21  and  O2_2 
REMARK    2  A    between atoms: C8_12  and  O2_2 
REMARK    3  A    between atoms: C2_6  and  C4_8 
REMARK    4  A    between atoms: C16_20  and  C17_21 
ROOT
HETATM    1  O1  UNK     1      18.511   1.063  33.492  1.00  0.00    -0.275 OA
HETATM    2  O3  UNK     1      18.217   1.472  35.721  1.00  0.00    -0.260 OA
HETATM    3  C1  UNK     1      18.505   2.937  31.931  1.00  0.00     0.009 A 
HETATM    4  C2  UNK     1      18.284   3.859  33.055  1.00  0.00    -0.007 A 
HETATM    5  C3  UNK     1      18.610   1.570  32.182  1.00  0.00     0.093 A 
HETATM    6  C5  UNK     1      18.616   3.371  30.603  1.00  0.00     0.018 A 
HETATM    7  C6  UNK     1      18.819   0.641  31.161  1.00  0.00     0.075 A 
HETATM    8  C7  UNK     1      18.194   3.344  34.292  1.00  0.00     0.095 A 
HETATM    9  C8  UNK     1      18.925   1.090  29.848  1.00  0.00     0.082 A 
HETATM   10  C9  UNK     1      18.824   2.452  29.569  1.00  0.00     0.038 A 
HETATM   11  C10 UNK     1      18.305   1.901  34.576  1.00  0.00     0.289 A 
ENDROOT
BRANCH   4  12
HETATM   12  C4  UNK     1      18.151   5.310  32.964  1.00  0.00    -0.025 A 
HETATM   13  C11 UNK     1      16.973   5.867  32.472  1.00  0.00     0.012 A 
HETATM   14  C13 UNK     1      16.846   7.254  32.385  1.00  0.00     0.001 A 
HETATM   15  C15 UNK     1      17.896   8.077  32.790  1.00  0.00     0.000 A 
HETATM   16  C14 UNK     1      19.073   7.515  33.283  1.00  0.00     0.001 A 
HETATM   17  C12 UNK     1      19.201   6.128  33.370  1.00  0.00     0.012 A 
ENDBRANCH   4  12
BRANCH   9  18
HETATM   18  O2  UNK     1      19.127   0.200  28.838  1.00  0.00    -0.279 OA
BRANCH  18  19
HETATM   19  C17 UNK     1      20.301  -0.567  28.971  1.00  0.00     0.263 C 
HETATM   20  O4  UNK     1      21.434  -0.172  28.729  1.00  0.00    -0.265 OA
BRANCH  19  21
HETATM   21  C16 UNK     1      19.943  -1.952  29.461  1.00  0.00     0.107 C 
HETATM   22  C18 UNK     1      20.641  -2.295  30.765  1.00  0.00     0.015 C 
ENDBRANCH  19  21
ENDBRANCH  18  19
ENDBRANCH   9  18
TORSDOF 4
ENDMDL
MODEL 9
REMARK VINA RESULT:      -7.9     15.985     17.513
REMARK  4 active torsions:
REMARK  status: ('A' for Active; 'I' for Inactive)
REMARK    1  A    between atoms: C17_21  and  O2_2 
REMARK    2  A    between atoms: C8_12  and  O2_2 
REMARK    3  A    between atoms: C2_6  and  C4_8 
REMARK    4  A    between atoms: C16_20  and  C17_21 
ROOT
HETATM    1  O1  UNK     1      28.668  -5.395  39.439  1.00  0.00    -0.275 OA
HETATM    2  O3  UNK     1      29.404  -3.316  40.038  1.00  0.00    -0.260 OA
HETATM    3  C1  UNK     1      30.035  -6.752  37.942  1.00  0.00     0.009 A 
HETATM    4  C2  UNK     1      31.029  -5.670  37.886  1.00  0.00    -0.007 A 
HETATM    5  C3  UNK     1      28.886  -6.582  38.714  1.00  0.00     0.093 A 
HETATM    6  C5  UNK     1      30.187  -7.961  37.250  1.00  0.00     0.018 A 
HETATM    7  C6  UNK     1      27.904  -7.569  38.810  1.00  0.00     0.075 A 
HETATM    8  C7  UNK     1      30.791  -4.551  38.588  1.00  0.00     0.095 A 
HETATM    9  C8  UNK     1      28.071  -8.762  38.113  1.00  0.00     0.082 A 
HETATM   10  C9  UNK     1      29.211  -8.959  37.335  1.00  0.00     0.038 A 
HETATM   11  C10 UNK     1      29.583  -4.355  39.411  1.00  0.00     0.289 A 
ENDROOT
BRANCH   4  12
HETATM   12  C4  UNK     1      32.278  -5.688  37.130  1.00  0.00    -0.025 A 
HETATM   13  C11 UNK     1      33.444  -6.152  37.733  1.00  0.00     0.012 A 
HETATM   14  C13 UNK     1      34.638  -6.169  37.010  1.00  0.00     0.001 A 
HETATM   15  C15 UNK     1      34.660  -5.723  35.689  1.00  0.00     0.000 A 
HETATM   16  C14 UNK     1      33.489  -5.260  35.089  1.00  0.00     0.001 A 
HETATM   17  C12 UNK     1      32.295  -5.243  35.812  1.00  0.00     0.012 A 
ENDBRANCH   4  12
BRANCH   9  18
HETATM   18  O2  UNK     1      27.124  -9.736  38.193  1.00  0.00    -0.279 OA
BRANCH  18  19
HETATM   19  C17 UNK     1      26.074  -9.598  37.265  1.00  0.00     0.263 C 
HETATM   20  O4  UNK     1      25.177  -8.769  37.331  1.00  0.00    -0.265 OA
BRANCH  19  21
HETATM   21  C16 UNK     1      26.230 -10.634  36.174  1.00  0.00     0.107 C 
HETATM   22  C18 UNK     1      25.141 -11.691  36.232  1.00  0.00     0.015 C 
ENDBRANCH  19  21
ENDBRANCH  18  19
ENDBRANCH   9  18
TORSDOF 4
ENDMDL
MODEL 10
REMARK VINA RESULT:      -7.8      2.939      4.880
REMARK  4 active torsions:
REMARK  status: ('A' for Active; 'I' for Inactive)
REMARK    1  A    between atoms: C17_21  and  O2_2 
REMARK    2  A    between atoms: C8_12  and  O2_2 
REMARK    3  A    between atoms: C2_6  and  C4_8 
REMARK    4  A    between atoms: C16_20  and  C17_21 
ROOT
HETATM    1  O1  UNK     1      19.944  -0.275  30.011  1.00  0.00    -0.275 OA
HETATM    2  O3  UNK     1      20.561  -2.474  30.071  1.00  0.00    -0.260 OA
HETATM    3  C1  UNK     1      18.863   0.709  31.963  1.00  0.00     0.009 A 
HETATM    4  C2  UNK     1      18.957  -0.585  32.654  1.00  0.00    -0.007 A 
HETATM    5  C3  UNK     1      19.357   0.825  30.665  1.00  0.00     0.093 A 
HETATM    6  C5  UNK     1      18.294   1.846  32.553  1.00  0.00     0.018 A 
HETATM    7  C6  UNK     1      19.298   2.025  29.953  1.00  0.00     0.075 A 
HETATM    8  C7  UNK     1      19.522  -1.614  32.003  1.00  0.00     0.095 A 
HETATM    9  C8  UNK     1      18.728   3.143  30.554  1.00  0.00     0.082 A 
HETATM   10  C9  UNK     1      18.227   3.055  31.852  1.00  0.00     0.038 A 
HETATM   11  C10 UNK     1      20.052  -1.509  30.631  1.00  0.00     0.289 A 
ENDROOT
BRANCH   4  12
HETATM   12  C4  UNK     1      18.490  -0.874  34.008  1.00  0.00    -0.025 A 
HETATM   13  C11 UNK     1      19.378  -1.386  34.950  1.00  0.00     0.012 A 
HETATM   14  C13 UNK     1      18.932  -1.662  36.243  1.00  0.00     0.001 A 
HETATM   15  C15 UNK     1      17.602  -1.424  36.588  1.00  0.00     0.000 A 
HETATM   16  C14 UNK     1      16.717  -0.910  35.641  1.00  0.00     0.001 A 
HETATM   17  C12 UNK     1      17.163  -0.634  34.348  1.00  0.00     0.012 A 
ENDBRANCH   4  12
BRANCH   9  18
HETATM   18  O2  UNK     1      18.660   4.321  29.876  1.00  0.00    -0.279 OA
BRANCH  18  19
HETATM   19  C17 UNK     1      19.356   5.380  30.489  1.00  0.00     0.263 C 
HETATM   20  O4  UNK     1      20.570   5.441  30.628  1.00  0.00    -0.265 OA
BRANCH  19  21
HETATM   21  C16 UNK     1      18.369   6.430  30.946  1.00  0.00     0.107 C 
HETATM   22  C18 UNK     1      18.612   6.854  32.384  1.00  0.00     0.015 C 
ENDBRANCH  19  21
ENDBRANCH  18  19
ENDBRANCH   9  18
TORSDOF 4
ENDMDL
