MODEL 1
REMARK VINA RESULT:     -10.5      0.000      0.000
REMARK  6 active torsions:
REMARK  status: ('A' for Active; 'I' for Inactive)
REMARK    1  A    between atoms: C5_11  and  N1_4 
REMARK    2  A    between atoms: C6_12  and  N2_5 
REMARK    3  A    between atoms: C16_22  and  N3_6 
REMARK       I    between atoms: C9_15  and  N3_6 
REMARK    4  A    between atoms: C5_11  and  C7_13 
REMARK    5  A    between atoms: C6_12  and  C9_15 
REMARK    6  A    between atoms: C13_19  and  C18_24 
ROOT
HETATM    1  N1  UNK     1      19.258  -3.640  36.445  1.00  0.00     0.096 N 
HETATM    2  N2  UNK     1      19.013  -0.875  35.643  1.00  0.00     0.100 N 
HETATM    3  C1  UNK     1      18.445  -2.693  37.215  1.00  0.00     0.303 C 
HETATM    4  C2  UNK     1      20.359  -2.942  35.772  1.00  0.00     0.303 C 
HETATM    5  C3  UNK     1      17.911  -1.573  36.316  1.00  0.00     0.303 C 
HETATM    6  C4  UNK     1      19.826  -1.823  34.871  1.00  0.00     0.303 C 
ENDROOT
BRANCH   1   7
HETATM    7  C5  UNK     1      19.769  -4.705  37.307  1.00  0.00     0.312 C 
BRANCH   7   8
HETATM    8  C7  UNK     1      19.241  -6.044  36.920  1.00  0.00    -0.011 A 
HETATM    9  C10 UNK     1      18.247  -6.164  36.029  1.00  0.00     0.092 A 
HETATM   10  C14 UNK     1      17.692  -7.464  35.616  1.00  0.00     0.288 A 
HETATM   11  O1  UNK     1      18.250  -8.592  36.196  1.00  0.00    -0.275 OA
HETATM   12  O3  UNK     1      16.783  -7.535  34.796  1.00  0.00    -0.260 OA
HETATM   13  C11 UNK     1      19.296  -8.497  37.136  1.00  0.00     0.090 A 
HETATM   14  C15 UNK     1      19.780  -9.699  37.655  1.00  0.00     0.039 A 
HETATM   15  C8  UNK     1      19.811  -7.258  37.518  1.00  0.00     0.007 A 
HETATM   16  C17 UNK     1      20.812  -9.668  38.587  1.00  0.00     0.010 A 
HETATM   17  C13 UNK     1      21.346  -8.445  38.989  1.00  0.00    -0.058 A 
HETATM   18  C12 UNK     1      20.850  -7.248  38.459  1.00  0.00     0.022 A 
BRANCH  17  19
HETATM   19  C18 UNK     1      22.454  -8.412  39.988  1.00  0.00     0.034 C 
HETATM   20  C21 UNK     1      23.746  -7.847  39.404  1.00  0.00     0.010 C 
ENDBRANCH  17  19
ENDBRANCH   7   8
ENDBRANCH   1   7
BRANCH   2  21
HETATM   21  C6  UNK     1      18.504   0.191  34.782  1.00  0.00     0.375 C 
BRANCH  21  22
HETATM   22  C9  UNK     1      18.341  -0.335  33.367  1.00  0.00     0.250 C 
HETATM   23  O2  UNK     1      17.443  -1.109  33.049  1.00  0.00    -0.271 OA
HETATM   24  N3  UNK     1      19.331   0.191  32.540  1.00  0.00    -0.325 N 
HETATM   25  H15 UNK     1      20.171   0.496  33.027  1.00  0.00     0.169 HD
BRANCH  24  26
HETATM   26  C16 UNK     1      19.522  -0.054  31.159  1.00  0.00     0.046 A 
HETATM   27  C19 UNK     1      19.079   0.877  30.218  1.00  0.00    -0.035 A 
HETATM   28  C22 UNK     1      19.269   0.636  28.857  1.00  0.00     0.009 A 
HETATM   29  C24 UNK     1      18.398   2.139  30.636  1.00  0.00     0.050 C 
HETATM   30  C26 UNK     1      19.902  -0.534  28.437  1.00  0.00     0.001 A 
HETATM   31  C23 UNK     1      20.346  -1.463  29.379  1.00  0.00     0.009 A 
HETATM   32  C20 UNK     1      20.156  -1.223  30.738  1.00  0.00    -0.035 A 
HETATM   33  C25 UNK     1      20.642  -2.237  31.723  1.00  0.00     0.050 C 
ENDBRANCH  24  26
ENDBRANCH  21  22
ENDBRANCH   2  21
TORSDOF 6
ENDMDL
MODEL 2
REMARK VINA RESULT:     -10.2      5.891     10.190
REMARK  6 active torsions:
REMARK  status: ('A' for Active; 'I' for Inactive)
REMARK    1  A    between atoms: C5_11  and  N1_4 
REMARK    2  A    between atoms: C6_12  and  N2_5 
REMARK    3  A    between atoms: C16_22  and  N3_6 
REMARK       I    between atoms: C9_15  and  N3_6 
REMARK    4  A    between atoms: C5_11  and  C7_13 
REMARK    5  A    between atoms: C6_12  and  C9_15 
REMARK    6  A    between atoms: C13_19  and  C18_24 
ROOT
HETATM    1  N1  UNK     1      18.848   3.632  31.305  1.00  0.00     0.096 N 
HETATM    2  N2  UNK     1      19.222   6.308  32.333  1.00  0.00     0.100 N 
HETATM    3  C1  UNK     1      19.363   4.711  30.454  1.00  0.00     0.303 C 
HETATM    4  C2  UNK     1      17.972   4.177  32.349  1.00  0.00     0.303 C 
HETATM    5  C3  UNK     1      20.100   5.764  31.290  1.00  0.00     0.303 C 
HETATM    6  C4  UNK     1      18.709   5.228  33.186  1.00  0.00     0.303 C 
ENDROOT
BRANCH   1   7
HETATM    7  C5  UNK     1      18.143   2.632  30.505  1.00  0.00     0.312 C 
BRANCH   7   8
HETATM    8  C7  UNK     1      18.872   1.333  30.459  1.00  0.00    -0.011 A 
HETATM    9  C10 UNK     1      19.518   0.942  29.352  1.00  0.00     0.092 A 
HETATM   10  C14 UNK     1      20.252  -0.332  29.258  1.00  0.00     0.288 A 
HETATM   11  O1  UNK     1      20.252  -1.135  30.388  1.00  0.00    -0.275 OA
HETATM   12  O3  UNK     1      20.832  -0.656  28.228  1.00  0.00    -0.260 OA
HETATM   13  C11 UNK     1      19.582  -0.750  31.567  1.00  0.00     0.090 A 
HETATM   14  C15 UNK     1      19.650  -1.637  32.642  1.00  0.00     0.039 A 
HETATM   15  C8  UNK     1      18.890   0.461  31.640  1.00  0.00     0.007 A 
HETATM   16  C17 UNK     1      19.007  -1.310  33.831  1.00  0.00     0.010 A 
HETATM   17  C13 UNK     1      18.308  -0.109  33.934  1.00  0.00    -0.058 A 
HETATM   18  C12 UNK     1      18.250   0.770  32.847  1.00  0.00     0.022 A 
BRANCH  17  19
HETATM   19  C18 UNK     1      17.619   0.241  35.211  1.00  0.00     0.034 C 
HETATM   20  C21 UNK     1      16.099   0.191  35.083  1.00  0.00     0.010 C 
ENDBRANCH  17  19
ENDBRANCH   7   8
ENDBRANCH   1   7
BRANCH   2  21
HETATM   21  C6  UNK     1      19.926   7.309  33.132  1.00  0.00     0.375 C 
BRANCH  21  22
HETATM   22  C9  UNK     1      18.947   7.980  34.079  1.00  0.00     0.250 C 
HETATM   23  O2  UNK     1      19.049   7.902  35.300  1.00  0.00    -0.271 OA
HETATM   24  N3  UNK     1      17.971   8.666  33.359  1.00  0.00    -0.325 N 
HETATM   25  H15 UNK     1      17.829   8.324  32.411  1.00  0.00     0.169 HD
BRANCH  24  26
HETATM   26  C16 UNK     1      16.885   9.415  33.872  1.00  0.00     0.046 A 
HETATM   27  C19 UNK     1      15.644   8.805  34.057  1.00  0.00    -0.035 A 
HETATM   28  C22 UNK     1      14.574   9.544  34.564  1.00  0.00     0.009 A 
HETATM   29  C24 UNK     1      15.429   7.366  33.721  1.00  0.00     0.050 C 
HETATM   30  C26 UNK     1      14.746  10.889  34.887  1.00  0.00     0.001 A 
HETATM   31  C23 UNK     1      15.988  11.498  34.703  1.00  0.00     0.009 A 
HETATM   32  C20 UNK     1      17.057  10.761  34.195  1.00  0.00    -0.035 A 
HETATM   33  C25 UNK     1      18.375  11.440  34.009  1.00  0.00     0.050 C 
ENDBRANCH  24  26
ENDBRANCH  21  22
ENDBRANCH   2  21
TORSDOF 6
ENDMDL
MODEL 3
REMARK VINA RESULT:      -9.7      1.986      2.979
REMARK  6 active torsions:
REMARK  status: ('A' for Active; 'I' for Inactive)
REMARK    1  A    between atoms: C5_11  and  N1_4 
REMARK    2  A    between atoms: C6_12  and  N2_5 
REMARK    3  A    between atoms: C16_22  and  N3_6 
REMARK       I    between atoms: C9_15  and  N3_6 
REMARK    4  A    between atoms: C5_11  and  C7_13 
REMARK    5  A    between atoms: C6_12  and  C9_15 
REMARK    6  A    between atoms: C13_19  and  C18_24 
ROOT
HETATM    1  N1  UNK     1      19.091  -2.638  36.283  1.00  0.00     0.096 N 
HETATM    2  N2  UNK     1      18.326   0.019  35.442  1.00  0.00     0.100 N 
HETATM    3  C1  UNK     1      18.583  -1.652  37.243  1.00  0.00     0.303 C 
HETATM    4  C2  UNK     1      19.769  -1.967  35.168  1.00  0.00     0.303 C 
HETATM    5  C3  UNK     1      17.646  -0.652  36.556  1.00  0.00     0.303 C 
HETATM    6  C4  UNK     1      18.832  -0.969  34.480  1.00  0.00     0.303 C 
ENDROOT
BRANCH   1   7
HETATM    7  C5  UNK     1      19.987  -3.588  36.940  1.00  0.00     0.312 C 
BRANCH   7   8
HETATM    8  C7  UNK     1      19.429  -4.969  36.957  1.00  0.00    -0.011 A 
HETATM    9  C10 UNK     1      18.226  -5.235  36.431  1.00  0.00     0.092 A 
HETATM   10  C14 UNK     1      17.632  -6.583  36.424  1.00  0.00     0.288 A 
HETATM   11  O1  UNK     1      18.383  -7.597  36.998  1.00  0.00    -0.275 OA
HETATM   12  O3  UNK     1      16.528  -6.788  35.932  1.00  0.00    -0.260 OA
HETATM   13  C11 UNK     1      19.652  -7.348  37.559  1.00  0.00     0.090 A 
HETATM   14  C15 UNK     1      20.318  -8.444  38.108  1.00  0.00     0.039 A 
HETATM   15  C8  UNK     1      20.201  -6.064  37.558  1.00  0.00     0.007 A 
HETATM   16  C17 UNK     1      21.573  -8.259  38.677  1.00  0.00     0.010 A 
HETATM   17  C13 UNK     1      22.147  -6.990  38.692  1.00  0.00    -0.058 A 
HETATM   18  C12 UNK     1      21.466  -5.900  38.136  1.00  0.00     0.022 A 
BRANCH  17  19
HETATM   19  C18 UNK     1      23.494  -6.791  39.302  1.00  0.00     0.034 C 
HETATM   20  C21 UNK     1      24.476  -7.893  38.914  1.00  0.00     0.010 C 
ENDBRANCH  17  19
ENDBRANCH   7   8
ENDBRANCH   1   7
BRANCH   2  21
HETATM   21  C6  UNK     1      17.431   0.970  34.785  1.00  0.00     0.375 C 
BRANCH  21  22
HETATM   22  C9  UNK     1      18.247   2.107  34.194  1.00  0.00     0.250 C 
HETATM   23  O2  UNK     1      19.238   2.569  34.752  1.00  0.00    -0.271 OA
HETATM   24  N3  UNK     1      17.705   2.505  32.973  1.00  0.00    -0.325 N 
HETATM   25  H15 UNK     1      16.719   2.283  32.857  1.00  0.00     0.169 HD
BRANCH  24  26
HETATM   26  C16 UNK     1      18.173   3.529  32.114  1.00  0.00     0.046 A 
HETATM   27  C19 UNK     1      18.122   4.861  32.526  1.00  0.00    -0.035 A 
HETATM   28  C22 UNK     1      18.583   5.870  31.680  1.00  0.00     0.009 A 
HETATM   29  C24 UNK     1      17.578   5.239  33.865  1.00  0.00     0.050 C 
HETATM   30  C26 UNK     1      19.096   5.546  30.424  1.00  0.00     0.001 A 
HETATM   31  C23 UNK     1      19.148   4.214  30.014  1.00  0.00     0.009 A 
HETATM   32  C20 UNK     1      18.686   3.206  30.859  1.00  0.00    -0.035 A 
HETATM   33  C25 UNK     1      18.755   1.788  30.391  1.00  0.00     0.050 C 
ENDBRANCH  24  26
ENDBRANCH  21  22
ENDBRANCH   2  21
TORSDOF 6
ENDMDL
MODEL 4
REMARK VINA RESULT:      -9.7      6.720     13.410
REMARK  6 active torsions:
REMARK  status: ('A' for Active; 'I' for Inactive)
REMARK    1  A    between atoms: C5_11  and  N1_4 
REMARK    2  A    between atoms: C6_12  and  N2_5 
REMARK    3  A    between atoms: C16_22  and  N3_6 
REMARK       I    between atoms: C9_15  and  N3_6 
REMARK    4  A    between atoms: C5_11  and  C7_13 
REMARK    5  A    between atoms: C6_12  and  C9_15 
REMARK    6  A    between atoms: C13_19  and  C18_24 
ROOT
HETATM    1  N1  UNK     1      18.138   6.246  32.938  1.00  0.00     0.096 N 
HETATM    2  N2  UNK     1      18.209   4.434  30.687  1.00  0.00     0.100 N 
HETATM    3  C1  UNK     1      17.769   4.834  33.085  1.00  0.00     0.303 C 
HETATM    4  C2  UNK     1      17.853   6.711  31.575  1.00  0.00     0.303 C 
HETATM    5  C3  UNK     1      18.495   3.968  32.050  1.00  0.00     0.303 C 
HETATM    6  C4  UNK     1      18.580   5.847  30.540  1.00  0.00     0.303 C 
ENDROOT
BRANCH   1   7
HETATM    7  C5  UNK     1      17.440   7.070  33.924  1.00  0.00     0.312 C 
BRANCH   7   8
HETATM    8  C7  UNK     1      18.066   8.414  34.077  1.00  0.00    -0.011 A 
HETATM    9  C10 UNK     1      19.385   8.545  34.274  1.00  0.00     0.092 A 
HETATM   10  C14 UNK     1      20.048   9.851  34.431  1.00  0.00     0.288 A 
HETATM   11  O1  UNK     1      19.237  10.972  34.366  1.00  0.00    -0.275 OA
HETATM   12  O3  UNK     1      21.258   9.931  34.610  1.00  0.00    -0.260 OA
HETATM   13  C11 UNK     1      17.846  10.867  34.158  1.00  0.00     0.090 A 
HETATM   14  C15 UNK     1      17.130  12.063  34.109  1.00  0.00     0.039 A 
HETATM   15  C8  UNK     1      17.233   9.621  34.012  1.00  0.00     0.007 A 
HETATM   16  C17 UNK     1      15.754  12.021  33.908  1.00  0.00     0.010 A 
HETATM   17  C13 UNK     1      15.113  10.793  33.760  1.00  0.00    -0.058 A 
HETATM   18  C12 UNK     1      15.846   9.601  33.811  1.00  0.00     0.022 A 
BRANCH  17  19
HETATM   19  C18 UNK     1      13.637  10.747  33.543  1.00  0.00     0.034 C 
HETATM   20  C21 UNK     1      13.163  11.802  32.547  1.00  0.00     0.010 C 
ENDBRANCH  17  19
ENDBRANCH   7   8
ENDBRANCH   1   7
BRANCH   2  21
HETATM   21  C6  UNK     1      18.905   3.610  29.701  1.00  0.00     0.375 C 
BRANCH  21  22
HETATM   22  C9  UNK     1      18.567   2.148  29.935  1.00  0.00     0.250 C 
HETATM   23  O2  UNK     1      17.492   1.656  29.605  1.00  0.00    -0.271 OA
HETATM   24  N3  UNK     1      19.637   1.498  30.549  1.00  0.00    -0.325 N 
HETATM   25  H15 UNK     1      20.262   2.112  31.066  1.00  0.00     0.169 HD
BRANCH  24  26
HETATM   26  C16 UNK     1      19.716   0.138  30.932  1.00  0.00     0.046 A 
HETATM   27  C19 UNK     1      20.304  -0.794  30.076  1.00  0.00    -0.035 A 
HETATM   28  C22 UNK     1      20.383  -2.135  30.454  1.00  0.00     0.009 A 
HETATM   29  C24 UNK     1      20.857  -0.387  28.750  1.00  0.00     0.050 C 
HETATM   30  C26 UNK     1      19.875  -2.542  31.687  1.00  0.00     0.001 A 
HETATM   31  C23 UNK     1      19.288  -1.610  32.543  1.00  0.00     0.009 A 
HETATM   32  C20 UNK     1      19.209  -0.270  32.166  1.00  0.00    -0.035 A 
HETATM   33  C25 UNK     1      18.574   0.705  33.104  1.00  0.00     0.050 C 
ENDBRANCH  24  26
ENDBRANCH  21  22
ENDBRANCH   2  21
TORSDOF 6
ENDMDL
MODEL 5
REMARK VINA RESULT:      -9.5      1.050      2.038
REMARK  6 active torsions:
REMARK  status: ('A' for Active; 'I' for Inactive)
REMARK    1  A    between atoms: C5_11  and  N1_4 
REMARK    2  A    between atoms: C6_12  and  N2_5 
REMARK    3  A    between atoms: C16_22  and  N3_6 
REMARK       I    between atoms: C9_15  and  N3_6 
REMARK    4  A    between atoms: C5_11  and  C7_13 
REMARK    5  A    between atoms: C6_12  and  C9_15 
REMARK    6  A    between atoms: C13_19  and  C18_24 
ROOT
HETATM    1  N1  UNK     1      20.298  -3.519  37.222  1.00  0.00     0.096 N 
HETATM    2  N2  UNK     1      18.856  -1.681  35.521  1.00  0.00     0.100 N 
HETATM    3  C1  UNK     1      20.188  -3.746  35.776  1.00  0.00     0.303 C 
HETATM    4  C2  UNK     1      19.131  -2.780  37.716  1.00  0.00     0.303 C 
HETATM    5  C3  UNK     1      20.024  -2.420  35.026  1.00  0.00     0.303 C 
HETATM    6  C4  UNK     1      18.968  -1.453  36.967  1.00  0.00     0.303 C 
ENDROOT
BRANCH   1   7
HETATM    7  C5  UNK     1      20.450  -4.786  37.936  1.00  0.00     0.312 C 
BRANCH   7   8
HETATM    8  C7  UNK     1      19.802  -5.919  37.215  1.00  0.00    -0.011 A 
HETATM    9  C10 UNK     1      18.536  -5.831  36.786  1.00  0.00     0.092 A 
HETATM   10  C14 UNK     1      17.853  -6.922  36.070  1.00  0.00     0.288 A 
HETATM   11  O1  UNK     1      18.587  -8.077  35.850  1.00  0.00    -0.275 OA
HETATM   12  O3  UNK     1      16.693  -6.805  35.691  1.00  0.00    -0.260 OA
HETATM   13  C11 UNK     1      19.921  -8.198  36.289  1.00  0.00     0.090 A 
HETATM   14  C15 UNK     1      20.563  -9.406  36.011  1.00  0.00     0.039 A 
HETATM   15  C8  UNK     1      20.554  -7.155  36.966  1.00  0.00     0.007 A 
HETATM   16  C17 UNK     1      21.880  -9.584  36.421  1.00  0.00     0.010 A 
HETATM   17  C13 UNK     1      22.538  -8.560  37.100  1.00  0.00    -0.058 A 
HETATM   18  C12 UNK     1      21.881  -7.355  37.371  1.00  0.00     0.022 A 
BRANCH  17  19
HETATM   19  C18 UNK     1      23.951  -8.751  37.540  1.00  0.00     0.034 C 
HETATM   20  C21 UNK     1      24.312  -7.871  38.733  1.00  0.00     0.010 C 
ENDBRANCH  17  19
ENDBRANCH   7   8
ENDBRANCH   1   7
BRANCH   2  21
HETATM   21  C6  UNK     1      18.702  -0.415  34.807  1.00  0.00     0.375 C 
BRANCH  21  22
HETATM   22  C9  UNK     1      18.429  -0.692  33.339  1.00  0.00     0.250 C 
HETATM   23  O2  UNK     1      17.408  -1.252  32.951  1.00  0.00    -0.271 OA
HETATM   24  N3  UNK     1      19.479  -0.219  32.555  1.00  0.00    -0.325 N 
HETATM   25  H15 UNK     1      20.366  -0.132  33.046  1.00  0.00     0.169 HD
BRANCH  24  26
HETATM   26  C16 UNK     1      19.603  -0.285  31.146  1.00  0.00     0.046 A 
HETATM   27  C19 UNK     1      20.166  -1.413  30.548  1.00  0.00    -0.035 A 
HETATM   28  C22 UNK     1      20.287  -1.478  29.160  1.00  0.00     0.009 A 
HETATM   29  C24 UNK     1      20.650  -2.565  31.367  1.00  0.00     0.050 C 
HETATM   30  C26 UNK     1      19.844  -0.417  28.370  1.00  0.00     0.001 A 
HETATM   31  C23 UNK     1      19.280   0.710  28.969  1.00  0.00     0.009 A 
HETATM   32  C20 UNK     1      19.160   0.776  30.356  1.00  0.00    -0.035 A 
HETATM   33  C25 UNK     1      18.551   1.996  30.968  1.00  0.00     0.050 C 
ENDBRANCH  24  26
ENDBRANCH  21  22
ENDBRANCH   2  21
TORSDOF 6
ENDMDL
MODEL 6
REMARK VINA RESULT:      -9.2      6.679     13.251
REMARK  6 active torsions:
REMARK  status: ('A' for Active; 'I' for Inactive)
REMARK    1  A    between atoms: C5_11  and  N1_4 
REMARK    2  A    between atoms: C6_12  and  N2_5 
REMARK    3  A    between atoms: C16_22  and  N3_6 
REMARK       I    between atoms: C9_15  and  N3_6 
REMARK    4  A    between atoms: C5_11  and  C7_13 
REMARK    5  A    between atoms: C6_12  and  C9_15 
REMARK    6  A    between atoms: C13_19  and  C18_24 
ROOT
HETATM    1  N1  UNK     1      18.358   6.729  33.082  1.00  0.00     0.096 N 
HETATM    2  N2  UNK     1      18.290   4.762  30.965  1.00  0.00     0.100 N 
HETATM    3  C1  UNK     1      18.086   5.315  33.364  1.00  0.00     0.303 C 
HETATM    4  C2  UNK     1      17.904   7.078  31.730  1.00  0.00     0.303 C 
HETATM    5  C3  UNK     1      18.745   4.411  32.316  1.00  0.00     0.303 C 
HETATM    6  C4  UNK     1      18.564   6.176  30.682  1.00  0.00     0.303 C 
ENDROOT
BRANCH   1   7
HETATM    7  C5  UNK     1      17.724   7.588  34.081  1.00  0.00     0.312 C 
BRANCH   7   8
HETATM    8  C7  UNK     1      16.392   8.083  33.633  1.00  0.00    -0.011 A 
HETATM    9  C10 UNK     1      15.467   7.241  33.152  1.00  0.00     0.092 A 
HETATM   10  C14 UNK     1      14.138   7.682  32.698  1.00  0.00     0.288 A 
HETATM   11  O1  UNK     1      13.867   9.038  32.790  1.00  0.00    -0.275 OA
HETATM   12  O3  UNK     1      13.317   6.881  32.264  1.00  0.00    -0.260 OA
HETATM   13  C11 UNK     1      14.819   9.948  33.293  1.00  0.00     0.090 A 
HETATM   14  C15 UNK     1      14.437  11.289  33.339  1.00  0.00     0.039 A 
HETATM   15  C8  UNK     1      16.075   9.514  33.718  1.00  0.00     0.007 A 
HETATM   16  C17 UNK     1      15.335  12.233  33.825  1.00  0.00     0.010 A 
HETATM   17  C13 UNK     1      16.597  11.831  34.256  1.00  0.00    -0.058 A 
HETATM   18  C12 UNK     1      16.965  10.481  34.204  1.00  0.00     0.022 A 
BRANCH  17  19
HETATM   19  C18 UNK     1      17.561  12.844  34.778  1.00  0.00     0.034 C 
HETATM   20  C21 UNK     1      16.984  14.256  34.762  1.00  0.00     0.010 C 
ENDBRANCH  17  19
ENDBRANCH   7   8
ENDBRANCH   1   7
BRANCH   2  21
HETATM   21  C6  UNK     1      18.921   3.902  29.966  1.00  0.00     0.375 C 
BRANCH  21  22
HETATM   22  C9  UNK     1      18.508   2.460  30.205  1.00  0.00     0.250 C 
HETATM   23  O2  UNK     1      17.382   2.044  29.947  1.00  0.00    -0.271 OA
HETATM   24  N3  UNK     1      19.573   1.733  30.732  1.00  0.00    -0.325 N 
HETATM   25  H15 UNK     1      20.273   2.297  31.211  1.00  0.00     0.169 HD
BRANCH  24  26
HETATM   26  C16 UNK     1      19.591   0.364  31.091  1.00  0.00     0.046 A 
HETATM   27  C19 UNK     1      19.057  -0.043  32.314  1.00  0.00    -0.035 A 
HETATM   28  C22 UNK     1      19.074  -1.393  32.667  1.00  0.00     0.009 A 
HETATM   29  C24 UNK     1      18.463   0.942  33.267  1.00  0.00     0.050 C 
HETATM   30  C26 UNK     1      19.622  -2.334  31.797  1.00  0.00     0.001 A 
HETATM   31  C23 UNK     1      20.154  -1.927  30.573  1.00  0.00     0.009 A 
HETATM   32  C20 UNK     1      20.139  -0.578  30.221  1.00  0.00    -0.035 A 
HETATM   33  C25 UNK     1      20.717  -0.172  28.903  1.00  0.00     0.050 C 
ENDBRANCH  24  26
ENDBRANCH  21  22
ENDBRANCH   2  21
TORSDOF 6
ENDMDL
MODEL 7
REMARK VINA RESULT:      -9.1      3.167     10.898
REMARK  6 active torsions:
REMARK  status: ('A' for Active; 'I' for Inactive)
REMARK    1  A    between atoms: C5_11  and  N1_4 
REMARK    2  A    between atoms: C6_12  and  N2_5 
REMARK    3  A    between atoms: C16_22  and  N3_6 
REMARK       I    between atoms: C9_15  and  N3_6 
REMARK    4  A    between atoms: C5_11  and  C7_13 
REMARK    5  A    between atoms: C6_12  and  C9_15 
REMARK    6  A    between atoms: C13_19  and  C18_24 
ROOT
HETATM    1  N1  UNK     1      18.772   0.846  34.004  1.00  0.00     0.096 N 
HETATM    2  N2  UNK     1      19.357  -1.806  34.993  1.00  0.00     0.100 N 
HETATM    3  C1  UNK     1      18.860   0.572  35.443  1.00  0.00     0.303 C 
HETATM    4  C2  UNK     1      18.332  -0.352  33.279  1.00  0.00     0.303 C 
HETATM    5  C3  UNK     1      19.798  -0.608  35.718  1.00  0.00     0.303 C 
HETATM    6  C4  UNK     1      19.272  -1.531  33.553  1.00  0.00     0.303 C 
ENDROOT
BRANCH   1   7
HETATM    7  C5  UNK     1      17.873   1.970  33.743  1.00  0.00     0.312 C 
BRANCH   7   8
HETATM    8  C7  UNK     1      18.189   2.658  32.460  1.00  0.00    -0.011 A 
HETATM    9  C10 UNK     1      18.297   1.970  31.315  1.00  0.00     0.092 A 
HETATM   10  C14 UNK     1      18.608   2.605  30.023  1.00  0.00     0.288 A 
HETATM   11  O1  UNK     1      18.790   3.979  30.033  1.00  0.00    -0.275 OA
HETATM   12  O3  UNK     1      18.697   1.943  28.995  1.00  0.00    -0.260 OA
HETATM   13  C11 UNK     1      18.682   4.729  31.221  1.00  0.00     0.090 A 
HETATM   14  C15 UNK     1      18.885   6.105  31.111  1.00  0.00     0.039 A 
HETATM   15  C8  UNK     1      18.388   4.112  32.438  1.00  0.00     0.007 A 
HETATM   16  C17 UNK     1      18.792   6.897  32.251  1.00  0.00     0.010 A 
HETATM   17  C13 UNK     1      18.501   6.310  33.480  1.00  0.00    -0.058 A 
HETATM   18  C12 UNK     1      18.299   4.928  33.574  1.00  0.00     0.022 A 
BRANCH  17  19
HETATM   19  C18 UNK     1      18.401   7.159  34.704  1.00  0.00     0.034 C 
HETATM   20  C21 UNK     1      19.402   8.311  34.694  1.00  0.00     0.010 C 
ENDBRANCH  17  19
ENDBRANCH   7   8
ENDBRANCH   1   7
BRANCH   2  21
HETATM   21  C6  UNK     1      20.254  -2.929  35.254  1.00  0.00     0.375 C 
BRANCH  21  22
HETATM   22  C9  UNK     1      19.739  -3.723  36.441  1.00  0.00     0.250 C 
HETATM   23  O2  UNK     1      18.929  -3.264  37.242  1.00  0.00    -0.271 OA
HETATM   24  N3  UNK     1      20.309  -4.995  36.457  1.00  0.00    -0.325 N 
HETATM   25  H15 UNK     1      21.196  -5.065  35.964  1.00  0.00     0.169 HD
BRANCH  24  26
HETATM   26  C16 UNK     1      20.087  -6.029  37.397  1.00  0.00     0.046 A 
HETATM   27  C19 UNK     1      21.029  -6.277  38.396  1.00  0.00    -0.035 A 
HETATM   28  C22 UNK     1      20.810  -7.296  39.323  1.00  0.00     0.009 A 
HETATM   29  C24 UNK     1      22.281  -5.469  38.498  1.00  0.00     0.050 C 
HETATM   30  C26 UNK     1      19.649  -8.066  39.252  1.00  0.00     0.001 A 
HETATM   31  C23 UNK     1      18.707  -7.817  38.253  1.00  0.00     0.009 A 
HETATM   32  C20 UNK     1      18.926  -6.799  37.326  1.00  0.00    -0.035 A 
HETATM   33  C25 UNK     1      17.899  -6.557  36.268  1.00  0.00     0.050 C 
ENDBRANCH  24  26
ENDBRANCH  21  22
ENDBRANCH   2  21
TORSDOF 6
ENDMDL
MODEL 8
REMARK VINA RESULT:      -9.1      1.935      9.984
REMARK  6 active torsions:
REMARK  status: ('A' for Active; 'I' for Inactive)
REMARK    1  A    between atoms: C5_11  and  N1_4 
REMARK    2  A    between atoms: C6_12  and  N2_5 
REMARK    3  A    between atoms: C16_22  and  N3_6 
REMARK       I    between atoms: C9_15  and  N3_6 
REMARK    4  A    between atoms: C5_11  and  C7_13 
REMARK    5  A    between atoms: C6_12  and  C9_15 
REMARK    6  A    between atoms: C13_19  and  C18_24 
ROOT
HETATM    1  N1  UNK     1      18.740  -0.793  35.283  1.00  0.00     0.096 N 
HETATM    2  N2  UNK     1      19.673  -2.978  36.930  1.00  0.00     0.100 N 
HETATM    3  C1  UNK     1      17.936  -1.303  36.400  1.00  0.00     0.303 C 
HETATM    4  C2  UNK     1      19.583  -1.860  34.729  1.00  0.00     0.303 C 
HETATM    5  C3  UNK     1      18.831  -1.911  37.486  1.00  0.00     0.303 C 
HETATM    6  C4  UNK     1      20.479  -2.466  35.814  1.00  0.00     0.303 C 
ENDROOT
BRANCH   1   7
HETATM    7  C5  UNK     1      17.883  -0.218  34.248  1.00  0.00     0.312 C 
BRANCH   7   8
HETATM    8  C7  UNK     1      18.539  -0.221  32.910  1.00  0.00    -0.011 A 
HETATM    9  C10 UNK     1      19.049  -1.347  32.392  1.00  0.00     0.092 A 
HETATM   10  C14 UNK     1      19.706  -1.400  31.075  1.00  0.00     0.288 A 
HETATM   11  O1  UNK     1      19.779  -0.210  30.368  1.00  0.00    -0.275 OA
HETATM   12  O3  UNK     1      20.161  -2.449  30.634  1.00  0.00    -0.260 OA
HETATM   13  C11 UNK     1      19.251   0.990  30.886  1.00  0.00     0.090 A 
HETATM   14  C15 UNK     1      19.382   2.126  30.086  1.00  0.00     0.039 A 
HETATM   15  C8  UNK     1      18.632   1.024  32.136  1.00  0.00     0.007 A 
HETATM   16  C17 UNK     1      18.880   3.339  30.545  1.00  0.00     0.010 A 
HETATM   17  C13 UNK     1      18.257   3.404  31.790  1.00  0.00    -0.058 A 
HETATM   18  C12 UNK     1      18.134   2.256  32.580  1.00  0.00     0.022 A 
BRANCH  17  19
HETATM   19  C18 UNK     1      17.718   4.706  32.283  1.00  0.00     0.034 C 
HETATM   20  C21 UNK     1      18.668   5.869  32.009  1.00  0.00     0.010 C 
ENDBRANCH  17  19
ENDBRANCH   7   8
ENDBRANCH   1   7
BRANCH   2  21
HETATM   21  C6  UNK     1      20.528  -3.555  37.965  1.00  0.00     0.375 C 
BRANCH  21  22
HETATM   22  C9  UNK     1      20.780  -5.020  37.654  1.00  0.00     0.250 C 
HETATM   23  O2  UNK     1      21.718  -5.396  36.957  1.00  0.00    -0.271 OA
HETATM   24  N3  UNK     1      19.818  -5.817  38.271  1.00  0.00    -0.325 N 
HETATM   25  H15 UNK     1      18.945  -5.337  38.481  1.00  0.00     0.169 HD
BRANCH  24  26
HETATM   26  C16 UNK     1      19.705  -7.227  38.225  1.00  0.00     0.046 A 
HETATM   27  C19 UNK     1      20.522  -8.018  39.034  1.00  0.00    -0.035 A 
HETATM   28  C22 UNK     1      20.410  -9.408  38.989  1.00  0.00     0.009 A 
HETATM   29  C24 UNK     1      21.524  -7.407  39.957  1.00  0.00     0.050 C 
HETATM   30  C26 UNK     1      19.482 -10.006  38.137  1.00  0.00     0.001 A 
HETATM   31  C23 UNK     1      18.666  -9.214  37.329  1.00  0.00     0.009 A 
HETATM   32  C20 UNK     1      18.777  -7.825  37.373  1.00  0.00    -0.035 A 
HETATM   33  C25 UNK     1      17.889  -7.004  36.496  1.00  0.00     0.050 C 
ENDBRANCH  24  26
ENDBRANCH  21  22
ENDBRANCH   2  21
TORSDOF 6
ENDMDL
MODEL 9
REMARK VINA RESULT:      -9.1      7.976     11.619
REMARK  6 active torsions:
REMARK  status: ('A' for Active; 'I' for Inactive)
REMARK    1  A    between atoms: C5_11  and  N1_4 
REMARK    2  A    between atoms: C6_12  and  N2_5 
REMARK    3  A    between atoms: C16_22  and  N3_6 
REMARK       I    between atoms: C9_15  and  N3_6 
REMARK    4  A    between atoms: C5_11  and  C7_13 
REMARK    5  A    between atoms: C6_12  and  C9_15 
REMARK    6  A    between atoms: C13_19  and  C18_24 
ROOT
HETATM    1  N1  UNK     1      27.058  -9.515  37.304  1.00  0.00     0.096 N 
HETATM    2  N2  UNK     1      29.891  -8.971  37.139  1.00  0.00     0.100 N 
HETATM    3  C1  UNK     1      27.650  -8.916  36.103  1.00  0.00     0.303 C 
HETATM    4  C2  UNK     1      27.834  -9.151  38.495  1.00  0.00     0.303 C 
HETATM    5  C3  UNK     1      29.116  -9.336  35.948  1.00  0.00     0.303 C 
HETATM    6  C4  UNK     1      29.300  -9.572  38.341  1.00  0.00     0.303 C 
ENDROOT
BRANCH   1   7
HETATM    7  C5  UNK     1      25.660  -9.109  37.452  1.00  0.00     0.312 C 
BRANCH   7   8
HETATM    8  C7  UNK     1      24.729 -10.039  36.753  1.00  0.00    -0.011 A 
HETATM    9  C10 UNK     1      25.149 -11.227  36.297  1.00  0.00     0.092 A 
HETATM   10  C14 UNK     1      24.266 -12.178  35.601  1.00  0.00     0.288 A 
HETATM   11  O1  UNK     1      22.947 -11.792  35.430  1.00  0.00    -0.275 OA
HETATM   12  O3  UNK     1      24.687 -13.257  35.199  1.00  0.00    -0.260 OA
HETATM   13  C11 UNK     1      22.474 -10.550  35.900  1.00  0.00     0.090 A 
HETATM   14  C15 UNK     1      21.127 -10.267  35.672  1.00  0.00     0.039 A 
HETATM   15  C8  UNK     1      23.324  -9.658  36.557  1.00  0.00     0.007 A 
HETATM   16  C17 UNK     1      20.605  -9.055  36.112  1.00  0.00     0.010 A 
HETATM   17  C13 UNK     1      21.429  -8.144  36.771  1.00  0.00    -0.058 A 
HETATM   18  C12 UNK     1      22.779  -8.443  36.992  1.00  0.00     0.022 A 
BRANCH  17  19
HETATM   19  C18 UNK     1      20.869  -6.844  37.244  1.00  0.00     0.034 C 
HETATM   20  C21 UNK     1      19.732  -7.031  38.243  1.00  0.00     0.010 C 
ENDBRANCH  17  19
ENDBRANCH   7   8
ENDBRANCH   1   7
BRANCH   2  21
HETATM   21  C6  UNK     1      31.288  -9.374  36.992  1.00  0.00     0.375 C 
BRANCH  21  22
HETATM   22  C9  UNK     1      32.184  -8.154  37.125  1.00  0.00     0.250 C 
HETATM   23  O2  UNK     1      32.883  -7.952  38.113  1.00  0.00    -0.271 OA
HETATM   24  N3  UNK     1      32.082  -7.355  35.988  1.00  0.00    -0.325 N 
HETATM   25  H15 UNK     1      31.216  -7.472  35.466  1.00  0.00     0.169 HD
BRANCH  24  26
HETATM   26  C16 UNK     1      32.753  -6.137  35.726  1.00  0.00     0.046 A 
HETATM   27  C19 UNK     1      32.179  -4.926  36.116  1.00  0.00    -0.035 A 
HETATM   28  C22 UNK     1      32.841  -3.726  35.859  1.00  0.00     0.009 A 
HETATM   29  C24 UNK     1      30.856  -4.883  36.808  1.00  0.00     0.050 C 
HETATM   30  C26 UNK     1      34.078  -3.736  35.214  1.00  0.00     0.001 A 
HETATM   31  C23 UNK     1      34.652  -4.946  34.826  1.00  0.00     0.009 A 
HETATM   32  C20 UNK     1      33.990  -6.146  35.083  1.00  0.00    -0.035 A 
HETATM   33  C25 UNK     1      34.631  -7.427  34.655  1.00  0.00     0.050 C 
ENDBRANCH  24  26
ENDBRANCH  21  22
ENDBRANCH   2  21
TORSDOF 6
ENDMDL
MODEL 10
REMARK VINA RESULT:      -9.0      6.703     10.316
REMARK  6 active torsions:
REMARK  status: ('A' for Active; 'I' for Inactive)
REMARK    1  A    between atoms: C5_11  and  N1_4 
REMARK    2  A    between atoms: C6_12  and  N2_5 
REMARK    3  A    between atoms: C16_22  and  N3_6 
REMARK       I    between atoms: C9_15  and  N3_6 
REMARK    4  A    between atoms: C5_11  and  C7_13 
REMARK    5  A    between atoms: C6_12  and  C9_15 
REMARK    6  A    between atoms: C13_19  and  C18_24 
ROOT
HETATM    1  N1  UNK     1      25.432  -8.268  38.492  1.00  0.00     0.096 N 
HETATM    2  N2  UNK     1      28.307  -8.391  38.218  1.00  0.00     0.100 N 
HETATM    3  C1  UNK     1      26.235  -7.051  38.328  1.00  0.00     0.303 C 
HETATM    4  C2  UNK     1      26.218  -9.314  39.159  1.00  0.00     0.303 C 
HETATM    5  C3  UNK     1      27.522  -7.345  37.551  1.00  0.00     0.303 C 
HETATM    6  C4  UNK     1      27.504  -9.609  38.381  1.00  0.00     0.303 C 
ENDROOT
BRANCH   1   7
HETATM    7  C5  UNK     1      24.206  -7.985  39.237  1.00  0.00     0.312 C 
BRANCH   7   8
HETATM    8  C7  UNK     1      23.089  -7.567  38.344  1.00  0.00    -0.011 A 
HETATM    9  C10 UNK     1      22.460  -6.398  38.525  1.00  0.00     0.092 A 
HETATM   10  C14 UNK     1      21.351  -5.943  37.669  1.00  0.00     0.288 A 
HETATM   11  O1  UNK     1      20.971  -6.789  36.640  1.00  0.00    -0.275 OA
HETATM   12  O3  UNK     1      20.799  -4.865  37.864  1.00  0.00    -0.260 OA
HETATM   13  C11 UNK     1      21.615  -8.025  36.424  1.00  0.00     0.090 A 
HETATM   14  C15 UNK     1      21.148  -8.795  35.358  1.00  0.00     0.039 A 
HETATM   15  C8  UNK     1      22.663  -8.443  37.245  1.00  0.00     0.007 A 
HETATM   16  C17 UNK     1      21.744 -10.024  35.098  1.00  0.00     0.010 A 
HETATM   17  C13 UNK     1      22.793 -10.469  35.901  1.00  0.00    -0.058 A 
HETATM   18  C12 UNK     1      23.250  -9.685  36.966  1.00  0.00     0.022 A 
BRANCH  17  19
HETATM   19  C18 UNK     1      23.434 -11.788  35.621  1.00  0.00     0.034 C 
HETATM   20  C21 UNK     1      24.897 -11.825  36.052  1.00  0.00     0.010 C 
ENDBRANCH  17  19
ENDBRANCH   7   8
ENDBRANCH   1   7
BRANCH   2  21
HETATM   21  C6  UNK     1      29.533  -8.673  37.475  1.00  0.00     0.375 C 
BRANCH  21  22
HETATM   22  C9  UNK     1      30.515  -7.531  37.667  1.00  0.00     0.250 C 
HETATM   23  O2  UNK     1      31.342  -7.515  38.574  1.00  0.00    -0.271 OA
HETATM   24  N3  UNK     1      30.327  -6.562  36.683  1.00  0.00    -0.325 N 
HETATM   25  H15 UNK     1      29.399  -6.558  36.267  1.00  0.00     0.169 HD
BRANCH  24  26
HETATM   26  C16 UNK     1      31.040  -5.350  36.517  1.00  0.00     0.046 A 
HETATM   27  C19 UNK     1      30.682  -4.224  37.260  1.00  0.00    -0.035 A 
HETATM   28  C22 UNK     1      31.385  -3.030  37.097  1.00  0.00     0.009 A 
HETATM   29  C24 UNK     1      29.551  -4.265  38.235  1.00  0.00     0.050 C 
HETATM   30  C26 UNK     1      32.445  -2.962  36.194  1.00  0.00     0.001 A 
HETATM   31  C23 UNK     1      32.803  -4.089  35.453  1.00  0.00     0.009 A 
HETATM   32  C20 UNK     1      32.101  -5.282  35.615  1.00  0.00    -0.035 A 
HETATM   33  C25 UNK     1      32.508  -6.472  34.807  1.00  0.00     0.050 C 
ENDBRANCH  24  26
ENDBRANCH  21  22
ENDBRANCH   2  21
TORSDOF 6
ENDMDL
