MODEL 1
REMARK VINA RESULT:      -9.2      0.000      0.000
REMARK  3 active torsions:
REMARK  status: ('A' for Active; 'I' for Inactive)
REMARK    1  A    between atoms: C1_6  and  N1_4 
REMARK       I    between atoms: C11_16  and  N2_5 
REMARK    2  A    between atoms: C3_8  and  N2_5 
REMARK    3  A    between atoms: C11_16  and  C4_9 
ROOT
HETATM    1  O2  UNK     1      17.590   3.272  32.830  1.00  0.00    -0.267 OA
HETATM    2  N2  UNK     1      18.763   4.751  31.422  1.00  0.00    -0.323 N 
HETATM    3  C11 UNK     1      18.286   3.518  31.847  1.00  0.00     0.262 C 
HETATM    4  H6  UNK     1      19.313   4.789  30.568  1.00  0.00     0.169 HD
ENDROOT
BRANCH   3   5
HETATM    5  C4  UNK     1      18.706   2.427  30.959  1.00  0.00     0.108 A 
HETATM    6  C13 UNK     1      18.658   2.551  29.485  1.00  0.00     0.304 A 
HETATM    7  O1  UNK     1      19.085   1.448  28.751  1.00  0.00    -0.274 OA
HETATM    8  O3  UNK     1      18.263   3.573  28.933  1.00  0.00    -0.259 OA
HETATM    9  C5  UNK     1      19.540   0.270  29.374  1.00  0.00     0.089 A 
HETATM   10  C14 UNK     1      19.947  -0.781  28.556  1.00  0.00     0.038 A 
HETATM   11  C2  UNK     1      19.577   0.174  30.762  1.00  0.00    -0.001 A 
HETATM   12  C18 UNK     1      20.401  -1.959  29.145  1.00  0.00     0.003 A 
HETATM   13  C17 UNK     1      20.444  -2.074  30.536  1.00  0.00     0.001 A 
HETATM   14  C12 UNK     1      20.034  -1.011  31.345  1.00  0.00     0.014 A 
HETATM   15  C6  UNK     1      19.138   1.310  31.558  1.00  0.00     0.037 A 
ENDBRANCH   3   5
BRANCH   2  16
HETATM   16  C3  UNK     1      18.553   6.013  32.029  1.00  0.00     0.035 A 
HETATM   17  C10 UNK     1      19.523   6.526  32.875  1.00  0.00     0.032 A 
HETATM   18  C8  UNK     1      19.317   7.769  33.473  1.00  0.00     0.031 A 
HETATM   19  C1  UNK     1      18.144   8.480  33.219  1.00  0.00     0.029 A 
HETATM   20  C7  UNK     1      17.178   7.948  32.364  1.00  0.00     0.031 A 
HETATM   21  C9  UNK     1      17.384   6.705  31.766  1.00  0.00     0.032 A 
BRANCH  19  22
HETATM   22  N1  UNK     1      17.936   9.737  33.824  1.00  0.00    -0.390 N 
HETATM   23  C15 UNK     1      16.608  10.137  34.246  1.00  0.00     0.149 C 
HETATM   24  C16 UNK     1      19.049  10.639  34.044  1.00  0.00     0.149 C 
ENDBRANCH  19  22
ENDBRANCH   2  16
TORSDOF 3
ENDMDL
MODEL 2
REMARK VINA RESULT:      -8.8      1.517      2.507
REMARK  3 active torsions:
REMARK  status: ('A' for Active; 'I' for Inactive)
REMARK    1  A    between atoms: C1_6  and  N1_4 
REMARK       I    between atoms: C11_16  and  N2_5 
REMARK    2  A    between atoms: C3_8  and  N2_5 
REMARK    3  A    between atoms: C11_16  and  C4_9 
ROOT
HETATM    1  O2  UNK     1      18.648   4.807  30.376  1.00  0.00    -0.267 OA
HETATM    2  N2  UNK     1      17.656   4.641  32.505  1.00  0.00    -0.323 N 
HETATM    3  C11 UNK     1      18.317   4.174  31.377  1.00  0.00     0.262 C 
HETATM    4  H6  UNK     1      17.473   3.987  33.263  1.00  0.00     0.169 HD
ENDROOT
BRANCH   3   5
HETATM    5  C4  UNK     1      18.625   2.742  31.469  1.00  0.00     0.108 A 
HETATM    6  C13 UNK     1      18.369   1.961  32.700  1.00  0.00     0.304 A 
HETATM    7  O1  UNK     1      18.702   0.609  32.663  1.00  0.00    -0.274 OA
HETATM    8  O3  UNK     1      17.887   2.473  33.704  1.00  0.00    -0.259 OA
HETATM    9  C5  UNK     1      19.256   0.011  31.515  1.00  0.00     0.089 A 
HETATM   10  C14 UNK     1      19.557  -1.348  31.573  1.00  0.00     0.038 A 
HETATM   11  C2  UNK     1      19.490   0.764  30.368  1.00  0.00    -0.001 A 
HETATM   12  C18 UNK     1      20.107  -1.967  30.453  1.00  0.00     0.003 A 
HETATM   13  C17 UNK     1      20.349  -1.227  29.294  1.00  0.00     0.001 A 
HETATM   14  C12 UNK     1      20.042   0.135  29.249  1.00  0.00     0.014 A 
HETATM   15  C6  UNK     1      19.152   2.179  30.375  1.00  0.00     0.037 A 
ENDBRANCH   3   5
BRANCH   2  16
HETATM   16  C3  UNK     1      17.210   5.960  32.761  1.00  0.00     0.035 A 
HETATM   17  C10 UNK     1      16.175   6.482  32.004  1.00  0.00     0.032 A 
HETATM   18  C8  UNK     1      15.735   7.782  32.255  1.00  0.00     0.031 A 
HETATM   19  C1  UNK     1      16.339   8.541  33.258  1.00  0.00     0.029 A 
HETATM   20  C7  UNK     1      17.381   7.999  34.011  1.00  0.00     0.031 A 
HETATM   21  C9  UNK     1      17.820   6.699  33.760  1.00  0.00     0.032 A 
BRANCH  19  22
HETATM   22  N1  UNK     1      15.894   9.855  33.512  1.00  0.00    -0.390 N 
HETATM   23  C15 UNK     1      14.567  10.273  33.106  1.00  0.00     0.149 C 
HETATM   24  C16 UNK     1      16.753  10.801  34.196  1.00  0.00     0.149 C 
ENDBRANCH  19  22
ENDBRANCH   2  16
TORSDOF 3
ENDMDL
MODEL 3
REMARK VINA RESULT:      -8.7      7.977     12.726
REMARK  3 active torsions:
REMARK  status: ('A' for Active; 'I' for Inactive)
REMARK    1  A    between atoms: C1_6  and  N1_4 
REMARK       I    between atoms: C11_16  and  N2_5 
REMARK    2  A    between atoms: C3_8  and  N2_5 
REMARK    3  A    between atoms: C11_16  and  C4_9 
ROOT
HETATM    1  O2  UNK     1      20.881  -3.981  37.651  1.00  0.00    -0.267 OA
HETATM    2  N2  UNK     1      19.479  -4.965  36.033  1.00  0.00    -0.323 N 
HETATM    3  C11 UNK     1      20.055  -3.918  36.741  1.00  0.00     0.262 C 
HETATM    4  H6  UNK     1      18.823  -4.741  35.288  1.00  0.00     0.169 HD
ENDROOT
BRANCH   3   5
HETATM    5  C4  UNK     1      19.570  -2.609  36.286  1.00  0.00     0.108 A 
HETATM    6  C13 UNK     1      19.866  -2.089  34.932  1.00  0.00     0.304 A 
HETATM    7  O1  UNK     1      19.348  -0.836  34.617  1.00  0.00    -0.274 OA
HETATM    8  O3  UNK     1      20.532  -2.728  34.124  1.00  0.00    -0.259 OA
HETATM    9  C5  UNK     1      18.583  -0.095  35.538  1.00  0.00     0.089 A 
HETATM   10  C14 UNK     1      18.108   1.151  35.133  1.00  0.00     0.038 A 
HETATM   11  C2  UNK     1      18.317  -0.602  36.806  1.00  0.00    -0.001 A 
HETATM   12  C18 UNK     1      17.349   1.907  36.022  1.00  0.00     0.003 A 
HETATM   13  C17 UNK     1      17.073   1.414  37.300  1.00  0.00     0.001 A 
HETATM   14  C12 UNK     1      17.555   0.163  37.693  1.00  0.00     0.014 A 
HETATM   15  C6  UNK     1      18.843  -1.910  37.165  1.00  0.00     0.037 A 
ENDBRANCH   3   5
BRANCH   2  16
HETATM   16  C3  UNK     1      19.713  -6.351  36.200  1.00  0.00     0.035 A 
HETATM   17  C10 UNK     1      19.108  -7.016  37.253  1.00  0.00     0.032 A 
HETATM   18  C8  UNK     1      19.339  -8.383  37.418  1.00  0.00     0.031 A 
HETATM   19  C1  UNK     1      20.170  -9.062  36.528  1.00  0.00     0.029 A 
HETATM   20  C7  UNK     1      20.770  -8.376  35.472  1.00  0.00     0.031 A 
HETATM   21  C9  UNK     1      20.540  -7.010  35.307  1.00  0.00     0.032 A 
BRANCH  19  22
HETATM   22  N1  UNK     1      20.402 -10.443  36.694  1.00  0.00    -0.390 N 
HETATM   23  C15 UNK     1      21.346 -11.137  35.840  1.00  0.00     0.149 C 
HETATM   24  C16 UNK     1      19.711 -11.184  37.731  1.00  0.00     0.149 C 
ENDBRANCH  19  22
ENDBRANCH   2  16
TORSDOF 3
ENDMDL
MODEL 4
REMARK VINA RESULT:      -8.4      8.382     10.506
REMARK  3 active torsions:
REMARK  status: ('A' for Active; 'I' for Inactive)
REMARK    1  A    between atoms: C1_6  and  N1_4 
REMARK       I    between atoms: C11_16  and  N2_5 
REMARK    2  A    between atoms: C3_8  and  N2_5 
REMARK    3  A    between atoms: C11_16  and  C4_9 
ROOT
HETATM    1  O2  UNK     1      21.306  -4.176  37.230  1.00  0.00    -0.267 OA
HETATM    2  N2  UNK     1      19.052  -4.085  36.553  1.00  0.00    -0.323 N 
HETATM    3  C11 UNK     1      20.247  -4.705  36.896  1.00  0.00     0.262 C 
HETATM    4  H6  UNK     1      18.254  -4.671  36.319  1.00  0.00     0.169 HD
ENDROOT
BRANCH   3   5
HETATM    5  C4  UNK     1      20.151  -6.168  36.828  1.00  0.00     0.108 A 
HETATM    6  C13 UNK     1      20.237  -6.902  35.546  1.00  0.00     0.304 A 
HETATM    7  O1  UNK     1      20.135  -8.289  35.612  1.00  0.00    -0.274 OA
HETATM    8  O3  UNK     1      20.392  -6.323  34.476  1.00  0.00    -0.259 OA
HETATM    9  C5  UNK     1      19.957  -8.964  36.835  1.00  0.00     0.089 A 
HETATM   10  C14 UNK     1      19.864 -10.354  36.801  1.00  0.00     0.038 A 
HETATM   11  C2  UNK     1      19.878  -8.254  38.029  1.00  0.00    -0.001 A 
HETATM   12  C18 UNK     1      19.688 -11.049  37.995  1.00  0.00     0.003 A 
HETATM   13  C17 UNK     1      19.605 -10.353  39.204  1.00  0.00     0.001 A 
HETATM   14  C12 UNK     1      19.700  -8.959  39.223  1.00  0.00     0.014 A 
HETATM   15  C6  UNK     1      19.982  -6.804  37.994  1.00  0.00     0.037 A 
ENDBRANCH   3   5
BRANCH   2  16
HETATM   16  C3  UNK     1      18.781  -2.696  36.510  1.00  0.00     0.035 A 
HETATM   17  C10 UNK     1      17.975  -2.135  37.486  1.00  0.00     0.032 A 
HETATM   18  C8  UNK     1      17.708  -0.766  37.444  1.00  0.00     0.031 A 
HETATM   19  C1  UNK     1      18.248   0.019  36.427  1.00  0.00     0.029 A 
HETATM   20  C7  UNK     1      19.058  -0.563  35.451  1.00  0.00     0.031 A 
HETATM   21  C9  UNK     1      19.326  -1.932  35.493  1.00  0.00     0.032 A 
BRANCH  19  22
HETATM   22  N1  UNK     1      17.978   1.403  36.385  1.00  0.00    -0.390 N 
HETATM   23  C15 UNK     1      16.941   1.975  37.222  1.00  0.00     0.149 C 
HETATM   24  C16 UNK     1      18.742   2.274  35.515  1.00  0.00     0.149 C 
ENDBRANCH  19  22
ENDBRANCH   2  16
TORSDOF 3
ENDMDL
MODEL 5
REMARK VINA RESULT:      -8.1      1.378      2.224
REMARK  3 active torsions:
REMARK  status: ('A' for Active; 'I' for Inactive)
REMARK    1  A    between atoms: C1_6  and  N1_4 
REMARK       I    between atoms: C11_16  and  N2_5 
REMARK    2  A    between atoms: C3_8  and  N2_5 
REMARK    3  A    between atoms: C11_16  and  C4_9 
ROOT
HETATM    1  O2  UNK     1      17.257   4.137  30.923  1.00  0.00    -0.267 OA
HETATM    2  N2  UNK     1      18.408   4.450  32.954  1.00  0.00    -0.323 N 
HETATM    3  C11 UNK     1      17.956   3.736  31.851  1.00  0.00     0.262 C 
HETATM    4  H6  UNK     1      19.002   3.973  33.628  1.00  0.00     0.169 HD
ENDROOT
BRANCH   3   5
HETATM    5  C4  UNK     1      18.414   2.341  31.869  1.00  0.00     0.108 A 
HETATM    6  C13 UNK     1      18.240   1.473  33.056  1.00  0.00     0.304 A 
HETATM    7  O1  UNK     1      18.713   0.168  32.950  1.00  0.00    -0.274 OA
HETATM    8  O3  UNK     1      17.705   1.878  34.082  1.00  0.00    -0.259 OA
HETATM    9  C5  UNK     1      19.329  -0.307  31.775  1.00  0.00     0.089 A 
HETATM   10  C14 UNK     1      19.771  -1.627  31.764  1.00  0.00     0.038 A 
HETATM   11  C2  UNK     1      19.483   0.527  30.672  1.00  0.00    -0.001 A 
HETATM   12  C18 UNK     1      20.385  -2.125  30.617  1.00  0.00     0.003 A 
HETATM   13  C17 UNK     1      20.549  -1.303  29.499  1.00  0.00     0.001 A 
HETATM   14  C12 UNK     1      20.099   0.020  29.525  1.00  0.00     0.014 A 
HETATM   15  C6  UNK     1      18.997   1.896  30.751  1.00  0.00     0.037 A 
ENDBRANCH   3   5
BRANCH   2  16
HETATM   16  C3  UNK     1      18.165   5.810  33.260  1.00  0.00     0.035 A 
HETATM   17  C10 UNK     1      18.899   6.790  32.614  1.00  0.00     0.032 A 
HETATM   18  C8  UNK     1      18.660   8.131  32.916  1.00  0.00     0.031 A 
HETATM   19  C1  UNK     1      17.691   8.472  33.859  1.00  0.00     0.029 A 
HETATM   20  C7  UNK     1      16.960   7.471  34.501  1.00  0.00     0.031 A 
HETATM   21  C9  UNK     1      17.200   6.130  34.199  1.00  0.00     0.032 A 
BRANCH  19  22
HETATM   22  N1  UNK     1      17.449   9.827  34.164  1.00  0.00    -0.390 N 
HETATM   23  C15 UNK     1      16.132  10.261  34.587  1.00  0.00     0.149 C 
HETATM   24  C16 UNK     1      18.517  10.803  34.073  1.00  0.00     0.149 C 
ENDBRANCH  19  22
ENDBRANCH   2  16
TORSDOF 3
ENDMDL
MODEL 6
REMARK VINA RESULT:      -8.1      6.255     10.314
REMARK  3 active torsions:
REMARK  status: ('A' for Active; 'I' for Inactive)
REMARK    1  A    between atoms: C1_6  and  N1_4 
REMARK       I    between atoms: C11_16  and  N2_5 
REMARK    2  A    between atoms: C3_8  and  N2_5 
REMARK    3  A    between atoms: C11_16  and  C4_9 
ROOT
HETATM    1  O2  UNK     1      18.491  -1.712  36.090  1.00  0.00    -0.267 OA
HETATM    2  N2  UNK     1      19.899  -3.252  34.997  1.00  0.00    -0.323 N 
HETATM    3  C11 UNK     1      19.129  -2.102  35.113  1.00  0.00     0.262 C 
HETATM    4  H6  UNK     1      20.386  -3.421  34.120  1.00  0.00     0.169 HD
ENDROOT
BRANCH   3   5
HETATM    5  C4  UNK     1      19.130  -1.308  33.878  1.00  0.00     0.108 A 
HETATM    6  C13 UNK     1      18.494   0.027  33.803  1.00  0.00     0.304 A 
HETATM    7  O1  UNK     1      18.564   0.683  32.577  1.00  0.00    -0.274 OA
HETATM    8  O3  UNK     1      17.936   0.534  34.770  1.00  0.00    -0.259 OA
HETATM    9  C5  UNK     1      19.203   0.109  31.461  1.00  0.00     0.089 A 
HETATM   10  C14 UNK     1      19.220   0.842  30.276  1.00  0.00     0.038 A 
HETATM   11  C2  UNK     1      19.793  -1.147  31.553  1.00  0.00    -0.001 A 
HETATM   12  C18 UNK     1      19.844   0.300  29.156  1.00  0.00     0.003 A 
HETATM   13  C17 UNK     1      20.442  -0.961  29.229  1.00  0.00     0.001 A 
HETATM   14  C12 UNK     1      20.417  -1.684  30.425  1.00  0.00     0.014 A 
HETATM   15  C6  UNK     1      19.739  -1.859  32.822  1.00  0.00     0.037 A 
ENDBRANCH   3   5
BRANCH   2  16
HETATM   16  C3  UNK     1      20.126  -4.243  35.983  1.00  0.00     0.035 A 
HETATM   17  C10 UNK     1      19.585  -5.506  35.808  1.00  0.00     0.032 A 
HETATM   18  C8  UNK     1      19.808  -6.482  36.780  1.00  0.00     0.031 A 
HETATM   19  C1  UNK     1      20.566  -6.180  37.911  1.00  0.00     0.029 A 
HETATM   20  C7  UNK     1      21.103  -4.903  38.070  1.00  0.00     0.031 A 
HETATM   21  C9  UNK     1      20.881  -3.926  37.098  1.00  0.00     0.032 A 
BRANCH  19  22
HETATM   22  N1  UNK     1      20.792  -7.167  38.893  1.00  0.00    -0.390 N 
HETATM   23  C15 UNK     1      19.766  -8.145  39.201  1.00  0.00     0.149 C 
HETATM   24  C16 UNK     1      22.057  -7.227  39.596  1.00  0.00     0.149 C 
ENDBRANCH  19  22
ENDBRANCH   2  16
TORSDOF 3
ENDMDL
MODEL 7
REMARK VINA RESULT:      -8.1     14.847     16.493
REMARK  3 active torsions:
REMARK  status: ('A' for Active; 'I' for Inactive)
REMARK    1  A    between atoms: C1_6  and  N1_4 
REMARK       I    between atoms: C11_16  and  N2_5 
REMARK    2  A    between atoms: C3_8  and  N2_5 
REMARK    3  A    between atoms: C11_16  and  C4_9 
ROOT
HETATM    1  O2  UNK     1      26.121  -9.089  39.445  1.00  0.00    -0.267 OA
HETATM    2  N2  UNK     1      24.789  -7.470  38.372  1.00  0.00    -0.323 N 
HETATM    3  C11 UNK     1      25.956  -7.992  38.915  1.00  0.00     0.262 C 
HETATM    4  H6  UNK     1      24.825  -6.547  37.946  1.00  0.00     0.169 HD
ENDROOT
BRANCH   3   5
HETATM    5  C4  UNK     1      27.085  -7.061  38.800  1.00  0.00     0.108 A 
HETATM    6  C13 UNK     1      26.895  -5.592  38.817  1.00  0.00     0.304 A 
HETATM    7  O1  UNK     1      28.044  -4.813  38.703  1.00  0.00    -0.274 OA
HETATM    8  O3  UNK     1      25.786  -5.083  38.927  1.00  0.00    -0.259 OA
HETATM    9  C5  UNK     1      29.323  -5.388  38.576  1.00  0.00     0.089 A 
HETATM   10  C14 UNK     1      30.413  -4.528  38.467  1.00  0.00     0.038 A 
HETATM   11  C2  UNK     1      29.478  -6.771  38.562  1.00  0.00    -0.001 A 
HETATM   12  C18 UNK     1      31.691  -5.067  38.340  1.00  0.00     0.003 A 
HETATM   13  C17 UNK     1      31.866  -6.453  38.323  1.00  0.00     0.001 A 
HETATM   14  C12 UNK     1      30.763  -7.305  38.434  1.00  0.00     0.014 A 
HETATM   15  C6  UNK     1      28.298  -7.613  38.680  1.00  0.00     0.037 A 
ENDBRANCH   3   5
BRANCH   2  16
HETATM   16  C3  UNK     1      23.517  -8.088  38.305  1.00  0.00     0.035 A 
HETATM   17  C10 UNK     1      22.657  -7.981  39.385  1.00  0.00     0.032 A 
HETATM   18  C8  UNK     1      21.403  -8.589  39.320  1.00  0.00     0.031 A 
HETATM   19  C1  UNK     1      21.029  -9.296  38.177  1.00  0.00     0.029 A 
HETATM   20  C7  UNK     1      21.908  -9.394  37.099  1.00  0.00     0.031 A 
HETATM   21  C9  UNK     1      23.162  -8.785  37.164  1.00  0.00     0.032 A 
BRANCH  19  22
HETATM   22  N1  UNK     1      19.761  -9.911  38.112  1.00  0.00    -0.390 N 
HETATM   23  C15 UNK     1      18.790  -9.486  37.123  1.00  0.00     0.149 C 
HETATM   24  C16 UNK     1      19.418 -10.985  39.022  1.00  0.00     0.149 C 
ENDBRANCH  19  22
ENDBRANCH   2  16
TORSDOF 3
ENDMDL
MODEL 8
REMARK VINA RESULT:      -8.0     14.474     19.221
REMARK  3 active torsions:
REMARK  status: ('A' for Active; 'I' for Inactive)
REMARK    1  A    between atoms: C1_6  and  N1_4 
REMARK       I    between atoms: C11_16  and  N2_5 
REMARK    2  A    between atoms: C3_8  and  N2_5 
REMARK    3  A    between atoms: C11_16  and  C4_9 
ROOT
HETATM    1  O2  UNK     1      17.789  -3.150  15.833  1.00  0.00    -0.267 OA
HETATM    2  N2  UNK     1      19.987  -2.993  15.003  1.00  0.00    -0.323 N 
HETATM    3  C11 UNK     1      18.835  -2.536  15.629  1.00  0.00     0.262 C 
HETATM    4  H6  UNK     1      20.781  -2.361  14.931  1.00  0.00     0.169 HD
ENDROOT
BRANCH   3   5
HETATM    5  C4  UNK     1      18.961  -1.143  16.073  1.00  0.00     0.108 A 
HETATM    6  C13 UNK     1      19.272  -0.043  15.131  1.00  0.00     0.304 A 
HETATM    7  O1  UNK     1      19.363   1.236  15.674  1.00  0.00    -0.274 OA
HETATM    8  O3  UNK     1      19.439  -0.244  13.934  1.00  0.00    -0.259 OA
HETATM    9  C5  UNK     1      19.173   1.477  17.048  1.00  0.00     0.089 A 
HETATM   10  C14 UNK     1      19.285   2.790  17.498  1.00  0.00     0.038 A 
HETATM   11  C2  UNK     1      18.883   0.428  17.916  1.00  0.00    -0.001 A 
HETATM   12  C18 UNK     1      19.102   3.059  18.852  1.00  0.00     0.003 A 
HETATM   13  C17 UNK     1      18.811   2.020  19.738  1.00  0.00     0.001 A 
HETATM   14  C12 UNK     1      18.700   0.707  19.273  1.00  0.00     0.014 A 
HETATM   15  C6  UNK     1      18.778  -0.920  17.380  1.00  0.00     0.037 A 
ENDBRANCH   3   5
BRANCH   2  16
HETATM   16  C3  UNK     1      20.221  -4.277  14.455  1.00  0.00     0.035 A 
HETATM   17  C10 UNK     1      20.033  -4.477  13.097  1.00  0.00     0.032 A 
HETATM   18  C8  UNK     1      20.263  -5.743  12.557  1.00  0.00     0.031 A 
HETATM   19  C1  UNK     1      20.676  -6.789  13.382  1.00  0.00     0.029 A 
HETATM   20  C7  UNK     1      20.861  -6.569  14.747  1.00  0.00     0.031 A 
HETATM   21  C9  UNK     1      20.631  -5.303  15.288  1.00  0.00     0.032 A 
BRANCH  19  22
HETATM   22  N1  UNK     1      20.909  -8.068  12.836  1.00  0.00    -0.390 N 
HETATM   23  C15 UNK     1      19.802  -8.882  12.374  1.00  0.00     0.149 C 
HETATM   24  C16 UNK     1      22.260  -8.580  12.715  1.00  0.00     0.149 C 
ENDBRANCH  19  22
ENDBRANCH   2  16
TORSDOF 3
ENDMDL
MODEL 9
REMARK VINA RESULT:      -8.0      2.503      8.739
REMARK  3 active torsions:
REMARK  status: ('A' for Active; 'I' for Inactive)
REMARK    1  A    between atoms: C1_6  and  N1_4 
REMARK       I    between atoms: C11_16  and  N2_5 
REMARK    2  A    between atoms: C3_8  and  N2_5 
REMARK    3  A    between atoms: C11_16  and  C4_9 
ROOT
HETATM    1  O2  UNK     1      19.007   5.761  33.433  1.00  0.00    -0.267 OA
HETATM    2  N2  UNK     1      17.461   4.707  32.003  1.00  0.00    -0.323 N 
HETATM    3  C11 UNK     1      17.973   5.747  32.767  1.00  0.00     0.262 C 
HETATM    4  H6  UNK     1      16.596   4.865  31.489  1.00  0.00     0.169 HD
ENDROOT
BRANCH   3   5
HETATM    5  C4  UNK     1      17.119   6.940  32.721  1.00  0.00     0.108 A 
HETATM    6  C13 UNK     1      16.770   7.608  31.446  1.00  0.00     0.304 A 
HETATM    7  O1  UNK     1      15.951   8.730  31.533  1.00  0.00    -0.274 OA
HETATM    8  O3  UNK     1      17.177   7.195  30.366  1.00  0.00    -0.259 OA
HETATM    9  C5  UNK     1      15.477   9.212  32.769  1.00  0.00     0.089 A 
HETATM   10  C14 UNK     1      14.664  10.342  32.755  1.00  0.00     0.038 A 
HETATM   11  C2  UNK     1      15.819   8.570  33.955  1.00  0.00    -0.001 A 
HETATM   12  C18 UNK     1      14.181  10.842  33.962  1.00  0.00     0.003 A 
HETATM   13  C17 UNK     1      14.513  10.212  35.163  1.00  0.00     0.001 A 
HETATM   14  C12 UNK     1      15.330   9.078  35.162  1.00  0.00     0.014 A 
HETATM   15  C6  UNK     1      16.672   7.393  33.899  1.00  0.00     0.037 A 
ENDBRANCH   3   5
BRANCH   2  16
HETATM   16  C3  UNK     1      18.017   3.419  31.815  1.00  0.00     0.035 A 
HETATM   17  C10 UNK     1      18.054   2.537  32.882  1.00  0.00     0.032 A 
HETATM   18  C8  UNK     1      18.603   1.267  32.697  1.00  0.00     0.031 A 
HETATM   19  C1  UNK     1      19.105   0.899  31.450  1.00  0.00     0.029 A 
HETATM   20  C7  UNK     1      19.059   1.801  30.385  1.00  0.00     0.031 A 
HETATM   21  C9  UNK     1      18.511   3.070  30.570  1.00  0.00     0.032 A 
BRANCH  19  22
HETATM   22  N1  UNK     1      19.659  -0.384  31.263  1.00  0.00    -0.390 N 
HETATM   23  C15 UNK     1      20.550  -0.645  30.149  1.00  0.00     0.149 C 
HETATM   24  C16 UNK     1      19.356  -1.457  32.189  1.00  0.00     0.149 C 
ENDBRANCH  19  22
ENDBRANCH   2  16
TORSDOF 3
ENDMDL
MODEL 10
REMARK VINA RESULT:      -7.9     14.408     18.700
REMARK  3 active torsions:
REMARK  status: ('A' for Active; 'I' for Inactive)
REMARK    1  A    between atoms: C1_6  and  N1_4 
REMARK       I    between atoms: C11_16  and  N2_5 
REMARK    2  A    between atoms: C3_8  and  N2_5 
REMARK    3  A    between atoms: C11_16  and  C4_9 
ROOT
HETATM    1  O2  UNK     1      17.912  -2.118  15.859  1.00  0.00    -0.267 OA
HETATM    2  N2  UNK     1      19.659  -1.144  14.615  1.00  0.00    -0.323 N 
HETATM    3  C11 UNK     1      18.793  -1.275  15.692  1.00  0.00     0.262 C 
HETATM    4  H6  UNK     1      20.352  -0.399  14.640  1.00  0.00     0.169 HD
ENDROOT
BRANCH   3   5
HETATM    5  C4  UNK     1      19.020  -0.247  16.714  1.00  0.00     0.108 A 
HETATM    6  C13 UNK     1      19.241   1.175  16.363  1.00  0.00     0.304 A 
HETATM    7  O1  UNK     1      19.443   2.056  17.422  1.00  0.00    -0.274 OA
HETATM    8  O3  UNK     1      19.244   1.562  15.200  1.00  0.00    -0.259 OA
HETATM    9  C5  UNK     1      19.440   1.621  18.762  1.00  0.00     0.089 A 
HETATM   10  C14 UNK     1      19.652   2.577  19.753  1.00  0.00     0.038 A 
HETATM   11  C2  UNK     1      19.232   0.281  19.070  1.00  0.00    -0.001 A 
HETATM   12  C18 UNK     1      19.656   2.177  21.087  1.00  0.00     0.003 A 
HETATM   13  C17 UNK     1      19.449   0.835  21.416  1.00  0.00     0.001 A 
HETATM   14  C12 UNK     1      19.237  -0.112  20.411  1.00  0.00     0.014 A 
HETATM   15  C6  UNK     1      19.016  -0.665  17.986  1.00  0.00     0.037 A 
ENDBRANCH   3   5
BRANCH   2  16
HETATM   16  C3  UNK     1      19.727  -1.956  13.457  1.00  0.00     0.035 A 
HETATM   17  C10 UNK     1      19.265  -1.454  12.252  1.00  0.00     0.032 A 
HETATM   18  C8  UNK     1      19.331  -2.254  11.111  1.00  0.00     0.031 A 
HETATM   19  C1  UNK     1      19.856  -3.543  11.192  1.00  0.00     0.029 A 
HETATM   20  C7  UNK     1      20.317  -4.032  12.415  1.00  0.00     0.031 A 
HETATM   21  C9  UNK     1      20.251  -3.232  13.556  1.00  0.00     0.032 A 
BRANCH  19  22
HETATM   22  N1  UNK     1      19.923  -4.351  10.039  1.00  0.00    -0.390 N 
HETATM   23  C15 UNK     1      21.205  -4.686   9.450  1.00  0.00     0.149 C 
HETATM   24  C16 UNK     1      18.713  -4.871   9.435  1.00  0.00     0.149 C 
ENDBRANCH  19  22
ENDBRANCH   2  16
TORSDOF 3
ENDMDL
