MODEL 1
REMARK VINA RESULT:      -9.5      0.000      0.000
REMARK  4 active torsions:
REMARK  status: ('A' for Active; 'I' for Inactive)
REMARK    1  A    between atoms: C5_13  and  N1_6 
REMARK    2  A    between atoms: C6_14  and  N2_7 
REMARK    3  A    between atoms: C6_14  and  N3_8 
REMARK    4  A    between atoms: C9_17  and  N3_8 
ROOT
HETATM    1  S1  UNK     1      19.688   5.946  31.977  1.00  0.00    -0.041 SA
HETATM    2  C6  UNK     1      18.065   5.639  32.276  1.00  0.00     0.174 C 
ENDROOT
BRANCH   2   3
HETATM    3  N2  UNK     1      17.251   6.642  32.689  1.00  0.00    -0.355 N 
HETATM    4  C3  UNK     1      17.555   7.418  33.882  1.00  0.00     0.145 C 
HETATM    5  C1  UNK     1      16.297   7.984  34.534  1.00  0.00     0.143 C 
HETATM    6  N1  UNK     1      15.519   8.768  33.568  1.00  0.00    -0.378 N 
HETATM    7  C2  UNK     1      15.645   8.443  32.142  1.00  0.00     0.143 C 
HETATM    8  C4  UNK     1      16.040   6.981  31.955  1.00  0.00     0.145 C 
BRANCH   6   9
HETATM    9  C5  UNK     1      14.680   9.796  33.994  1.00  0.00     0.032 A 
HETATM   10  C7  UNK     1      14.689  10.248  35.335  1.00  0.00     0.054 A 
HETATM   11  C10 UNK     1      13.850  11.277  35.760  1.00  0.00     0.058 A 
HETATM   12 Cl1  UNK     1      13.935  11.756  37.419  1.00  0.00    -0.082 Cl
HETATM   13  C16 UNK     1      12.977  11.885  34.857  1.00  0.00     0.055 A 
HETATM   14  C11 UNK     1      12.946  11.462  33.528  1.00  0.00     0.028 A 
HETATM   15 Cl2  UNK     1      11.913  13.164  35.323  1.00  0.00    -0.083 Cl
HETATM   16  C8  UNK     1      13.785  10.432  33.103  1.00  0.00     0.031 A 
ENDBRANCH   6   9
ENDBRANCH   2   3
BRANCH   2  17
HETATM   17  N3  UNK     1      17.531   4.381  32.053  1.00  0.00    -0.333 N 
HETATM   18  H11 UNK     1      16.538   4.307  32.264  1.00  0.00     0.168 HD
BRANCH  17  19
HETATM   19  C9  UNK     1      18.100   3.201  31.574  1.00  0.00     0.036 A 
HETATM   20  C12 UNK     1      18.370   2.151  32.444  1.00  0.00     0.067 A 
HETATM   21  C14 UNK     1      18.939   0.979  31.943  1.00  0.00     0.092 A 
HETATM   22  C13 UNK     1      19.251   0.821  30.592  1.00  0.00     0.004 A 
HETATM   23  O1  UNK     1      19.189  -0.050  32.874  1.00  0.00    -0.275 OA
HETATM   24  C17 UNK     1      18.971   1.890  29.730  1.00  0.00     0.017 A 
HETATM   25  C18 UNK     1      19.847  -0.447  30.151  1.00  0.00    -0.043 A 
HETATM   26  C15 UNK     1      18.401   3.072  30.219  1.00  0.00     0.030 A 
HETATM   27  C19 UNK     1      20.074  -1.408  31.058  1.00  0.00     0.090 A 
HETATM   28  C20 UNK     1      20.194  -0.649  28.705  1.00  0.00     0.049 C 
HETATM   29  C21 UNK     1      19.750  -1.256  32.486  1.00  0.00     0.288 A 
HETATM   30  O2  UNK     1      19.972  -2.158  33.288  1.00  0.00    -0.260 OA
ENDBRANCH  17  19
ENDBRANCH   2  17
TORSDOF 4
ENDMDL
MODEL 2
REMARK VINA RESULT:      -9.4      6.263      9.182
REMARK  4 active torsions:
REMARK  status: ('A' for Active; 'I' for Inactive)
REMARK    1  A    between atoms: C5_13  and  N1_6 
REMARK    2  A    between atoms: C6_14  and  N2_7 
REMARK    3  A    between atoms: C6_14  and  N3_8 
REMARK    4  A    between atoms: C9_17  and  N3_8 
ROOT
HETATM    1  S1  UNK     1      17.902  -1.428  37.944  1.00  0.00    -0.041 SA
HETATM    2  C6  UNK     1      18.437  -1.626  36.366  1.00  0.00     0.174 C 
ENDROOT
BRANCH   2   3
HETATM    3  N2  UNK     1      18.434  -0.573  35.512  1.00  0.00    -0.355 N 
HETATM    4  C3  UNK     1      17.978  -0.719  34.137  1.00  0.00     0.145 C 
HETATM    5  C1  UNK     1      18.637   0.294  33.204  1.00  0.00     0.143 C 
HETATM    6  N1  UNK     1      18.433   1.661  33.695  1.00  0.00    -0.378 N 
HETATM    7  C2  UNK     1      18.228   1.863  35.134  1.00  0.00     0.143 C 
HETATM    8  C4  UNK     1      18.887   0.744  35.936  1.00  0.00     0.145 C 
BRANCH   6   9
HETATM    9  C5  UNK     1      18.434   2.742  32.816  1.00  0.00     0.032 A 
HETATM   10  C7  UNK     1      18.251   4.068  33.277  1.00  0.00     0.054 A 
HETATM   11  C10 UNK     1      18.253   5.149  32.397  1.00  0.00     0.058 A 
HETATM   12 Cl1  UNK     1      18.019   6.729  33.059  1.00  0.00    -0.082 Cl
HETATM   13  C16 UNK     1      18.439   4.938  31.031  1.00  0.00     0.055 A 
HETATM   14  C11 UNK     1      18.623   3.643  30.546  1.00  0.00     0.028 A 
HETATM   15 Cl2  UNK     1      18.452   6.236  29.891  1.00  0.00    -0.083 Cl
HETATM   16  C8  UNK     1      18.621   2.561  31.426  1.00  0.00     0.031 A 
ENDBRANCH   6   9
ENDBRANCH   2   3
BRANCH   2  17
HETATM   17  N3  UNK     1      18.937  -2.844  35.938  1.00  0.00    -0.333 N 
HETATM   18  H11 UNK     1      18.872  -2.992  34.934  1.00  0.00     0.168 HD
BRANCH  17  19
HETATM   19  C9  UNK     1      19.533  -3.900  36.630  1.00  0.00     0.036 A 
HETATM   20  C12 UNK     1      18.883  -5.125  36.732  1.00  0.00     0.067 A 
HETATM   21  C14 UNK     1      19.498  -6.166  37.428  1.00  0.00     0.092 A 
HETATM   22  C13 UNK     1      20.748  -6.024  38.030  1.00  0.00     0.004 A 
HETATM   23  O1  UNK     1      18.790  -7.384  37.497  1.00  0.00    -0.275 OA
HETATM   24  C17 UNK     1      21.388  -4.783  37.916  1.00  0.00     0.017 A 
HETATM   25  C18 UNK     1      21.322  -7.174  38.742  1.00  0.00    -0.043 A 
HETATM   26  C15 UNK     1      20.783  -3.728  37.221  1.00  0.00     0.030 A 
HETATM   27  C19 UNK     1      20.626  -8.320  38.792  1.00  0.00     0.090 A 
HETATM   28  C20 UNK     1      22.665  -7.054  39.401  1.00  0.00     0.049 C 
HETATM   29  C21 UNK     1      19.306  -8.485  38.161  1.00  0.00     0.288 A 
HETATM   30  O2  UNK     1      18.699  -9.549  38.228  1.00  0.00    -0.260 OA
ENDBRANCH  17  19
ENDBRANCH   2  17
TORSDOF 4
ENDMDL
MODEL 3
REMARK VINA RESULT:      -9.3      7.560     11.799
REMARK  4 active torsions:
REMARK  status: ('A' for Active; 'I' for Inactive)
REMARK    1  A    between atoms: C5_13  and  N1_6 
REMARK    2  A    between atoms: C6_14  and  N2_7 
REMARK    3  A    between atoms: C6_14  and  N3_8 
REMARK    4  A    between atoms: C9_17  and  N3_8 
ROOT
HETATM    1  S1  UNK     1      15.751   0.554  35.631  1.00  0.00    -0.041 SA
HETATM    2  C6  UNK     1      17.428   0.521  35.661  1.00  0.00     0.174 C 
ENDROOT
BRANCH   2   3
HETATM    3  N2  UNK     1      18.079  -0.639  35.932  1.00  0.00    -0.355 N 
HETATM    4  C3  UNK     1      19.336  -0.968  35.277  1.00  0.00     0.145 C 
HETATM    5  C1  UNK     1      19.552  -2.476  35.178  1.00  0.00     0.143 C 
HETATM    6  N1  UNK     1      19.456  -3.102  36.502  1.00  0.00    -0.378 N 
HETATM    7  C2  UNK     1      18.641  -2.442  37.529  1.00  0.00     0.143 C 
HETATM    8  C4  UNK     1      17.543  -1.598  36.887  1.00  0.00     0.145 C 
BRANCH   6   9
HETATM    9  C5  UNK     1      20.121  -4.295  36.777  1.00  0.00     0.032 A 
HETATM   10  C7  UNK     1      19.907  -5.456  35.997  1.00  0.00     0.054 A 
HETATM   11  C10 UNK     1      20.573  -6.650  36.273  1.00  0.00     0.058 A 
HETATM   12 Cl1  UNK     1      20.240  -8.012  35.262  1.00  0.00    -0.082 Cl
HETATM   13  C16 UNK     1      21.475  -6.717  37.335  1.00  0.00     0.055 A 
HETATM   14  C11 UNK     1      21.709  -5.589  38.121  1.00  0.00     0.028 A 
HETATM   15 Cl2  UNK     1      22.332  -8.165  37.726  1.00  0.00    -0.083 Cl
HETATM   16  C8  UNK     1      21.042  -4.395  37.846  1.00  0.00     0.031 A 
ENDBRANCH   6   9
ENDBRANCH   2   3
BRANCH   2  17
HETATM   17  N3  UNK     1      18.163   1.654  35.356  1.00  0.00    -0.333 N 
HETATM   18  H11 UNK     1      18.738   1.997  36.123  1.00  0.00     0.168 HD
BRANCH  17  19
HETATM   19  C9  UNK     1      18.274   2.402  34.184  1.00  0.00     0.036 A 
HETATM   20  C12 UNK     1      18.200   1.776  32.945  1.00  0.00     0.067 A 
HETATM   21  C14 UNK     1      18.314   2.544  31.785  1.00  0.00     0.092 A 
HETATM   22  C13 UNK     1      18.500   3.926  31.821  1.00  0.00     0.004 A 
HETATM   23  O1  UNK     1      18.230   1.852  30.559  1.00  0.00    -0.275 OA
HETATM   24  C17 UNK     1      18.572   4.540  33.079  1.00  0.00     0.017 A 
HETATM   25  C18 UNK     1      18.608   4.656  30.551  1.00  0.00    -0.043 A 
HETATM   26  C15 UNK     1      18.460   3.782  34.252  1.00  0.00     0.030 A 
HETATM   27  C19 UNK     1      18.526   3.972  29.401  1.00  0.00     0.090 A 
HETATM   28  C20 UNK     1      18.810   6.143  30.556  1.00  0.00     0.049 C 
HETATM   29  C21 UNK     1      18.329   2.514  29.346  1.00  0.00     0.288 A 
HETATM   30  O2  UNK     1      18.259   1.922  28.274  1.00  0.00    -0.260 OA
ENDBRANCH  17  19
ENDBRANCH   2  17
TORSDOF 4
ENDMDL
MODEL 4
REMARK VINA RESULT:      -9.2      1.233      2.083
REMARK  4 active torsions:
REMARK  status: ('A' for Active; 'I' for Inactive)
REMARK    1  A    between atoms: C5_13  and  N1_6 
REMARK    2  A    between atoms: C6_14  and  N2_7 
REMARK    3  A    between atoms: C6_14  and  N3_8 
REMARK    4  A    between atoms: C9_17  and  N3_8 
ROOT
HETATM    1  S1  UNK     1      19.734   5.941  32.441  1.00  0.00    -0.041 SA
HETATM    2  C6  UNK     1      18.071   5.717  32.418  1.00  0.00     0.174 C 
ENDROOT
BRANCH   2   3
HETATM    3  N2  UNK     1      17.247   6.719  32.816  1.00  0.00    -0.355 N 
HETATM    4  C3  UNK     1      15.865   6.781  32.362  1.00  0.00     0.145 C 
HETATM    5  C1  UNK     1      15.334   8.212  32.341  1.00  0.00     0.143 C 
HETATM    6  N1  UNK     1      15.498   8.847  33.653  1.00  0.00    -0.378 N 
HETATM    7  C2  UNK     1      16.575   8.371  34.529  1.00  0.00     0.143 C 
HETATM    8  C4  UNK     1      17.713   7.769  33.708  1.00  0.00     0.145 C 
BRANCH   6   9
HETATM    9  C5  UNK     1      14.653   9.879  34.057  1.00  0.00     0.032 A 
HETATM   10  C7  UNK     1      14.641  10.341  35.395  1.00  0.00     0.054 A 
HETATM   11  C10 UNK     1      13.796  11.373  35.799  1.00  0.00     0.058 A 
HETATM   12 Cl1  UNK     1      13.855  11.864  37.455  1.00  0.00    -0.082 Cl
HETATM   13  C16 UNK     1      12.939  11.975  34.877  1.00  0.00     0.055 A 
HETATM   14  C11 UNK     1      12.928  11.543  33.552  1.00  0.00     0.028 A 
HETATM   15 Cl2  UNK     1      11.868  13.259  35.317  1.00  0.00    -0.083 Cl
HETATM   16  C8  UNK     1      13.773  10.510  33.147  1.00  0.00     0.031 A 
ENDBRANCH   6   9
ENDBRANCH   2   3
BRANCH   2  17
HETATM   17  N3  UNK     1      17.524   4.537  31.944  1.00  0.00    -0.333 N 
HETATM   18  H11 UNK     1      16.589   4.638  31.556  1.00  0.00     0.168 HD
BRANCH  17  19
HETATM   19  C9  UNK     1      18.028   3.238  31.881  1.00  0.00     0.036 A 
HETATM   20  C12 UNK     1      18.548   2.745  30.689  1.00  0.00     0.067 A 
HETATM   21  C14 UNK     1      19.047   1.443  30.650  1.00  0.00     0.092 A 
HETATM   22  C13 UNK     1      19.044   0.609  31.769  1.00  0.00     0.004 A 
HETATM   23  O1  UNK     1      19.561   1.001  29.414  1.00  0.00    -0.275 OA
HETATM   24  C17 UNK     1      18.516   1.123  32.961  1.00  0.00     0.017 A 
HETATM   25  C18 UNK     1      19.590  -0.748  31.638  1.00  0.00    -0.043 A 
HETATM   26  C15 UNK     1      18.011   2.428  33.016  1.00  0.00     0.030 A 
HETATM   27  C19 UNK     1      20.072  -1.142  30.450  1.00  0.00     0.090 A 
HETATM   28  C20 UNK     1      19.601  -1.669  32.822  1.00  0.00     0.049 C 
HETATM   29  C21 UNK     1      20.082  -0.274  29.260  1.00  0.00     0.288 A 
HETATM   30  O2  UNK     1      20.532  -0.669  28.190  1.00  0.00    -0.260 OA
ENDBRANCH  17  19
ENDBRANCH   2  17
TORSDOF 4
ENDMDL
MODEL 5
REMARK VINA RESULT:      -9.1      6.248      9.152
REMARK  4 active torsions:
REMARK  status: ('A' for Active; 'I' for Inactive)
REMARK    1  A    between atoms: C5_13  and  N1_6 
REMARK    2  A    between atoms: C6_14  and  N2_7 
REMARK    3  A    between atoms: C6_14  and  N3_8 
REMARK    4  A    between atoms: C9_17  and  N3_8 
ROOT
HETATM    1  S1  UNK     1      17.918  -1.608  37.936  1.00  0.00    -0.041 SA
HETATM    2  C6  UNK     1      18.507  -1.718  36.368  1.00  0.00     0.174 C 
ENDROOT
BRANCH   2   3
HETATM    3  N2  UNK     1      18.474  -0.634  35.554  1.00  0.00    -0.355 N 
HETATM    4  C3  UNK     1      17.982  -0.733  34.188  1.00  0.00     0.145 C 
HETATM    5  C1  UNK     1      18.608   0.319  33.276  1.00  0.00     0.143 C 
HETATM    6  N1  UNK     1      18.409   1.666  33.822  1.00  0.00    -0.378 N 
HETATM    7  C2  UNK     1      18.243   1.813  35.273  1.00  0.00     0.143 C 
HETATM    8  C4  UNK     1      18.931   0.669  36.014  1.00  0.00     0.145 C 
BRANCH   6   9
HETATM    9  C5  UNK     1      18.380   2.779  32.985  1.00  0.00     0.032 A 
HETATM   10  C7  UNK     1      18.296   4.092  33.506  1.00  0.00     0.054 A 
HETATM   11  C10 UNK     1      18.267   5.205  32.667  1.00  0.00     0.058 A 
HETATM   12 Cl1  UNK     1      18.161   6.767  33.401  1.00  0.00    -0.082 Cl
HETATM   13  C16 UNK     1      18.323   5.039  31.283  1.00  0.00     0.055 A 
HETATM   14  C11 UNK     1      18.407   3.757  30.739  1.00  0.00     0.028 A 
HETATM   15 Cl2  UNK     1      18.291   6.378  30.192  1.00  0.00    -0.083 Cl
HETATM   16  C8  UNK     1      18.435   2.643  31.578  1.00  0.00     0.031 A 
ENDBRANCH   6   9
ENDBRANCH   2   3
BRANCH   2  17
HETATM   17  N3  UNK     1      19.080  -2.892  35.911  1.00  0.00    -0.333 N 
HETATM   18  H11 UNK     1      19.274  -2.899  34.911  1.00  0.00     0.168 HD
BRANCH  17  19
HETATM   19  C9  UNK     1      19.461  -4.061  36.571  1.00  0.00     0.036 A 
HETATM   20  C12 UNK     1      20.741  -4.180  37.101  1.00  0.00     0.067 A 
HETATM   21  C14 UNK     1      21.099  -5.358  37.758  1.00  0.00     0.092 A 
HETATM   22  C13 UNK     1      20.217  -6.428  37.905  1.00  0.00     0.004 A 
HETATM   23  O1  UNK     1      22.410  -5.418  38.273  1.00  0.00    -0.275 OA
HETATM   24  C17 UNK     1      18.931  -6.289  37.366  1.00  0.00     0.017 A 
HETATM   25  C18 UNK     1      20.678  -7.629  38.613  1.00  0.00    -0.043 A 
HETATM   26  C15 UNK     1      18.557  -5.113  36.703  1.00  0.00     0.030 A 
HETATM   27  C19 UNK     1      21.930  -7.660  39.092  1.00  0.00     0.090 A 
HETATM   28  C20 UNK     1      19.753  -8.798  38.788  1.00  0.00     0.049 C 
HETATM   29  C21 UNK     1      22.873  -6.539  38.945  1.00  0.00     0.288 A 
HETATM   30  O2  UNK     1      24.012  -6.603  39.397  1.00  0.00    -0.260 OA
ENDBRANCH  17  19
ENDBRANCH   2  17
TORSDOF 4
ENDMDL
MODEL 6
REMARK VINA RESULT:      -8.9      5.392     10.023
REMARK  4 active torsions:
REMARK  status: ('A' for Active; 'I' for Inactive)
REMARK    1  A    between atoms: C5_13  and  N1_6 
REMARK    2  A    between atoms: C6_14  and  N2_7 
REMARK    3  A    between atoms: C6_14  and  N3_8 
REMARK    4  A    between atoms: C9_17  and  N3_8 
ROOT
HETATM    1  S1  UNK     1      17.823   2.053  28.624  1.00  0.00    -0.041 SA
HETATM    2  C6  UNK     1      18.663   2.496  30.007  1.00  0.00     0.174 C 
ENDROOT
BRANCH   2   3
HETATM    3  N2  UNK     1      18.816   1.607  31.021  1.00  0.00    -0.355 N 
HETATM    4  C3  UNK     1      18.022   1.708  32.237  1.00  0.00     0.145 C 
HETATM    5  C1  UNK     1      18.743   1.112  33.443  1.00  0.00     0.143 C 
HETATM    6  N1  UNK     1      19.144  -0.274  33.176  1.00  0.00    -0.378 N 
HETATM    7  C2  UNK     1      19.374  -0.679  31.784  1.00  0.00     0.143 C 
HETATM    8  C4  UNK     1      19.781   0.521  30.933  1.00  0.00     0.145 C 
BRANCH   6   9
HETATM    9  C5  UNK     1      19.304  -1.184  34.219  1.00  0.00     0.032 A 
HETATM   10  C7  UNK     1      18.730  -0.956  35.492  1.00  0.00     0.054 A 
HETATM   11  C10 UNK     1      18.890  -1.867  36.535  1.00  0.00     0.058 A 
HETATM   12 Cl1  UNK     1      18.150  -1.496  38.052  1.00  0.00    -0.082 Cl
HETATM   13  C16 UNK     1      19.628  -3.034  36.335  1.00  0.00     0.055 A 
HETATM   14  C11 UNK     1      20.206  -3.288  35.091  1.00  0.00     0.028 A 
HETATM   15 Cl2  UNK     1      19.862  -4.201  37.587  1.00  0.00    -0.083 Cl
HETATM   16  C8  UNK     1      20.047  -2.376  34.048  1.00  0.00     0.031 A 
ENDBRANCH   6   9
ENDBRANCH   2   3
BRANCH   2  17
HETATM   17  N3  UNK     1      19.253   3.744  30.105  1.00  0.00    -0.333 N 
HETATM   18  H11 UNK     1      19.899   3.960  29.349  1.00  0.00     0.168 HD
BRANCH  17  19
HETATM   19  C9  UNK     1      19.111   4.769  31.041  1.00  0.00     0.036 A 
HETATM   20  C12 UNK     1      17.854   5.090  31.541  1.00  0.00     0.067 A 
HETATM   21  C14 UNK     1      17.735   6.119  32.476  1.00  0.00     0.092 A 
HETATM   22  C13 UNK     1      18.837   6.844  32.931  1.00  0.00     0.004 A 
HETATM   23  O1  UNK     1      16.435   6.397  32.946  1.00  0.00    -0.275 OA
HETATM   24  C17 UNK     1      20.095   6.506  32.416  1.00  0.00     0.017 A 
HETATM   25  C18 UNK     1      18.619   7.910  33.918  1.00  0.00    -0.043 A 
HETATM   26  C15 UNK     1      20.230   5.476  31.477  1.00  0.00     0.030 A 
HETATM   27  C19 UNK     1      17.372   8.153  34.347  1.00  0.00     0.090 A 
HETATM   28  C20 UNK     1      19.784   8.708  34.428  1.00  0.00     0.049 C 
HETATM   29  C21 UNK     1      16.200   7.397  33.877  1.00  0.00     0.288 A 
HETATM   30  O2  UNK     1      15.073   7.648  34.293  1.00  0.00    -0.260 OA
ENDBRANCH  17  19
ENDBRANCH   2  17
TORSDOF 4
ENDMDL
MODEL 7
REMARK VINA RESULT:      -8.8     18.689     21.368
REMARK  4 active torsions:
REMARK  status: ('A' for Active; 'I' for Inactive)
REMARK    1  A    between atoms: C5_13  and  N1_6 
REMARK    2  A    between atoms: C6_14  and  N2_7 
REMARK    3  A    between atoms: C6_14  and  N3_8 
REMARK    4  A    between atoms: C9_17  and  N3_8 
ROOT
HETATM    1  S1  UNK     1      36.534  -7.116  34.899  1.00  0.00    -0.041 SA
HETATM    2  C6  UNK     1      34.935  -7.427  35.302  1.00  0.00     0.174 C 
ENDROOT
BRANCH   2   3
HETATM    3  N2  UNK     1      34.056  -7.809  34.342  1.00  0.00    -0.355 N 
HETATM    4  C3  UNK     1      33.683  -9.205  34.174  1.00  0.00     0.145 C 
HETATM    5  C1  UNK     1      33.268  -9.519  32.738  1.00  0.00     0.143 C 
HETATM    6  N1  UNK     1      32.196  -8.620  32.299  1.00  0.00    -0.378 N 
HETATM    7  C2  UNK     1      32.093  -7.297  32.926  1.00  0.00     0.143 C 
HETATM    8  C4  UNK     1      33.454  -6.836  33.441  1.00  0.00     0.145 C 
BRANCH   6   9
HETATM    9  C5  UNK     1      31.296  -9.012  31.310  1.00  0.00     0.032 A 
HETATM   10  C7  UNK     1      29.943  -8.599  31.338  1.00  0.00     0.054 A 
HETATM   11  C10 UNK     1      29.044  -8.992  30.347  1.00  0.00     0.058 A 
HETATM   12 Cl1  UNK     1      27.411  -8.436  30.472  1.00  0.00    -0.082 Cl
HETATM   13  C16 UNK     1      29.471  -9.806  29.298  1.00  0.00     0.055 A 
HETATM   14  C11 UNK     1      30.800 -10.228  29.242  1.00  0.00     0.028 A 
HETATM   15 Cl2  UNK     1      28.406 -10.325  28.041  1.00  0.00    -0.083 Cl
HETATM   16  C8  UNK     1      31.699  -9.837  30.233  1.00  0.00     0.031 A 
ENDBRANCH   6   9
ENDBRANCH   2   3
BRANCH   2  17
HETATM   17  N3  UNK     1      34.511  -7.354  36.618  1.00  0.00    -0.333 N 
HETATM   18  H11 UNK     1      35.190  -7.698  37.294  1.00  0.00     0.168 HD
BRANCH  17  19
HETATM   19  C9  UNK     1      33.331  -6.878  37.190  1.00  0.00     0.036 A 
HETATM   20  C12 UNK     1      32.253  -7.733  37.385  1.00  0.00     0.067 A 
HETATM   21  C14 UNK     1      31.083  -7.235  37.959  1.00  0.00     0.092 A 
HETATM   22  C13 UNK     1      30.952  -5.901  38.348  1.00  0.00     0.004 A 
HETATM   23  O1  UNK     1      30.025  -8.151  38.131  1.00  0.00    -0.275 OA
HETATM   24  C17 UNK     1      32.050  -5.054  38.144  1.00  0.00     0.017 A 
HETATM   25  C18 UNK     1      29.684  -5.463  38.946  1.00  0.00    -0.043 A 
HETATM   26  C15 UNK     1      33.231  -5.540  37.568  1.00  0.00     0.030 A 
HETATM   27  C19 UNK     1      28.695  -6.355  39.097  1.00  0.00     0.090 A 
HETATM   28  C20 UNK     1      29.512  -4.035  39.374  1.00  0.00     0.049 C 
HETATM   29  C21 UNK     1      28.817  -7.765  38.692  1.00  0.00     0.288 A 
HETATM   30  O2  UNK     1      27.890  -8.553  38.846  1.00  0.00    -0.260 OA
ENDBRANCH  17  19
ENDBRANCH   2  17
TORSDOF 4
ENDMDL
MODEL 8
REMARK VINA RESULT:      -8.8     17.107     18.831
REMARK  4 active torsions:
REMARK  status: ('A' for Active; 'I' for Inactive)
REMARK    1  A    between atoms: C5_13  and  N1_6 
REMARK    2  A    between atoms: C6_14  and  N2_7 
REMARK    3  A    between atoms: C6_14  and  N3_8 
REMARK    4  A    between atoms: C9_17  and  N3_8 
ROOT
HETATM    1  S1  UNK     1      27.162  -9.926  39.634  1.00  0.00    -0.041 SA
HETATM    2  C6  UNK     1      26.950  -8.355  39.082  1.00  0.00     0.174 C 
ENDROOT
BRANCH   2   3
HETATM    3  N2  UNK     1      27.968  -7.714  38.455  1.00  0.00    -0.355 N 
HETATM    4  C3  UNK     1      28.572  -8.260  37.248  1.00  0.00     0.145 C 
HETATM    5  C1  UNK     1      30.025  -7.821  37.085  1.00  0.00     0.143 C 
HETATM    6  N1  UNK     1      30.133  -6.358  37.126  1.00  0.00    -0.378 N 
HETATM    7  C2  UNK     1      29.111  -5.602  37.861  1.00  0.00     0.143 C 
HETATM    8  C4  UNK     1      28.497  -6.458  38.966  1.00  0.00     0.145 C 
BRANCH   6   9
HETATM    9  C5  UNK     1      31.182  -5.702  36.485  1.00  0.00     0.032 A 
HETATM   10  C7  UNK     1      31.966  -6.350  35.502  1.00  0.00     0.054 A 
HETATM   11  C10 UNK     1      33.015  -5.693  34.860  1.00  0.00     0.058 A 
HETATM   12 Cl1  UNK     1      33.915  -6.572  33.675  1.00  0.00    -0.082 Cl
HETATM   13  C16 UNK     1      33.309  -4.367  35.181  1.00  0.00     0.055 A 
HETATM   14  C11 UNK     1      32.553  -3.701  36.145  1.00  0.00     0.028 A 
HETATM   15 Cl2  UNK     1      34.594  -3.499  34.420  1.00  0.00    -0.083 Cl
HETATM   16  C8  UNK     1      31.504  -4.358  36.788  1.00  0.00     0.031 A 
ENDBRANCH   6   9
ENDBRANCH   2   3
BRANCH   2  17
HETATM   17  N3  UNK     1      25.726  -7.722  39.209  1.00  0.00    -0.333 N 
HETATM   18  H11 UNK     1      25.762  -6.846  39.726  1.00  0.00     0.168 HD
BRANCH  17  19
HETATM   19  C9  UNK     1      24.455  -8.053  38.740  1.00  0.00     0.036 A 
HETATM   20  C12 UNK     1      24.306  -8.702  37.519  1.00  0.00     0.067 A 
HETATM   21  C14 UNK     1      23.024  -9.024  37.071  1.00  0.00     0.092 A 
HETATM   22  C13 UNK     1      21.878  -8.718  37.805  1.00  0.00     0.004 A 
HETATM   23  O1  UNK     1      22.938  -9.681  35.826  1.00  0.00    -0.275 OA
HETATM   24  C17 UNK     1      22.048  -8.065  39.033  1.00  0.00     0.017 A 
HETATM   25  C18 UNK     1      20.569  -9.096  37.257  1.00  0.00    -0.043 A 
HETATM   26  C15 UNK     1      23.328  -7.735  39.496  1.00  0.00     0.030 A 
HETATM   27  C19 UNK     1      20.517  -9.720  36.071  1.00  0.00     0.090 A 
HETATM   28  C20 UNK     1      19.317  -8.781  38.023  1.00  0.00     0.049 C 
HETATM   29  C21 UNK     1      21.717 -10.050  35.284  1.00  0.00     0.288 A 
HETATM   30  O2  UNK     1      21.631 -10.621  34.203  1.00  0.00    -0.260 OA
ENDBRANCH  17  19
ENDBRANCH   2  17
TORSDOF 4
ENDMDL
MODEL 9
REMARK VINA RESULT:      -8.8      1.091      1.915
REMARK  4 active torsions:
REMARK  status: ('A' for Active; 'I' for Inactive)
REMARK    1  A    between atoms: C5_13  and  N1_6 
REMARK    2  A    between atoms: C6_14  and  N2_7 
REMARK    3  A    between atoms: C6_14  and  N3_8 
REMARK    4  A    between atoms: C9_17  and  N3_8 
ROOT
HETATM    1  S1  UNK     1      20.385   5.891  31.265  1.00  0.00    -0.041 SA
HETATM    2  C6  UNK     1      18.734   5.605  31.365  1.00  0.00     0.174 C 
ENDROOT
BRANCH   2   3
HETATM    3  N2  UNK     1      17.920   6.528  31.935  1.00  0.00    -0.355 N 
HETATM    4  C3  UNK     1      16.524   6.646  31.541  1.00  0.00     0.145 C 
HETATM    5  C1  UNK     1      15.987   8.060  31.753  1.00  0.00     0.143 C 
HETATM    6  N1  UNK     1      16.192   8.491  33.140  1.00  0.00    -0.378 N 
HETATM    7  C2  UNK     1      17.300   7.898  33.899  1.00  0.00     0.143 C 
HETATM    8  C4  UNK     1      18.412   7.437  32.961  1.00  0.00     0.145 C 
BRANCH   6   9
HETATM    9  C5  UNK     1      15.357   9.443  33.722  1.00  0.00     0.032 A 
HETATM   10  C7  UNK     1      14.256   9.988  33.019  1.00  0.00     0.054 A 
HETATM   11  C10 UNK     1      13.421  10.939  33.603  1.00  0.00     0.058 A 
HETATM   12 Cl1  UNK     1      12.104  11.544  32.660  1.00  0.00    -0.082 Cl
HETATM   13  C16 UNK     1      13.660  11.372  34.907  1.00  0.00     0.055 A 
HETATM   14  C11 UNK     1      14.737  10.853  35.626  1.00  0.00     0.028 A 
HETATM   15 Cl2  UNK     1      12.661  12.548  35.685  1.00  0.00    -0.083 Cl
HETATM   16  C8  UNK     1      15.573   9.902  35.043  1.00  0.00     0.031 A 
ENDBRANCH   6   9
ENDBRANCH   2   3
BRANCH   2  17
HETATM   17  N3  UNK     1      18.182   4.458  30.820  1.00  0.00    -0.333 N 
HETATM   18  H11 UNK     1      17.375   4.627  30.224  1.00  0.00     0.168 HD
BRANCH  17  19
HETATM   19  C9  UNK     1      18.541   3.114  30.923  1.00  0.00     0.036 A 
HETATM   20  C12 UNK     1      18.381   2.438  32.128  1.00  0.00     0.067 A 
HETATM   21  C14 UNK     1      18.746   1.093  32.208  1.00  0.00     0.092 A 
HETATM   22  C13 UNK     1      19.269   0.396  31.119  1.00  0.00     0.004 A 
HETATM   23  O1  UNK     1      18.559   0.462  33.455  1.00  0.00    -0.275 OA
HETATM   24  C17 UNK     1      19.422   1.094  29.913  1.00  0.00     0.017 A 
HETATM   25  C18 UNK     1      19.625  -1.018  31.292  1.00  0.00    -0.043 A 
HETATM   26  C15 UNK     1      19.061   2.444  29.818  1.00  0.00     0.030 A 
HETATM   27  C19 UNK     1      19.438  -1.592  32.490  1.00  0.00     0.090 A 
HETATM   28  C20 UNK     1      20.190  -1.796  30.140  1.00  0.00     0.049 C 
HETATM   29  C21 UNK     1      18.886  -0.871  33.649  1.00  0.00     0.288 A 
HETATM   30  O2  UNK     1      18.729  -1.429  34.729  1.00  0.00    -0.260 OA
ENDBRANCH  17  19
ENDBRANCH   2  17
TORSDOF 4
ENDMDL
MODEL 10
REMARK VINA RESULT:      -8.8      5.852     10.740
REMARK  4 active torsions:
REMARK  status: ('A' for Active; 'I' for Inactive)
REMARK    1  A    between atoms: C5_13  and  N1_6 
REMARK    2  A    between atoms: C6_14  and  N2_7 
REMARK    3  A    between atoms: C6_14  and  N3_8 
REMARK    4  A    between atoms: C9_17  and  N3_8 
ROOT
HETATM    1  S1  UNK     1      19.826   8.335  34.487  1.00  0.00    -0.041 SA
HETATM    2  C6  UNK     1      18.420   7.510  34.086  1.00  0.00     0.174 C 
ENDROOT
BRANCH   2   3
HETATM    3  N2  UNK     1      18.476   6.439  33.255  1.00  0.00    -0.355 N 
HETATM    4  C3  UNK     1      17.602   5.291  33.446  1.00  0.00     0.145 C 
HETATM    5  C1  UNK     1      18.220   4.005  32.904  1.00  0.00     0.143 C 
HETATM    6  N1  UNK     1      18.599   4.163  31.496  1.00  0.00    -0.378 N 
HETATM    7  C2  UNK     1      18.915   5.510  31.005  1.00  0.00     0.143 C 
HETATM    8  C4  UNK     1      19.414   6.397  32.143  1.00  0.00     0.145 C 
BRANCH   6   9
HETATM    9  C5  UNK     1      18.660   3.062  30.645  1.00  0.00     0.032 A 
HETATM   10  C7  UNK     1      19.296   1.860  31.038  1.00  0.00     0.054 A 
HETATM   11  C10 UNK     1      19.356   0.758  30.186  1.00  0.00     0.058 A 
HETATM   12 Cl1  UNK     1      20.158  -0.663  30.759  1.00  0.00    -0.082 Cl
HETATM   13  C16 UNK     1      18.781   0.824  28.917  1.00  0.00     0.055 A 
HETATM   14  C11 UNK     1      18.146   1.994  28.501  1.00  0.00     0.028 A 
HETATM   15 Cl2  UNK     1      18.822  -0.507  27.817  1.00  0.00    -0.083 Cl
HETATM   16  C8  UNK     1      18.086   3.097  29.352  1.00  0.00     0.031 A 
ENDBRANCH   6   9
ENDBRANCH   2   3
BRANCH   2  17
HETATM   17  N3  UNK     1      17.205   7.875  34.640  1.00  0.00    -0.333 N 
HETATM   18  H11 UNK     1      16.958   7.358  35.481  1.00  0.00     0.168 HD
BRANCH  17  19
HETATM   19  C9  UNK     1      16.265   8.837  34.268  1.00  0.00     0.036 A 
HETATM   20  C12 UNK     1      16.598  10.187  34.292  1.00  0.00     0.067 A 
HETATM   21  C14 UNK     1      15.642  11.131  33.915  1.00  0.00     0.092 A 
HETATM   22  C13 UNK     1      14.356  10.771  33.513  1.00  0.00     0.004 A 
HETATM   23  O1  UNK     1      16.039  12.483  33.961  1.00  0.00    -0.275 OA
HETATM   24  C17 UNK     1      14.039   9.406  33.494  1.00  0.00     0.017 A 
HETATM   25  C18 UNK     1      13.414  11.831  33.132  1.00  0.00    -0.043 A 
HETATM   26  C15 UNK     1      14.988   8.446  33.870  1.00  0.00     0.030 A 
HETATM   27  C19 UNK     1      13.818  13.109  33.185  1.00  0.00     0.090 A 
HETATM   28  C20 UNK     1      12.023  11.476  32.694  1.00  0.00     0.049 C 
HETATM   29  C21 UNK     1      15.172  13.505  33.607  1.00  0.00     0.288 A 
HETATM   30  O2  UNK     1      15.507  14.685  33.643  1.00  0.00    -0.260 OA
ENDBRANCH  17  19
ENDBRANCH   2  17
TORSDOF 4
ENDMDL
