MODEL 1
REMARK VINA RESULT:      -8.8      0.000      0.000
REMARK  6 active torsions:
REMARK  status: ('A' for Active; 'I' for Inactive)
REMARK    1  A    between atoms: C11_17  and  O2_2 
REMARK       I    between atoms: C13_19  and  N1_6 
REMARK    2  A    between atoms: C15_21  and  N1_6 
REMARK    3  A    between atoms: C1_7  and  C4_10 
REMARK    4  A    between atoms: C4_10  and  C6_12 
REMARK    5  A    between atoms: C13_19  and  C6_12 
REMARK    6  A    between atoms: C15_21  and  C16_22 
ROOT
HETATM    1  O1  UNK     1      18.635   0.534  31.821  1.00  0.00    -0.274 OA
HETATM    2  O3  UNK     1      18.616  -1.606  32.576  1.00  0.00    -0.259 OA
HETATM    3  C1  UNK     1      18.266   0.090  34.211  1.00  0.00     0.025 A 
HETATM    4  C2  UNK     1      18.195   1.412  34.476  1.00  0.00    -0.037 A 
HETATM    5  C3  UNK     1      18.314   2.384  33.370  1.00  0.00     0.005 A 
HETATM    6  C5  UNK     1      18.531   1.910  32.079  1.00  0.00     0.099 A 
HETATM    7  C7  UNK     1      18.652   2.759  30.976  1.00  0.00     0.006 A 
HETATM    8  C8  UNK     1      18.514  -0.410  32.827  1.00  0.00     0.295 A 
HETATM    9  C9  UNK     1      18.210   3.774  33.532  1.00  0.00     0.017 A 
HETATM   10  C10 UNK     1      18.016   1.977  35.864  1.00  0.00     0.050 C 
HETATM   11  C11 UNK     1      18.553   4.133  31.161  1.00  0.00     0.076 A 
HETATM   12  C12 UNK     1      18.331   4.640  32.438  1.00  0.00     0.038 A 
HETATM   13  C14 UNK     1      18.887   2.203  29.609  1.00  0.00     0.054 C 
ENDROOT
BRANCH   3  14
HETATM   14  C4  UNK     1      18.099  -1.005  35.232  1.00  0.00     0.055 C 
BRANCH  14  15
HETATM   15  C6  UNK     1      19.399  -1.324  35.958  1.00  0.00     0.107 C 
BRANCH  15  16
HETATM   16  C13 UNK     1      20.009  -2.662  35.568  1.00  0.00     0.218 C 
HETATM   17  O4  UNK     1      20.890  -2.782  34.721  1.00  0.00    -0.274 OA
HETATM   18  N1  UNK     1      19.435  -3.710  36.276  1.00  0.00    -0.355 N 
HETATM   19  H13 UNK     1      18.663  -3.515  36.908  1.00  0.00     0.162 HD
BRANCH  18  20
HETATM   20  C15 UNK     1      19.826  -5.087  36.084  1.00  0.00     0.187 C 
BRANCH  20  21
HETATM   21  C16 UNK     1      20.486  -5.659  37.304  1.00  0.00     0.070 A 
HETATM   22  O5  UNK     1      21.800  -5.399  37.416  1.00  0.00    -0.325 OA
HETATM   23  C20 UNK     1      22.190  -6.000  38.571  1.00  0.00     0.142 A 
HETATM   24  C19 UNK     1      21.125  -6.627  39.172  1.00  0.00     0.027 A 
HETATM   25  C18 UNK     1      20.009  -6.398  38.333  1.00  0.00     0.036 A 
ENDBRANCH  20  21
ENDBRANCH  18  20
ENDBRANCH  15  16
ENDBRANCH  14  15
ENDBRANCH   3  14
BRANCH  11  26
HETATM   26  O2  UNK     1      18.666   4.993  30.112  1.00  0.00    -0.355 OA
HETATM   27  C17 UNK     1      19.750   5.919  30.146  1.00  0.00     0.210 C 
ENDBRANCH  11  26
TORSDOF 6
ENDMDL
MODEL 2
REMARK VINA RESULT:      -8.7      2.366      4.222
REMARK  6 active torsions:
REMARK  status: ('A' for Active; 'I' for Inactive)
REMARK    1  A    between atoms: C11_17  and  O2_2 
REMARK       I    between atoms: C13_19  and  N1_6 
REMARK    2  A    between atoms: C15_21  and  N1_6 
REMARK    3  A    between atoms: C1_7  and  C4_10 
REMARK    4  A    between atoms: C4_10  and  C6_12 
REMARK    5  A    between atoms: C13_19  and  C6_12 
REMARK    6  A    between atoms: C15_21  and  C16_22 
ROOT
HETATM    1  O1  UNK     1      18.126   0.878  32.303  1.00  0.00    -0.274 OA
HETATM    2  O3  UNK     1      17.956  -1.337  32.769  1.00  0.00    -0.259 OA
HETATM    3  C1  UNK     1      18.162   0.121  34.641  1.00  0.00     0.025 A 
HETATM    4  C2  UNK     1      18.327   1.387  35.080  1.00  0.00    -0.037 A 
HETATM    5  C3  UNK     1      18.365   2.496  34.105  1.00  0.00     0.005 A 
HETATM    6  C5  UNK     1      18.264   2.202  32.748  1.00  0.00     0.099 A 
HETATM    7  C7  UNK     1      18.289   3.190  31.760  1.00  0.00     0.006 A 
HETATM    8  C8  UNK     1      18.071  -0.189  33.184  1.00  0.00     0.295 A 
HETATM    9  C9  UNK     1      18.487   3.848  34.459  1.00  0.00     0.017 A 
HETATM   10  C10 UNK     1      18.496   1.751  36.534  1.00  0.00     0.050 C 
HETATM   11  C11 UNK     1      18.417   4.522  32.134  1.00  0.00     0.076 A 
HETATM   12  C12 UNK     1      18.515   4.851  33.483  1.00  0.00     0.038 A 
HETATM   13  C14 UNK     1      18.179   2.824  30.315  1.00  0.00     0.054 C 
ENDROOT
BRANCH   3  14
HETATM   14  C4  UNK     1      18.044  -1.091  35.529  1.00  0.00     0.055 C 
BRANCH  14  15
HETATM   15  C6  UNK     1      19.401  -1.611  35.985  1.00  0.00     0.107 C 
BRANCH  15  16
HETATM   16  C13 UNK     1      20.061  -2.561  34.998  1.00  0.00     0.218 C 
HETATM   17  O4  UNK     1      20.204  -3.762  35.210  1.00  0.00    -0.274 OA
HETATM   18  N1  UNK     1      20.484  -1.897  33.855  1.00  0.00    -0.355 N 
HETATM   19  H13 UNK     1      20.380  -0.887  33.804  1.00  0.00     0.162 HD
BRANCH  18  20
HETATM   20  C15 UNK     1      21.155  -2.568  32.767  1.00  0.00     0.187 C 
BRANCH  20  21
HETATM   21  C16 UNK     1      20.860  -1.926  31.443  1.00  0.00     0.070 A 
HETATM   22  O5  UNK     1      21.084  -0.602  31.389  1.00  0.00    -0.325 OA
HETATM   23  C20 UNK     1      20.757  -0.231  30.123  1.00  0.00     0.142 A 
HETATM   24  C19 UNK     1      20.334  -1.318  29.396  1.00  0.00     0.027 A 
HETATM   25  C18 UNK     1      20.405  -2.428  30.271  1.00  0.00     0.036 A 
ENDBRANCH  20  21
ENDBRANCH  18  20
ENDBRANCH  15  16
ENDBRANCH  14  15
ENDBRANCH   3  14
BRANCH  11  26
HETATM   26  O2  UNK     1      18.445   5.513  31.201  1.00  0.00    -0.355 OA
HETATM   27  C17 UNK     1      19.709   6.122  30.939  1.00  0.00     0.210 C 
ENDBRANCH  11  26
TORSDOF 6
ENDMDL
MODEL 3
REMARK VINA RESULT:      -8.4      6.221      9.000
REMARK  6 active torsions:
REMARK  status: ('A' for Active; 'I' for Inactive)
REMARK    1  A    between atoms: C11_17  and  O2_2 
REMARK       I    between atoms: C13_19  and  N1_6 
REMARK    2  A    between atoms: C15_21  and  N1_6 
REMARK    3  A    between atoms: C1_7  and  C4_10 
REMARK    4  A    between atoms: C4_10  and  C6_12 
REMARK    5  A    between atoms: C13_19  and  C6_12 
REMARK    6  A    between atoms: C15_21  and  C16_22 
ROOT
HETATM    1  O1  UNK     1      16.226   7.745  32.956  1.00  0.00    -0.274 OA
HETATM    2  O3  UNK     1      16.906   5.641  32.445  1.00  0.00    -0.259 OA
HETATM    3  C1  UNK     1      18.574   7.107  33.308  1.00  0.00     0.025 A 
HETATM    4  C2  UNK     1      18.878   8.351  33.738  1.00  0.00    -0.037 A 
HETATM    5  C3  UNK     1      17.814   9.370  33.827  1.00  0.00     0.005 A 
HETATM    6  C5  UNK     1      16.523   9.032  33.433  1.00  0.00     0.099 A 
HETATM    7  C7  UNK     1      15.458   9.935  33.487  1.00  0.00     0.006 A 
HETATM    8  C8  UNK     1      17.191   6.756  32.871  1.00  0.00     0.295 A 
HETATM    9  C9  UNK     1      18.015  10.675  34.302  1.00  0.00     0.017 A 
HETATM   10  C10 UNK     1      20.271   8.782  34.125  1.00  0.00     0.050 C 
HETATM   11  C11 UNK     1      15.682  11.224  33.955  1.00  0.00     0.076 A 
HETATM   12  C12 UNK     1      16.960  11.594  34.363  1.00  0.00     0.038 A 
HETATM   13  C14 UNK     1      14.088   9.524  33.050  1.00  0.00     0.054 C 
ENDROOT
BRANCH   3  14
HETATM   14  C4  UNK     1      19.547   5.960  33.227  1.00  0.00     0.055 C 
BRANCH  14  15
HETATM   15  C6  UNK     1      20.474   6.068  32.025  1.00  0.00     0.107 C 
BRANCH  15  16
HETATM   16  C13 UNK     1      19.869   5.543  30.732  1.00  0.00     0.218 C 
HETATM   17  O4  UNK     1      19.895   6.164  29.673  1.00  0.00    -0.274 OA
HETATM   18  N1  UNK     1      19.280   4.299  30.912  1.00  0.00    -0.355 N 
HETATM   19  H13 UNK     1      19.251   3.896  31.845  1.00  0.00     0.162 HD
BRANCH  18  20
HETATM   20  C15 UNK     1      18.621   3.586  29.842  1.00  0.00     0.187 C 
BRANCH  20  21
HETATM   21  C16 UNK     1      18.986   2.130  29.829  1.00  0.00     0.070 A 
HETATM   22  O5  UNK     1      18.978   1.552  28.615  1.00  0.00    -0.325 OA
HETATM   23  C20 UNK     1      19.331   0.257  28.830  1.00  0.00     0.142 A 
HETATM   24  C19 UNK     1      19.557   0.034  30.167  1.00  0.00     0.027 A 
HETATM   25  C18 UNK     1      19.328   1.270  30.817  1.00  0.00     0.036 A 
ENDBRANCH  20  21
ENDBRANCH  18  20
ENDBRANCH  15  16
ENDBRANCH  14  15
ENDBRANCH   3  14
BRANCH  11  26
HETATM   26  O2  UNK     1      14.670  12.132  34.023  1.00  0.00    -0.355 OA
HETATM   27  C17 UNK     1      14.411  12.721  35.296  1.00  0.00     0.210 C 
ENDBRANCH  11  26
TORSDOF 6
ENDMDL
MODEL 4
REMARK VINA RESULT:      -8.2     25.618     28.262
REMARK  6 active torsions:
REMARK  status: ('A' for Active; 'I' for Inactive)
REMARK    1  A    between atoms: C11_17  and  O2_2 
REMARK       I    between atoms: C13_19  and  N1_6 
REMARK    2  A    between atoms: C15_21  and  N1_6 
REMARK    3  A    between atoms: C1_7  and  C4_10 
REMARK    4  A    between atoms: C4_10  and  C6_12 
REMARK    5  A    between atoms: C13_19  and  C6_12 
REMARK    6  A    between atoms: C15_21  and  C16_22 
ROOT
HETATM    1  O1  UNK     1      17.958   9.667   9.080  1.00  0.00    -0.274 OA
HETATM    2  O3  UNK     1      18.057   7.759  10.305  1.00  0.00    -0.259 OA
HETATM    3  C1  UNK     1      15.896   8.723  10.029  1.00  0.00     0.025 A 
HETATM    4  C2  UNK     1      15.164   9.741   9.530  1.00  0.00    -0.037 A 
HETATM    5  C3  UNK     1      15.827  10.787   8.725  1.00  0.00     0.005 A 
HETATM    6  C5  UNK     1      17.202  10.714   8.528  1.00  0.00     0.099 A 
HETATM    7  C7  UNK     1      17.907  11.659   7.778  1.00  0.00     0.006 A 
HETATM    8  C8  UNK     1      17.374   8.659   9.828  1.00  0.00     0.295 A 
HETATM    9  C9  UNK     1      15.151  11.861   8.125  1.00  0.00     0.017 A 
HETATM   10  C10 UNK     1      13.681   9.895   9.761  1.00  0.00     0.050 C 
HETATM   11  C11 UNK     1      17.218  12.718   7.199  1.00  0.00     0.076 A 
HETATM   12  C12 UNK     1      15.841  12.819   7.371  1.00  0.00     0.038 A 
HETATM   13  C14 UNK     1      19.386  11.539   7.597  1.00  0.00     0.054 C 
ENDROOT
BRANCH   3  14
HETATM   14  C4  UNK     1      15.339   7.562  10.812  1.00  0.00     0.055 C 
BRANCH  14  15
HETATM   15  C6  UNK     1      15.150   6.320   9.952  1.00  0.00     0.107 C 
BRANCH  15  16
HETATM   16  C13 UNK     1      13.694   5.933   9.741  1.00  0.00     0.218 C 
HETATM   17  O4  UNK     1      12.776   6.347  10.443  1.00  0.00    -0.274 OA
HETATM   18  N1  UNK     1      13.549   5.053   8.677  1.00  0.00    -0.355 N 
HETATM   19  H13 UNK     1      14.380   4.715   8.199  1.00  0.00     0.162 HD
BRANCH  18  20
HETATM   20  C15 UNK     1      12.269   4.520   8.274  1.00  0.00     0.187 C 
BRANCH  20  21
HETATM   21  C16 UNK     1      11.512   5.476   7.399  1.00  0.00     0.070 A 
HETATM   22  O5  UNK     1      10.187   5.528   7.625  1.00  0.00    -0.325 OA
HETATM   23  C20 UNK     1       9.706   6.440   6.739  1.00  0.00     0.142 A 
HETATM   24  C19 UNK     1      10.725   6.950   5.970  1.00  0.00     0.027 A 
HETATM   25  C18 UNK     1      11.908   6.311   6.411  1.00  0.00     0.036 A 
ENDBRANCH  20  21
ENDBRANCH  18  20
ENDBRANCH  15  16
ENDBRANCH  14  15
ENDBRANCH   3  14
BRANCH  11  26
HETATM   26  O2  UNK     1      17.869  13.659   6.462  1.00  0.00    -0.355 OA
HETATM   27  C17 UNK     1      17.068  14.652   5.822  1.00  0.00     0.210 C 
ENDBRANCH  11  26
TORSDOF 6
ENDMDL
MODEL 5
REMARK VINA RESULT:      -8.1      1.546      2.608
REMARK  6 active torsions:
REMARK  status: ('A' for Active; 'I' for Inactive)
REMARK    1  A    between atoms: C11_17  and  O2_2 
REMARK       I    between atoms: C13_19  and  N1_6 
REMARK    2  A    between atoms: C15_21  and  N1_6 
REMARK    3  A    between atoms: C1_7  and  C4_10 
REMARK    4  A    between atoms: C4_10  and  C6_12 
REMARK    5  A    between atoms: C13_19  and  C6_12 
REMARK    6  A    between atoms: C15_21  and  C16_22 
ROOT
HETATM    1  O1  UNK     1      17.828   2.626  33.979  1.00  0.00    -0.274 OA
HETATM    2  O3  UNK     1      17.401   1.572  35.942  1.00  0.00    -0.259 OA
HETATM    3  C1  UNK     1      18.224   0.208  34.171  1.00  0.00     0.025 A 
HETATM    4  C2  UNK     1      18.610   0.138  32.879  1.00  0.00    -0.037 A 
HETATM    5  C3  UNK     1      18.652   1.370  32.065  1.00  0.00     0.005 A 
HETATM    6  C5  UNK     1      18.259   2.573  32.644  1.00  0.00     0.099 A 
HETATM    7  C7  UNK     1      18.270   3.783  31.946  1.00  0.00     0.006 A 
HETATM    8  C8  UNK     1      17.787   1.498  34.781  1.00  0.00     0.295 A 
HETATM    9  C9  UNK     1      19.080   1.413  30.729  1.00  0.00     0.017 A 
HETATM   10  C10 UNK     1      18.993  -1.148  32.190  1.00  0.00     0.050 C 
HETATM   11  C11 UNK     1      18.692   3.801  30.622  1.00  0.00     0.076 A 
HETATM   12  C12 UNK     1      19.098   2.616  30.014  1.00  0.00     0.038 A 
HETATM   13  C14 UNK     1      17.836   5.050  32.611  1.00  0.00     0.054 C 
ENDROOT
BRANCH   3  14
HETATM   14  C4  UNK     1      18.194  -0.956  35.127  1.00  0.00     0.055 C 
BRANCH  14  15
HETATM   15  C6  UNK     1      19.390  -0.965  36.069  1.00  0.00     0.107 C 
BRANCH  15  16
HETATM   16  C13 UNK     1      20.248  -2.217  35.965  1.00  0.00     0.218 C 
HETATM   17  O4  UNK     1      21.090  -2.388  35.087  1.00  0.00    -0.274 OA
HETATM   18  N1  UNK     1      19.944  -3.128  36.967  1.00  0.00    -0.355 N 
HETATM   19  H13 UNK     1      19.182  -2.922  37.607  1.00  0.00     0.162 HD
BRANCH  18  20
HETATM   20  C15 UNK     1      20.606  -4.406  37.086  1.00  0.00     0.187 C 
BRANCH  20  21
HETATM   21  C16 UNK     1      19.854  -5.495  36.378  1.00  0.00     0.070 A 
HETATM   22  O5  UNK     1      20.452  -5.975  35.273  1.00  0.00    -0.325 OA
HETATM   23  C20 UNK     1      19.615  -6.935  34.798  1.00  0.00     0.142 A 
HETATM   24  C19 UNK     1      18.507  -7.051  35.603  1.00  0.00     0.027 A 
HETATM   25  C18 UNK     1      18.672  -6.102  36.639  1.00  0.00     0.036 A 
ENDBRANCH  20  21
ENDBRANCH  18  20
ENDBRANCH  15  16
ENDBRANCH  14  15
ENDBRANCH   3  14
BRANCH  11  26
HETATM   26  O2  UNK     1      18.717   4.961  29.909  1.00  0.00    -0.355 OA
HETATM   27  C17 UNK     1      19.898   5.756  30.005  1.00  0.00     0.210 C 
ENDBRANCH  11  26
TORSDOF 6
ENDMDL
MODEL 6
REMARK VINA RESULT:      -8.0      3.840     11.222
REMARK  6 active torsions:
REMARK  status: ('A' for Active; 'I' for Inactive)
REMARK    1  A    between atoms: C11_17  and  O2_2 
REMARK       I    between atoms: C13_19  and  N1_6 
REMARK    2  A    between atoms: C15_21  and  N1_6 
REMARK    3  A    between atoms: C1_7  and  C4_10 
REMARK    4  A    between atoms: C4_10  and  C6_12 
REMARK    5  A    between atoms: C13_19  and  C6_12 
REMARK    6  A    between atoms: C15_21  and  C16_22 
ROOT
HETATM    1  O1  UNK     1      23.382  -8.086  37.548  1.00  0.00    -0.274 OA
HETATM    2  O3  UNK     1      22.884  -6.142  38.609  1.00  0.00    -0.259 OA
HETATM    3  C1  UNK     1      21.047  -7.326  37.661  1.00  0.00     0.025 A 
HETATM    4  C2  UNK     1      20.634  -8.390  36.941  1.00  0.00    -0.037 A 
HETATM    5  C3  UNK     1      21.619  -9.402  36.508  1.00  0.00     0.005 A 
HETATM    6  C5  UNK     1      22.960  -9.215  36.827  1.00  0.00     0.099 A 
HETATM    7  C7  UNK     1      23.956 -10.123  36.458  1.00  0.00     0.006 A 
HETATM    8  C8  UNK     1      22.489  -7.122  37.985  1.00  0.00     0.295 A 
HETATM    9  C9  UNK     1      21.288 -10.565  35.796  1.00  0.00     0.017 A 
HETATM   10  C10 UNK     1      19.201  -8.611  36.523  1.00  0.00     0.050 C 
HETATM   11  C11 UNK     1      23.606 -11.265  35.748  1.00  0.00     0.076 A 
HETATM   12  C12 UNK     1      22.272 -11.486  35.417  1.00  0.00     0.038 A 
HETATM   13  C14 UNK     1      25.385  -9.876  36.823  1.00  0.00     0.054 C 
ENDROOT
BRANCH   3  14
HETATM   14  C4  UNK     1      20.142  -6.256  38.216  1.00  0.00     0.055 C 
BRANCH  14  15
HETATM   15  C6  UNK     1      19.401  -5.498  37.124  1.00  0.00     0.107 C 
BRANCH  15  16
HETATM   16  C13 UNK     1      20.100  -4.225  36.674  1.00  0.00     0.218 C 
HETATM   17  O4  UNK     1      21.299  -4.018  36.839  1.00  0.00    -0.274 OA
HETATM   18  N1  UNK     1      19.213  -3.338  36.079  1.00  0.00    -0.355 N 
HETATM   19  H13 UNK     1      18.224  -3.573  36.051  1.00  0.00     0.162 HD
BRANCH  18  20
HETATM   20  C15 UNK     1      19.620  -2.047  35.577  1.00  0.00     0.187 C 
BRANCH  20  21
HETATM   21  C16 UNK     1      18.877  -0.925  36.244  1.00  0.00     0.070 A 
HETATM   22  O5  UNK     1      19.135   0.300  35.754  1.00  0.00    -0.325 OA
HETATM   23  C20 UNK     1      18.371   1.151  36.488  1.00  0.00     0.142 A 
HETATM   24  C19 UNK     1      17.643   0.458  37.425  1.00  0.00     0.027 A 
HETATM   25  C18 UNK     1      17.980  -0.905  37.258  1.00  0.00     0.036 A 
ENDBRANCH  20  21
ENDBRANCH  18  20
ENDBRANCH  15  16
ENDBRANCH  14  15
ENDBRANCH   3  14
BRANCH  11  26
HETATM   26  O2  UNK     1      24.547 -12.173  35.371  1.00  0.00    -0.355 OA
HETATM   27  C17 UNK     1      24.671 -13.349  36.170  1.00  0.00     0.210 C 
ENDBRANCH  11  26
TORSDOF 6
ENDMDL
MODEL 7
REMARK VINA RESULT:      -8.0      2.501      4.720
REMARK  6 active torsions:
REMARK  status: ('A' for Active; 'I' for Inactive)
REMARK    1  A    between atoms: C11_17  and  O2_2 
REMARK       I    between atoms: C13_19  and  N1_6 
REMARK    2  A    between atoms: C15_21  and  N1_6 
REMARK    3  A    between atoms: C1_7  and  C4_10 
REMARK    4  A    between atoms: C4_10  and  C6_12 
REMARK    5  A    between atoms: C13_19  and  C6_12 
REMARK    6  A    between atoms: C15_21  and  C16_22 
ROOT
HETATM    1  O1  UNK     1      18.384   2.824  35.256  1.00  0.00    -0.274 OA
HETATM    2  O3  UNK     1      18.440   1.589  37.159  1.00  0.00    -0.259 OA
HETATM    3  C1  UNK     1      18.285   0.372  35.117  1.00  0.00     0.025 A 
HETATM    4  C2  UNK     1      18.177   0.422  33.772  1.00  0.00    -0.037 A 
HETATM    5  C3  UNK     1      18.204   1.732  33.089  1.00  0.00     0.005 A 
HETATM    6  C5  UNK     1      18.307   2.889  33.856  1.00  0.00     0.099 A 
HETATM    7  C7  UNK     1      18.341   4.166  33.290  1.00  0.00     0.006 A 
HETATM    8  C8  UNK     1      18.377   1.617  35.934  1.00  0.00     0.295 A 
HETATM    9  C9  UNK     1      18.145   1.891  31.696  1.00  0.00     0.017 A 
HETATM   10  C10 UNK     1      18.010  -0.798  32.901  1.00  0.00     0.050 C 
HETATM   11  C11 UNK     1      18.274   4.300  31.909  1.00  0.00     0.076 A 
HETATM   12  C12 UNK     1      18.177   3.163  31.112  1.00  0.00     0.038 A 
HETATM   13  C14 UNK     1      18.450   5.379  34.157  1.00  0.00     0.054 C 
ENDROOT
BRANCH   3  14
HETATM   14  C4  UNK     1      18.333  -0.895  35.932  1.00  0.00     0.055 C 
BRANCH  14  15
HETATM   15  C6  UNK     1      19.755  -1.399  36.137  1.00  0.00     0.107 C 
BRANCH  15  16
HETATM   16  C13 UNK     1      20.189  -2.448  35.124  1.00  0.00     0.218 C 
HETATM   17  O4  UNK     1      20.109  -3.656  35.327  1.00  0.00    -0.274 OA
HETATM   18  N1  UNK     1      20.691  -1.864  33.969  1.00  0.00    -0.355 N 
HETATM   19  H13 UNK     1      20.778  -0.852  33.924  1.00  0.00     0.162 HD
BRANCH  18  20
HETATM   20  C15 UNK     1      21.186  -2.639  32.856  1.00  0.00     0.187 C 
BRANCH  20  21
HETATM   21  C16 UNK     1      20.880  -1.989  31.538  1.00  0.00     0.070 A 
HETATM   22  O5  UNK     1      21.116  -0.666  31.488  1.00  0.00    -0.325 OA
HETATM   23  C20 UNK     1      20.778  -0.286  30.227  1.00  0.00     0.142 A 
HETATM   24  C19 UNK     1      20.336  -1.367  29.501  1.00  0.00     0.027 A 
HETATM   25  C18 UNK     1      20.407  -2.481  30.369  1.00  0.00     0.036 A 
ENDBRANCH  20  21
ENDBRANCH  18  20
ENDBRANCH  15  16
ENDBRANCH  14  15
ENDBRANCH   3  14
BRANCH  11  26
HETATM   26  O2  UNK     1      18.305   5.528  31.321  1.00  0.00    -0.355 OA
HETATM   27  C17 UNK     1      19.094   5.662  30.140  1.00  0.00     0.210 C 
ENDBRANCH  11  26
TORSDOF 6
ENDMDL
MODEL 8
REMARK VINA RESULT:      -8.0      8.415     12.672
REMARK  6 active torsions:
REMARK  status: ('A' for Active; 'I' for Inactive)
REMARK    1  A    between atoms: C11_17  and  O2_2 
REMARK       I    between atoms: C13_19  and  N1_6 
REMARK    2  A    between atoms: C15_21  and  N1_6 
REMARK    3  A    between atoms: C1_7  and  C4_10 
REMARK    4  A    between atoms: C4_10  and  C6_12 
REMARK    5  A    between atoms: C13_19  and  C6_12 
REMARK    6  A    between atoms: C15_21  and  C16_22 
ROOT
HETATM    1  O1  UNK     1      28.036  -5.411  38.423  1.00  0.00    -0.274 OA
HETATM    2  O3  UNK     1      25.776  -5.432  38.635  1.00  0.00    -0.259 OA
HETATM    3  C1  UNK     1      26.866  -7.547  38.757  1.00  0.00     0.025 A 
HETATM    4  C2  UNK     1      28.028  -8.230  38.683  1.00  0.00    -0.037 A 
HETATM    5  C3  UNK     1      29.295  -7.492  38.503  1.00  0.00     0.005 A 
HETATM    6  C5  UNK     1      29.255  -6.106  38.379  1.00  0.00     0.099 A 
HETATM    7  C7  UNK     1      30.405  -5.332  38.208  1.00  0.00     0.006 A 
HETATM    8  C8  UNK     1      26.828  -6.063  38.606  1.00  0.00     0.295 A 
HETATM    9  C9  UNK     1      30.558  -8.101  38.459  1.00  0.00     0.017 A 
HETATM   10  C10 UNK     1      28.120  -9.734  38.758  1.00  0.00     0.050 C 
HETATM   11  C11 UNK     1      31.646  -5.958  38.161  1.00  0.00     0.076 A 
HETATM   12  C12 UNK     1      31.722  -7.342  38.287  1.00  0.00     0.038 A 
HETATM   13  C14 UNK     1      30.310  -3.846  38.076  1.00  0.00     0.054 C 
ENDROOT
BRANCH   3  14
HETATM   14  C4  UNK     1      25.515  -8.168  39.000  1.00  0.00     0.055 C 
BRANCH  14  15
HETATM   15  C6  UNK     1      24.797  -8.522  37.705  1.00  0.00     0.107 C 
BRANCH  15  16
HETATM   16  C13 UNK     1      23.281  -8.544  37.826  1.00  0.00     0.218 C 
HETATM   17  O4  UNK     1      22.659  -7.873  38.646  1.00  0.00    -0.274 OA
HETATM   18  N1  UNK     1      22.709  -9.419  36.914  1.00  0.00    -0.355 N 
HETATM   19  H13 UNK     1      23.314  -9.981  36.321  1.00  0.00     0.162 HD
BRANCH  18  20
HETATM   20  C15 UNK     1      21.283  -9.637  36.831  1.00  0.00     0.187 C 
BRANCH  20  21
HETATM   21  C16 UNK     1      20.603  -8.596  35.991  1.00  0.00     0.070 A 
HETATM   22  O5  UNK     1      21.324  -8.144  34.950  1.00  0.00    -0.325 OA
HETATM   23  C20 UNK     1      20.533  -7.225  34.335  1.00  0.00     0.142 A 
HETATM   24  C19 UNK     1      19.330  -7.109  34.990  1.00  0.00     0.027 A 
HETATM   25  C18 UNK     1      19.384  -8.013  36.076  1.00  0.00     0.036 A 
ENDBRANCH  20  21
ENDBRANCH  18  20
ENDBRANCH  15  16
ENDBRANCH  14  15
ENDBRANCH   3  14
BRANCH  11  26
HETATM   26  O2  UNK     1      32.789  -5.237  37.995  1.00  0.00    -0.355 OA
HETATM   27  C17 UNK     1      33.965  -5.960  37.636  1.00  0.00     0.210 C 
ENDBRANCH  11  26
TORSDOF 6
ENDMDL
MODEL 9
REMARK VINA RESULT:      -8.0      5.064     10.816
REMARK  6 active torsions:
REMARK  status: ('A' for Active; 'I' for Inactive)
REMARK    1  A    between atoms: C11_17  and  O2_2 
REMARK       I    between atoms: C13_19  and  N1_6 
REMARK    2  A    between atoms: C15_21  and  N1_6 
REMARK    3  A    between atoms: C1_7  and  C4_10 
REMARK    4  A    between atoms: C4_10  and  C6_12 
REMARK    5  A    between atoms: C13_19  and  C6_12 
REMARK    6  A    between atoms: C15_21  and  C16_22 
ROOT
HETATM    1  O1  UNK     1      17.866   4.109  33.468  1.00  0.00    -0.274 OA
HETATM    2  O3  UNK     1      17.409   6.212  34.189  1.00  0.00    -0.259 OA
HETATM    3  C1  UNK     1      18.158   6.009  31.937  1.00  0.00     0.025 A 
HETATM    4  C2  UNK     1      18.601   5.191  30.958  1.00  0.00    -0.037 A 
HETATM    5  C3  UNK     1      18.662   3.735  31.199  1.00  0.00     0.005 A 
HETATM    6  C5  UNK     1      18.292   3.244  32.448  1.00  0.00     0.099 A 
HETATM    7  C7  UNK     1      18.319   1.883  32.759  1.00  0.00     0.006 A 
HETATM    8  C8  UNK     1      17.779   5.478  33.279  1.00  0.00     0.295 A 
HETATM    9  C9  UNK     1      19.063   2.797  30.237  1.00  0.00     0.017 A 
HETATM   10  C10 UNK     1      19.064   5.679  29.607  1.00  0.00     0.050 C 
HETATM   11  C11 UNK     1      18.726   0.971  31.792  1.00  0.00     0.076 A 
HETATM   12  C12 UNK     1      19.097   1.428  30.531  1.00  0.00     0.038 A 
HETATM   13  C14 UNK     1      17.914   1.404  34.117  1.00  0.00     0.054 C 
ENDROOT
BRANCH   3  14
HETATM   14  C4  UNK     1      17.988   7.501  31.803  1.00  0.00     0.055 C 
BRANCH  14  15
HETATM   15  C6  UNK     1      16.732   7.874  31.029  1.00  0.00     0.107 C 
BRANCH  15  16
HETATM   16  C13 UNK     1      15.449   7.742  31.835  1.00  0.00     0.218 C 
HETATM   17  O4  UNK     1      14.467   7.117  31.444  1.00  0.00    -0.274 OA
HETATM   18  N1  UNK     1      15.531   8.425  33.041  1.00  0.00    -0.355 N 
HETATM   19  H13 UNK     1      16.365   8.970  33.244  1.00  0.00     0.162 HD
BRANCH  18  20
HETATM   20  C15 UNK     1      14.441   8.470  33.987  1.00  0.00     0.187 C 
BRANCH  20  21
HETATM   21  C16 UNK     1      14.079   9.878  34.359  1.00  0.00     0.070 A 
HETATM   22  O5  UNK     1      14.410  10.240  35.611  1.00  0.00    -0.325 OA
HETATM   23  C20 UNK     1      13.998  11.529  35.736  1.00  0.00     0.142 A 
HETATM   24  C19 UNK     1      13.416  11.964  34.568  1.00  0.00     0.027 A 
HETATM   25  C18 UNK     1      13.474  10.874  33.669  1.00  0.00     0.036 A 
ENDBRANCH  20  21
ENDBRANCH  18  20
ENDBRANCH  15  16
ENDBRANCH  14  15
ENDBRANCH   3  14
BRANCH  11  26
HETATM   26  O2  UNK     1      18.765  -0.363  32.058  1.00  0.00    -0.355 OA
HETATM   27  C17 UNK     1      19.787  -1.123  31.415  1.00  0.00     0.210 C 
ENDBRANCH  11  26
TORSDOF 6
ENDMDL
MODEL 10
REMARK VINA RESULT:      -7.8      2.556      3.800
REMARK  6 active torsions:
REMARK  status: ('A' for Active; 'I' for Inactive)
REMARK    1  A    between atoms: C11_17  and  O2_2 
REMARK       I    between atoms: C13_19  and  N1_6 
REMARK    2  A    between atoms: C15_21  and  N1_6 
REMARK    3  A    between atoms: C1_7  and  C4_10 
REMARK    4  A    between atoms: C4_10  and  C6_12 
REMARK    5  A    between atoms: C13_19  and  C6_12 
REMARK    6  A    between atoms: C15_21  and  C16_22 
ROOT
HETATM    1  O1  UNK     1      18.148   2.607  33.048  1.00  0.00    -0.274 OA
HETATM    2  O3  UNK     1      18.115   0.479  33.834  1.00  0.00    -0.259 OA
HETATM    3  C1  UNK     1      18.757   0.750  31.557  1.00  0.00     0.025 A 
HETATM    4  C2  UNK     1      18.943   1.600  30.524  1.00  0.00    -0.037 A 
HETATM    5  C3  UNK     1      18.762   3.051  30.735  1.00  0.00     0.005 A 
HETATM    6  C5  UNK     1      18.370   3.504  31.991  1.00  0.00     0.099 A 
HETATM    7  C7  UNK     1      18.179   4.859  32.276  1.00  0.00     0.006 A 
HETATM    8  C8  UNK     1      18.321   1.242  32.897  1.00  0.00     0.295 A 
HETATM    9  C9  UNK     1      18.973   4.020  29.743  1.00  0.00     0.017 A 
HETATM   10  C10 UNK     1      19.314   1.154  29.132  1.00  0.00     0.050 C 
HETATM   11  C11 UNK     1      18.387   5.801  31.276  1.00  0.00     0.076 A 
HETATM   12  C12 UNK     1      18.785   5.382  30.010  1.00  0.00     0.038 A 
HETATM   13  C14 UNK     1      17.755   5.297  33.641  1.00  0.00     0.054 C 
ENDROOT
BRANCH   3  14
HETATM   14  C4  UNK     1      18.968  -0.741  31.495  1.00  0.00     0.055 C 
BRANCH  14  15
HETATM   15  C6  UNK     1      20.433  -1.126  31.638  1.00  0.00     0.107 C 
BRANCH  15  16
HETATM   16  C13 UNK     1      20.685  -2.228  32.656  1.00  0.00     0.218 C 
HETATM   17  O4  UNK     1      21.300  -3.259  32.398  1.00  0.00    -0.274 OA
HETATM   18  N1  UNK     1      20.122  -1.921  33.888  1.00  0.00    -0.355 N 
HETATM   19  H13 UNK     1      19.573  -1.071  33.983  1.00  0.00     0.162 HD
BRANCH  18  20
HETATM   20  C15 UNK     1      20.205  -2.808  35.025  1.00  0.00     0.187 C 
BRANCH  20  21
HETATM   21  C16 UNK     1      19.377  -2.322  36.178  1.00  0.00     0.070 A 
HETATM   22  O5  UNK     1      18.295  -1.598  35.838  1.00  0.00    -0.325 OA
HETATM   23  C20 UNK     1      17.700  -1.265  37.014  1.00  0.00     0.142 A 
HETATM   24  C19 UNK     1      18.406  -1.779  38.075  1.00  0.00     0.027 A 
HETATM   25  C18 UNK     1      19.506  -2.472  37.517  1.00  0.00     0.036 A 
ENDBRANCH  20  21
ENDBRANCH  18  20
ENDBRANCH  15  16
ENDBRANCH  14  15
ENDBRANCH   3  14
BRANCH  11  26
HETATM   26  O2  UNK     1      18.211   7.129  31.516  1.00  0.00    -0.355 OA
HETATM   27  C17 UNK     1      16.901   7.657  31.313  1.00  0.00     0.210 C 
ENDBRANCH  11  26
TORSDOF 6
ENDMDL
