MODEL 1
REMARK VINA RESULT:      -7.5      0.000      0.000
REMARK  3 active torsions:
REMARK  status: ('A' for Active; 'I' for Inactive)
REMARK    1  A    between atoms: C6_10  and  O2_2 
REMARK    2  A    between atoms: C4_8  and  C8_12 
REMARK    3  A    between atoms: C11_15  and  C8_12 
ROOT
HETATM    1  O1  UNK     1      17.073   9.044  34.644  1.00  0.00    -0.274 OA
HETATM    2  O4  UNK     1      15.349  10.221  35.575  1.00  0.00    -0.260 OA
HETATM    3  C1  UNK     1      16.594   7.399  32.903  1.00  0.00     0.006 A 
HETATM    4  C2  UNK     1      17.504   8.070  33.721  1.00  0.00     0.099 A 
HETATM    5  C3  UNK     1      18.877   7.817  33.674  1.00  0.00     0.007 A 
HETATM    6  C4  UNK     1      18.475   6.180  31.953  1.00  0.00     0.044 A 
HETATM    7  C5  UNK     1      17.103   6.444  32.011  1.00  0.00     0.032 A 
HETATM    8  C6  UNK     1      19.361   6.865  32.783  1.00  0.00     0.088 A 
HETATM    9  C7  UNK     1      15.167   7.728  33.018  1.00  0.00    -0.043 A 
HETATM   10  C9  UNK     1      19.817   8.558  34.569  1.00  0.00     0.054 C 
HETATM   11  C10 UNK     1      14.786   8.660  33.905  1.00  0.00     0.090 A 
HETATM   12  C12 UNK     1      14.163   7.025  32.153  1.00  0.00     0.049 C 
HETATM   13  C13 UNK     1      15.733   9.375  34.775  1.00  0.00     0.288 A 
ENDROOT
BRANCH   6  14
HETATM   14  C8  UNK     1      18.960   5.179  31.011  1.00  0.00     0.162 C 
HETATM   15  O3  UNK     1      19.744   5.495  30.095  1.00  0.00    -0.292 OA
BRANCH  14  16
HETATM   16  C11 UNK     1      18.504   3.717  31.146  1.00  0.00     0.079 C 
HETATM   17  C14 UNK     1      18.594   2.931  29.847  1.00  0.00     0.013 C 
ENDBRANCH  14  16
ENDBRANCH   6  14
BRANCH   8  18
HETATM   18  O2  UNK     1      20.698   6.605  32.722  1.00  0.00    -0.359 OA
HETATM   19  H14 UNK     1      21.192   7.386  32.427  1.00  0.00     0.217 HD
ENDBRANCH   8  18
TORSDOF 3
ENDMDL
MODEL 2
REMARK VINA RESULT:      -7.5      3.079      5.378
REMARK  3 active torsions:
REMARK  status: ('A' for Active; 'I' for Inactive)
REMARK    1  A    between atoms: C6_10  and  O2_2 
REMARK    2  A    between atoms: C4_8  and  C8_12 
REMARK    3  A    between atoms: C11_15  and  C8_12 
ROOT
HETATM    1  O1  UNK     1      17.927   4.099  33.443  1.00  0.00    -0.274 OA
HETATM    2  O4  UNK     1      17.597   6.206  34.267  1.00  0.00    -0.260 OA
HETATM    3  C1  UNK     1      18.681   3.822  31.136  1.00  0.00     0.006 A 
HETATM    4  C2  UNK     1      18.301   3.275  32.363  1.00  0.00     0.099 A 
HETATM    5  C3  UNK     1      18.270   1.897  32.587  1.00  0.00     0.007 A 
HETATM    6  C4  UNK     1      19.013   1.552  30.322  1.00  0.00     0.044 A 
HETATM    7  C5  UNK     1      19.039   2.935  30.112  1.00  0.00     0.032 A 
HETATM    8  C6  UNK     1      18.630   1.033  31.557  1.00  0.00     0.088 A 
HETATM    9  C7  UNK     1      18.685   5.283  30.989  1.00  0.00    -0.043 A 
HETATM   10  C9  UNK     1      17.857   1.352  33.916  1.00  0.00     0.054 C 
HETATM   11  C10 UNK     1      18.324   6.042  32.034  1.00  0.00     0.090 A 
HETATM   12  C12 UNK     1      19.088   5.904  29.682  1.00  0.00     0.049 C 
HETATM   13  C13 UNK     1      17.921   5.480  33.333  1.00  0.00     0.288 A 
ENDROOT
BRANCH   6  14
HETATM   14  C8  UNK     1      19.394   0.667  29.228  1.00  0.00     0.162 C 
HETATM   15  O3  UNK     1      18.702   0.600  28.194  1.00  0.00    -0.292 OA
BRANCH  14  16
HETATM   16  C11 UNK     1      20.662  -0.193  29.347  1.00  0.00     0.079 C 
HETATM   17  C14 UNK     1      20.384  -1.689  29.335  1.00  0.00     0.013 C 
ENDBRANCH  14  16
ENDBRANCH   6  14
BRANCH   8  18
HETATM   18  O2  UNK     1      18.606  -0.315  31.758  1.00  0.00    -0.359 OA
HETATM   19  H14 UNK     1      18.993  -0.546  32.616  1.00  0.00     0.217 HD
ENDBRANCH   8  18
TORSDOF 3
ENDMDL
MODEL 3
REMARK VINA RESULT:      -7.1      3.340      6.690
REMARK  3 active torsions:
REMARK  status: ('A' for Active; 'I' for Inactive)
REMARK    1  A    between atoms: C6_10  and  O2_2 
REMARK    2  A    between atoms: C4_8  and  C8_12 
REMARK    3  A    between atoms: C11_15  and  C8_12 
ROOT
HETATM    1  O1  UNK     1      18.663   0.528  31.729  1.00  0.00    -0.274 OA
HETATM    2  O4  UNK     1      18.673  -1.591  32.586  1.00  0.00    -0.260 OA
HETATM    3  C1  UNK     1      18.340   2.424  33.235  1.00  0.00     0.006 A 
HETATM    4  C2  UNK     1      18.548   1.915  31.953  1.00  0.00     0.099 A 
HETATM    5  C3  UNK     1      18.652   2.739  30.830  1.00  0.00     0.007 A 
HETATM    6  C4  UNK     1      18.340   4.654  32.258  1.00  0.00     0.044 A 
HETATM    7  C5  UNK     1      18.237   3.815  33.373  1.00  0.00     0.032 A 
HETATM    8  C6  UNK     1      18.547   4.117  30.989  1.00  0.00     0.088 A 
HETATM    9  C7  UNK     1      18.242   1.483  34.359  1.00  0.00    -0.043 A 
HETATM   10  C9  UNK     1      18.876   2.153  29.474  1.00  0.00     0.054 C 
HETATM   11  C10 UNK     1      18.356   0.169  34.117  1.00  0.00     0.090 A 
HETATM   12  C12 UNK     1      18.018   1.998  35.751  1.00  0.00     0.049 C 
HETATM   13  C13 UNK     1      18.575  -0.383  32.770  1.00  0.00     0.288 A 
ENDROOT
BRANCH   6  14
HETATM   14  C8  UNK     1      18.226   6.094  32.449  1.00  0.00     0.162 C 
HETATM   15  O3  UNK     1      17.300   6.736  31.914  1.00  0.00    -0.292 OA
BRANCH  14  16
HETATM   16  C11 UNK     1      19.255   6.835  33.319  1.00  0.00     0.079 C 
HETATM   17  C14 UNK     1      20.697   6.561  32.918  1.00  0.00     0.013 C 
ENDBRANCH  14  16
ENDBRANCH   6  14
BRANCH   8  18
HETATM   18  O2  UNK     1      18.647   4.939  29.905  1.00  0.00    -0.359 OA
HETATM   19  H14 UNK     1      18.527   5.867  30.160  1.00  0.00     0.217 HD
ENDBRANCH   8  18
TORSDOF 3
ENDMDL
MODEL 4
REMARK VINA RESULT:      -7.0      4.785      7.779
REMARK  3 active torsions:
REMARK  status: ('A' for Active; 'I' for Inactive)
REMARK    1  A    between atoms: C6_10  and  O2_2 
REMARK    2  A    between atoms: C4_8  and  C8_12 
REMARK    3  A    between atoms: C11_15  and  C8_12 
ROOT
HETATM    1  O1  UNK     1      18.879   0.629  30.763  1.00  0.00    -0.274 OA
HETATM    2  O4  UNK     1      19.008   1.566  28.682  1.00  0.00    -0.260 OA
HETATM    3  C1  UNK     1      18.331   2.044  32.677  1.00  0.00     0.006 A 
HETATM    4  C2  UNK     1      18.645   0.794  32.143  1.00  0.00     0.099 A 
HETATM    5  C3  UNK     1      18.745  -0.353  32.935  1.00  0.00     0.007 A 
HETATM    6  C4  UNK     1      18.209   0.984  34.866  1.00  0.00     0.044 A 
HETATM    7  C5  UNK     1      18.112   2.123  34.060  1.00  0.00     0.032 A 
HETATM    8  C6  UNK     1      18.525  -0.252  34.305  1.00  0.00     0.088 A 
HETATM    9  C7  UNK     1      18.246   3.196  31.771  1.00  0.00    -0.043 A 
HETATM   10  C9  UNK     1      19.085  -1.672  32.322  1.00  0.00     0.054 C 
HETATM   11  C10 UNK     1      18.474   3.010  30.462  1.00  0.00     0.090 A 
HETATM   12  C12 UNK     1      17.911   4.555  32.314  1.00  0.00     0.049 C 
HETATM   13  C13 UNK     1      18.806   1.698  29.883  1.00  0.00     0.288 A 
ENDROOT
BRANCH   6  14
HETATM   14  C8  UNK     1      17.973   1.113  36.298  1.00  0.00     0.162 C 
HETATM   15  O3  UNK     1      18.744   1.785  37.012  1.00  0.00    -0.292 OA
BRANCH  14  16
HETATM   16  C11 UNK     1      16.762   0.417  36.941  1.00  0.00     0.079 C 
HETATM   17  C14 UNK     1      15.487   0.542  36.122  1.00  0.00     0.013 C 
ENDBRANCH  14  16
ENDBRANCH   6  14
BRANCH   8  18
HETATM   18  O2  UNK     1      18.618  -1.360  35.094  1.00  0.00    -0.359 OA
HETATM   19  H14 UNK     1      17.752  -1.602  35.458  1.00  0.00     0.217 HD
ENDBRANCH   8  18
TORSDOF 3
ENDMDL
MODEL 5
REMARK VINA RESULT:      -6.9      3.592      6.234
REMARK  3 active torsions:
REMARK  status: ('A' for Active; 'I' for Inactive)
REMARK    1  A    between atoms: C6_10  and  O2_2 
REMARK    2  A    between atoms: C4_8  and  C8_12 
REMARK    3  A    between atoms: C11_15  and  C8_12 
ROOT
HETATM    1  O1  UNK     1      19.009   4.074  30.112  1.00  0.00    -0.274 OA
HETATM    2  O4  UNK     1      19.167   6.211  29.317  1.00  0.00    -0.260 OA
HETATM    3  C1  UNK     1      18.397   3.711  32.449  1.00  0.00     0.006 A 
HETATM    4  C2  UNK     1      18.742   3.210  31.193  1.00  0.00     0.099 A 
HETATM    5  C3  UNK     1      18.843   1.841  30.939  1.00  0.00     0.007 A 
HETATM    6  C4  UNK     1      18.244   1.411  33.232  1.00  0.00     0.044 A 
HETATM    7  C5  UNK     1      18.147   2.786  33.472  1.00  0.00     0.032 A 
HETATM    8  C6  UNK     1      18.592   0.939  31.968  1.00  0.00     0.088 A 
HETATM    9  C7  UNK     1      18.313   5.167  32.628  1.00  0.00    -0.043 A 
HETATM   10  C9  UNK     1      19.216   1.346  29.579  1.00  0.00     0.054 C 
HETATM   11  C10 UNK     1      18.572   5.965  31.581  1.00  0.00     0.090 A 
HETATM   12  C12 UNK     1      17.945   5.738  33.966  1.00  0.00     0.049 C 
HETATM   13  C13 UNK     1      18.937   5.451  30.251  1.00  0.00     0.288 A 
ENDROOT
BRANCH   6  14
HETATM   14  C8  UNK     1      17.977   0.485  34.325  1.00  0.00     0.162 C 
HETATM   15  O3  UNK     1      18.892  -0.208  34.811  1.00  0.00    -0.292 OA
BRANCH  14  16
HETATM   16  C11 UNK     1      16.552   0.360  34.890  1.00  0.00     0.079 C 
HETATM   17  C14 UNK     1      16.466   0.633  36.384  1.00  0.00     0.013 C 
ENDBRANCH  14  16
ENDBRANCH   6  14
BRANCH   8  18
HETATM   18  O2  UNK     1      18.686  -0.402  31.738  1.00  0.00    -0.359 OA
HETATM   19  H14 UNK     1      19.219  -0.583  30.949  1.00  0.00     0.217 HD
ENDBRANCH   8  18
TORSDOF 3
ENDMDL
MODEL 6
REMARK VINA RESULT:      -6.9     22.681     24.603
REMARK  3 active torsions:
REMARK  status: ('A' for Active; 'I' for Inactive)
REMARK    1  A    between atoms: C6_10  and  O2_2 
REMARK    2  A    between atoms: C4_8  and  C8_12 
REMARK    3  A    between atoms: C11_15  and  C8_12 
ROOT
HETATM    1  O1  UNK     1      16.384   6.566  10.099  1.00  0.00    -0.274 OA
HETATM    2  O4  UNK     1      18.299   7.651  10.719  1.00  0.00    -0.260 OA
HETATM    3  C1  UNK     1      14.559   7.844   9.098  1.00  0.00     0.006 A 
HETATM    4  C2  UNK     1      15.092   6.633   9.539  1.00  0.00     0.099 A 
HETATM    5  C3  UNK     1      14.386   5.430   9.453  1.00  0.00     0.007 A 
HETATM    6  C4  UNK     1      12.548   6.629   8.460  1.00  0.00     0.044 A 
HETATM    7  C5  UNK     1      13.267   7.825   8.553  1.00  0.00     0.032 A 
HETATM    8  C6  UNK     1      13.106   5.433   8.909  1.00  0.00     0.088 A 
HETATM    9  C7  UNK     1      15.372   9.060   9.226  1.00  0.00    -0.043 A 
HETATM   10  C9  UNK     1      14.995   4.155   9.938  1.00  0.00     0.054 C 
HETATM   11  C10 UNK     1      16.598   8.967   9.763  1.00  0.00     0.090 A 
HETATM   12  C12 UNK     1      14.827  10.379   8.762  1.00  0.00     0.049 C 
HETATM   13  C13 UNK     1      17.174   7.697  10.233  1.00  0.00     0.288 A 
ENDROOT
BRANCH   6  14
HETATM   14  C8  UNK     1      11.208   6.656   7.887  1.00  0.00     0.162 C 
HETATM   15  O3  UNK     1      10.205   6.470   8.604  1.00  0.00    -0.292 OA
BRANCH  14  16
HETATM   16  C11 UNK     1      11.024   6.919   6.383  1.00  0.00     0.079 C 
HETATM   17  C14 UNK     1       9.847   6.171   5.777  1.00  0.00     0.013 C 
ENDBRANCH  14  16
ENDBRANCH   6  14
BRANCH   8  18
HETATM   18  O2  UNK     1      12.401   4.269   8.817  1.00  0.00    -0.359 OA
HETATM   19  H14 UNK     1      12.605   3.804   7.991  1.00  0.00     0.217 HD
ENDBRANCH   8  18
TORSDOF 3
ENDMDL
MODEL 7
REMARK VINA RESULT:      -6.9      3.481      6.818
REMARK  3 active torsions:
REMARK  status: ('A' for Active; 'I' for Inactive)
REMARK    1  A    between atoms: C6_10  and  O2_2 
REMARK    2  A    between atoms: C4_8  and  C8_12 
REMARK    3  A    between atoms: C11_15  and  C8_12 
ROOT
HETATM    1  O1  UNK     1      18.884   0.356  33.261  1.00  0.00    -0.274 OA
HETATM    2  O4  UNK     1      19.346  -1.840  32.822  1.00  0.00    -0.260 OA
HETATM    3  C1  UNK     1      18.717   1.935  31.405  1.00  0.00     0.006 A 
HETATM    4  C2  UNK     1      18.666   1.659  32.772  1.00  0.00     0.099 A 
HETATM    5  C3  UNK     1      18.401   2.647  33.723  1.00  0.00     0.007 A 
HETATM    6  C4  UNK     1      18.222   4.258  31.940  1.00  0.00     0.044 A 
HETATM    7  C5  UNK     1      18.489   3.258  31.000  1.00  0.00     0.032 A 
HETATM    8  C6  UNK     1      18.177   3.954  33.300  1.00  0.00     0.088 A 
HETATM    9  C7  UNK     1      19.002   0.835  30.475  1.00  0.00    -0.043 A 
HETATM   10  C9  UNK     1      18.355   2.309  35.178  1.00  0.00     0.054 C 
HETATM   11  C10 UNK     1      19.205  -0.396  30.968  1.00  0.00     0.090 A 
HETATM   12  C12 UNK     1      19.065   1.098  28.999  1.00  0.00     0.049 C 
HETATM   13  C13 UNK     1      19.155  -0.703  32.407  1.00  0.00     0.288 A 
ENDROOT
BRANCH   6  14
HETATM   14  C8  UNK     1      17.991   5.619  31.474  1.00  0.00     0.162 C 
HETATM   15  O3  UNK     1      17.107   6.328  31.993  1.00  0.00    -0.292 OA
BRANCH  14  16
HETATM   16  C11 UNK     1      18.846   6.192  30.332  1.00  0.00     0.079 C 
HETATM   17  C14 UNK     1      20.335   5.927  30.498  1.00  0.00     0.013 C 
ENDBRANCH  14  16
ENDBRANCH   6  14
BRANCH   8  18
HETATM   18  O2  UNK     1      17.916   4.932  34.214  1.00  0.00    -0.359 OA
HETATM   19  H14 UNK     1      18.637   5.580  34.244  1.00  0.00     0.217 HD
ENDBRANCH   8  18
TORSDOF 3
ENDMDL
MODEL 8
REMARK VINA RESULT:      -6.8      6.477      9.218
REMARK  3 active torsions:
REMARK  status: ('A' for Active; 'I' for Inactive)
REMARK    1  A    between atoms: C6_10  and  O2_2 
REMARK    2  A    between atoms: C4_8  and  C8_12 
REMARK    3  A    between atoms: C11_15  and  C8_12 
ROOT
HETATM    1  O1  UNK     1      20.517  -1.201  30.382  1.00  0.00    -0.274 OA
HETATM    2  O4  UNK     1      21.063  -0.635  28.235  1.00  0.00    -0.260 OA
HETATM    3  C1  UNK     1      19.094   0.295  31.687  1.00  0.00     0.006 A 
HETATM    4  C2  UNK     1      19.837  -0.880  31.574  1.00  0.00     0.099 A 
HETATM    5  C3  UNK     1      19.949  -1.796  32.623  1.00  0.00     0.007 A 
HETATM    6  C4  UNK     1      18.550  -0.367  33.966  1.00  0.00     0.044 A 
HETATM    7  C5  UNK     1      18.447   0.541  32.907  1.00  0.00     0.032 A 
HETATM    8  C6  UNK     1      19.300  -1.534  33.825  1.00  0.00     0.088 A 
HETATM    9  C7  UNK     1      19.030   1.201  30.533  1.00  0.00    -0.043 A 
HETATM   10  C9  UNK     1      20.755  -3.044  32.460  1.00  0.00     0.054 C 
HETATM   11  C10 UNK     1      19.687   0.871  29.411  1.00  0.00     0.090 A 
HETATM   12  C12 UNK     1      18.240   2.475  30.622  1.00  0.00     0.049 C 
HETATM   13  C13 UNK     1      20.475  -0.365  29.277  1.00  0.00     0.288 A 
ENDROOT
BRANCH   6  14
HETATM   14  C8  UNK     1      17.861  -0.071  35.216  1.00  0.00     0.162 C 
HETATM   15  O3  UNK     1      18.498   0.044  36.281  1.00  0.00    -0.292 OA
BRANCH  14  16
HETATM   16  C11 UNK     1      16.334   0.104  35.224  1.00  0.00     0.079 C 
HETATM   17  C14 UNK     1      15.799   0.696  36.520  1.00  0.00     0.013 C 
ENDBRANCH  14  16
ENDBRANCH   6  14
BRANCH   8  18
HETATM   18  O2  UNK     1      19.397  -2.416  34.860  1.00  0.00    -0.359 OA
HETATM   19  H14 UNK     1      19.951  -3.175  34.619  1.00  0.00     0.217 HD
ENDBRANCH   8  18
TORSDOF 3
ENDMDL
MODEL 9
REMARK VINA RESULT:      -6.8      5.357      8.604
REMARK  3 active torsions:
REMARK  status: ('A' for Active; 'I' for Inactive)
REMARK    1  A    between atoms: C6_10  and  O2_2 
REMARK    2  A    between atoms: C4_8  and  C8_12 
REMARK    3  A    between atoms: C11_15  and  C8_12 
ROOT
HETATM    1  O1  UNK     1      19.789   0.694  29.590  1.00  0.00    -0.274 OA
HETATM    2  O4  UNK     1      20.812  -0.650  28.050  1.00  0.00    -0.260 OA
HETATM    3  C1  UNK     1      19.405  -0.155  31.848  1.00  0.00     0.006 A 
HETATM    4  C2  UNK     1      19.304   0.865  30.902  1.00  0.00     0.099 A 
HETATM    5  C3  UNK     1      18.721   2.101  31.196  1.00  0.00     0.007 A 
HETATM    6  C4  UNK     1      18.312   1.327  33.441  1.00  0.00     0.044 A 
HETATM    7  C5  UNK     1      18.898   0.095  33.131  1.00  0.00     0.032 A 
HETATM    8  C6  UNK     1      18.224   2.329  32.475  1.00  0.00     0.088 A 
HETATM    9  C7  UNK     1      20.033  -1.422  31.452  1.00  0.00    -0.043 A 
HETATM   10  C9  UNK     1      18.633   3.167  30.153  1.00  0.00     0.054 C 
HETATM   11  C10 UNK     1      20.487  -1.558  30.197  1.00  0.00     0.090 A 
HETATM   12  C12 UNK     1      20.157  -2.540  32.446  1.00  0.00     0.049 C 
HETATM   13  C13 UNK     1      20.387  -0.491  29.188  1.00  0.00     0.288 A 
ENDROOT
BRANCH   6  14
HETATM   14  C8  UNK     1      17.798   1.544  34.787  1.00  0.00     0.162 C 
HETATM   15  O3  UNK     1      18.258   2.452  35.506  1.00  0.00    -0.292 OA
BRANCH  14  16
HETATM   16  C11 UNK     1      16.674   0.646  35.330  1.00  0.00     0.079 C 
HETATM   17  C14 UNK     1      16.442   0.803  36.825  1.00  0.00     0.013 C 
ENDBRANCH  14  16
ENDBRANCH   6  14
BRANCH   8  18
HETATM   18  O2  UNK     1      17.652   3.528  32.781  1.00  0.00    -0.359 OA
HETATM   19  H14 UNK     1      18.196   4.021  33.415  1.00  0.00     0.217 HD
ENDBRANCH   8  18
TORSDOF 3
ENDMDL
MODEL 10
REMARK VINA RESULT:      -6.7      1.943      6.231
REMARK  3 active torsions:
REMARK  status: ('A' for Active; 'I' for Inactive)
REMARK    1  A    between atoms: C6_10  and  O2_2 
REMARK    2  A    between atoms: C4_8  and  C8_12 
REMARK    3  A    between atoms: C11_15  and  C8_12 
ROOT
HETATM    1  O1  UNK     1      16.509   5.826  32.320  1.00  0.00    -0.274 OA
HETATM    2  O4  UNK     1      17.725   4.004  31.664  1.00  0.00    -0.260 OA
HETATM    3  C1  UNK     1      17.653   7.708  33.376  1.00  0.00     0.006 A 
HETATM    4  C2  UNK     1      16.484   7.105  32.911  1.00  0.00     0.099 A 
HETATM    5  C3  UNK     1      15.236   7.726  33.002  1.00  0.00     0.007 A 
HETATM    6  C4  UNK     1      16.300   9.617  34.050  1.00  0.00     0.044 A 
HETATM    7  C5  UNK     1      17.542   8.982  33.951  1.00  0.00     0.032 A 
HETATM    8  C6  UNK     1      15.148   8.990  33.576  1.00  0.00     0.088 A 
HETATM    9  C7  UNK     1      18.922   6.982  33.239  1.00  0.00    -0.043 A 
HETATM   10  C9  UNK     1      14.008   7.045  32.491  1.00  0.00     0.054 C 
HETATM   11  C10 UNK     1      18.916   5.767  32.672  1.00  0.00     0.090 A 
HETATM   12  C12 UNK     1      20.197   7.603  33.730  1.00  0.00     0.049 C 
HETATM   13  C13 UNK     1      17.692   5.117  32.176  1.00  0.00     0.288 A 
ENDROOT
BRANCH   6  14
HETATM   14  C8  UNK     1      16.232  10.941  34.655  1.00  0.00     0.162 C 
HETATM   15  O3  UNK     1      15.475  11.161  35.621  1.00  0.00    -0.292 OA
BRANCH  14  16
HETATM   16  C11 UNK     1      17.103  12.080  34.102  1.00  0.00     0.079 C 
HETATM   17  C14 UNK     1      17.691  12.974  35.183  1.00  0.00     0.013 C 
ENDBRANCH  14  16
ENDBRANCH   6  14
BRANCH   8  18
HETATM   18  O2  UNK     1      13.939   9.613  33.675  1.00  0.00    -0.359 OA
HETATM   19  H14 UNK     1      13.555   9.767  32.798  1.00  0.00     0.217 HD
ENDBRANCH   8  18
TORSDOF 3
ENDMDL
