MODEL 1
REMARK VINA RESULT:     -10.1      0.000      0.000
REMARK  6 active torsions:
REMARK  status: ('A' for Active; 'I' for Inactive)
REMARK    1  A    between atoms: C11_17  and  O2_2 
REMARK    2  A    between atoms: C4_10  and  O2_2 
REMARK    3  A    between atoms: C13_19  and  O3_3 
REMARK    4  A    between atoms: C6_12  and  O3_3 
REMARK    5  A    between atoms: C11_17  and  C12_18 
REMARK    6  A    between atoms: C13_19  and  C14_20 
ROOT
HETATM    1  O1  UNK     1      19.432   0.889  29.097  1.00  0.00    -0.275 OA
HETATM    2  O4  UNK     1      20.263  -0.873  27.899  1.00  0.00    -0.260 OA
HETATM    3  C1  UNK     1      19.102   0.647  31.505  1.00  0.00     0.038 A 
HETATM    4  C2  UNK     1      19.032   1.415  30.342  1.00  0.00     0.095 A 
HETATM    5  C3  UNK     1      19.605  -0.731  31.410  1.00  0.00    -0.040 A 
HETATM    6  C4  UNK     1      18.686   1.243  32.703  1.00  0.00     0.095 A 
HETATM    7  C5  UNK     1      18.567   2.731  30.343  1.00  0.00     0.075 A 
HETATM    8  C6  UNK     1      18.158   3.305  31.543  1.00  0.00     0.085 A 
HETATM    9  C7  UNK     1      18.218   2.562  32.720  1.00  0.00     0.075 A 
HETATM   10  C8  UNK     1      19.979  -1.204  30.214  1.00  0.00     0.090 A 
HETATM   11  C9  UNK     1      19.714  -1.627  32.611  1.00  0.00     0.049 C 
HETATM   12  C10 UNK     1      19.911  -0.407  28.977  1.00  0.00     0.288 A 
ENDROOT
BRANCH   6  13
HETATM   13  O2  UNK     1      18.706   0.600  33.905  1.00  0.00    -0.274 OA
BRANCH  13  14
HETATM   14  C11 UNK     1      17.477   0.588  34.569  1.00  0.00     0.298 C 
HETATM   15  O5  UNK     1      16.385   0.774  34.052  1.00  0.00    -0.259 OA
BRANCH  14  16
HETATM   16  C12 UNK     1      17.653   0.303  36.015  1.00  0.00     0.039 A 
HETATM   17  C15 UNK     1      17.960  -0.983  36.410  1.00  0.00     0.017 A 
HETATM   18  C19 UNK     1      18.125  -1.250  37.768  1.00  0.00     0.001 A 
HETATM   19  C21 UNK     1      17.980  -0.226  38.703  1.00  0.00     0.000 A 
HETATM   20  C20 UNK     1      17.670   1.067  38.279  1.00  0.00     0.001 A 
HETATM   21  C16 UNK     1      17.505   1.334  36.920  1.00  0.00     0.017 A 
ENDBRANCH  14  16
ENDBRANCH  13  14
ENDBRANCH   6  13
BRANCH   8  22
HETATM   22  O3  UNK     1      17.703   4.587  31.567  1.00  0.00    -0.275 OA
BRANCH  22  23
HETATM   23  C13 UNK     1      18.705   5.552  31.695  1.00  0.00     0.298 C 
HETATM   24  O6  UNK     1      19.650   5.701  30.935  1.00  0.00    -0.259 OA
BRANCH  23  25
HETATM   25  C14 UNK     1      18.478   6.408  32.886  1.00  0.00     0.039 A 
HETATM   26  C17 UNK     1      19.519   7.178  33.364  1.00  0.00     0.017 A 
HETATM   27  C22 UNK     1      19.306   7.982  34.483  1.00  0.00     0.001 A 
HETATM   28  C24 UNK     1      18.055   7.997  35.102  1.00  0.00     0.000 A 
HETATM   29  C23 UNK     1      17.019   7.210  34.601  1.00  0.00     0.001 A 
HETATM   30  C18 UNK     1      17.232   6.406  33.481  1.00  0.00     0.017 A 
ENDBRANCH  23  25
ENDBRANCH  22  23
ENDBRANCH   8  22
TORSDOF 6
ENDMDL
MODEL 2
REMARK VINA RESULT:      -9.7      3.752      9.781
REMARK  6 active torsions:
REMARK  status: ('A' for Active; 'I' for Inactive)
REMARK    1  A    between atoms: C11_17  and  O2_2 
REMARK    2  A    between atoms: C4_10  and  O2_2 
REMARK    3  A    between atoms: C13_19  and  O3_3 
REMARK    4  A    between atoms: C6_12  and  O3_3 
REMARK    5  A    between atoms: C11_17  and  C12_18 
REMARK    6  A    between atoms: C13_19  and  C14_20 
ROOT
HETATM    1  O1  UNK     1      18.154  -0.266  38.391  1.00  0.00    -0.275 OA
HETATM    2  O4  UNK     1      17.513   1.668  39.427  1.00  0.00    -0.260 OA
HETATM    3  C1  UNK     1      18.750  -0.213  36.023  1.00  0.00     0.038 A 
HETATM    4  C2  UNK     1      18.582  -0.916  37.216  1.00  0.00     0.095 A 
HETATM    5  C3  UNK     1      18.471   1.231  36.011  1.00  0.00    -0.040 A 
HETATM    6  C4  UNK     1      19.179  -0.931  34.899  1.00  0.00     0.095 A 
HETATM    7  C5  UNK     1      18.825  -2.288  37.314  1.00  0.00     0.075 A 
HETATM    8  C6  UNK     1      19.250  -2.984  36.186  1.00  0.00     0.085 A 
HETATM    9  C7  UNK     1      19.427  -2.306  34.982  1.00  0.00     0.075 A 
HETATM   10  C8  UNK     1      18.066   1.822  37.143  1.00  0.00     0.090 A 
HETATM   11  C9  UNK     1      18.626   2.066  34.772  1.00  0.00     0.049 C 
HETATM   12  C10 UNK     1      17.884   1.093  38.410  1.00  0.00     0.288 A 
ENDROOT
BRANCH   6  13
HETATM   13  O2  UNK     1      19.381  -0.360  33.677  1.00  0.00    -0.274 OA
BRANCH  13  14
HETATM   14  C11 UNK     1      18.603  -0.906  32.654  1.00  0.00     0.298 C 
HETATM   15  O5  UNK     1      17.466  -1.338  32.775  1.00  0.00    -0.259 OA
BRANCH  14  16
HETATM   16  C12 UNK     1      19.334  -0.892  31.361  1.00  0.00     0.039 A 
HETATM   17  C15 UNK     1      19.385   0.282  30.637  1.00  0.00     0.017 A 
HETATM   18  C19 UNK     1      20.071   0.295  29.423  1.00  0.00     0.001 A 
HETATM   19  C21 UNK     1      20.691  -0.864  28.960  1.00  0.00     0.000 A 
HETATM   20  C20 UNK     1      20.626  -2.038  29.711  1.00  0.00     0.001 A 
HETATM   21  C16 UNK     1      19.940  -2.052  30.926  1.00  0.00     0.017 A 
ENDBRANCH  14  16
ENDBRANCH  13  14
ENDBRANCH   6  13
BRANCH   8  22
HETATM   22  O3  UNK     1      19.493  -4.320  36.260  1.00  0.00    -0.275 OA
BRANCH  22  23
HETATM   23  C13 UNK     1      20.551  -4.668  37.104  1.00  0.00     0.298 C 
HETATM   24  O6  UNK     1      21.583  -4.029  37.252  1.00  0.00    -0.259 OA
BRANCH  23  25
HETATM   25  C14 UNK     1      20.267  -5.930  37.831  1.00  0.00     0.039 A 
HETATM   26  C17 UNK     1      19.171  -6.682  37.460  1.00  0.00     0.017 A 
HETATM   27  C22 UNK     1      18.903  -7.868  38.143  1.00  0.00     0.001 A 
HETATM   28  C24 UNK     1      19.738  -8.276  39.184  1.00  0.00     0.000 A 
HETATM   29  C23 UNK     1      20.839  -7.499  39.541  1.00  0.00     0.001 A 
HETATM   30  C18 UNK     1      21.107  -6.313  38.858  1.00  0.00     0.017 A 
ENDBRANCH  23  25
ENDBRANCH  22  23
ENDBRANCH   8  22
TORSDOF 6
ENDMDL
MODEL 3
REMARK VINA RESULT:      -9.6     14.402     18.909
REMARK  6 active torsions:
REMARK  status: ('A' for Active; 'I' for Inactive)
REMARK    1  A    between atoms: C11_17  and  O2_2 
REMARK    2  A    between atoms: C4_10  and  O2_2 
REMARK    3  A    between atoms: C13_19  and  O3_3 
REMARK    4  A    between atoms: C6_12  and  O3_3 
REMARK    5  A    between atoms: C11_17  and  C12_18 
REMARK    6  A    between atoms: C13_19  and  C14_20 
ROOT
HETATM    1  O1  UNK     1      20.432  -1.261  12.207  1.00  0.00    -0.275 OA
HETATM    2  O4  UNK     1      21.498  -1.278  10.185  1.00  0.00    -0.260 OA
HETATM    3  C1  UNK     1      19.199  -3.244  12.925  1.00  0.00     0.038 A 
HETATM    4  C2  UNK     1      19.639  -1.940  13.154  1.00  0.00     0.095 A 
HETATM    5  C3  UNK     1      19.580  -3.904  11.668  1.00  0.00    -0.040 A 
HETATM    6  C4  UNK     1      18.414  -3.849  13.915  1.00  0.00     0.095 A 
HETATM    7  C5  UNK     1      19.323  -1.240  14.321  1.00  0.00     0.075 A 
HETATM    8  C6  UNK     1      18.543  -1.859  15.293  1.00  0.00     0.085 A 
HETATM    9  C7  UNK     1      18.090  -3.161  15.090  1.00  0.00     0.075 A 
HETATM   10  C8  UNK     1      20.335  -3.235  10.786  1.00  0.00     0.090 A 
HETATM   11  C9  UNK     1      19.151  -5.306  11.338  1.00  0.00     0.049 C 
HETATM   12  C10 UNK     1      20.807  -1.859  11.014  1.00  0.00     0.288 A 
ENDROOT
BRANCH   6  13
HETATM   13  O2  UNK     1      17.924  -5.118  13.811  1.00  0.00    -0.274 OA
BRANCH  13  14
HETATM   14  C11 UNK     1      18.204  -5.932  14.910  1.00  0.00     0.298 C 
HETATM   15  O5  UNK     1      19.317  -6.274  15.279  1.00  0.00    -0.259 OA
BRANCH  14  16
HETATM   16  C12 UNK     1      16.957  -6.338  15.606  1.00  0.00     0.039 A 
HETATM   17  C15 UNK     1      15.901  -6.819  14.857  1.00  0.00     0.017 A 
HETATM   18  C19 UNK     1      14.730  -7.200  15.511  1.00  0.00     0.001 A 
HETATM   19  C21 UNK     1      14.639  -7.094  16.898  1.00  0.00     0.000 A 
HETATM   20  C20 UNK     1      15.720  -6.605  17.633  1.00  0.00     0.001 A 
HETATM   21  C16 UNK     1      16.892  -6.224  16.979  1.00  0.00     0.017 A 
ENDBRANCH  14  16
ENDBRANCH  13  14
ENDBRANCH   6  13
BRANCH   8  22
HETATM   22  O3  UNK     1      18.224  -1.195  16.436  1.00  0.00    -0.275 OA
BRANCH  22  23
HETATM   23  C13 UNK     1      19.273  -1.092  17.354  1.00  0.00     0.298 C 
HETATM   24  O6  UNK     1      20.212  -1.868  17.451  1.00  0.00    -0.259 OA
BRANCH  23  25
HETATM   25  C14 UNK     1      19.118   0.108  18.214  1.00  0.00     0.039 A 
HETATM   26  C17 UNK     1      19.024  -0.058  19.581  1.00  0.00     0.017 A 
HETATM   27  C22 UNK     1      18.879   1.070  20.389  1.00  0.00     0.001 A 
HETATM   28  C24 UNK     1      18.830   2.340  19.811  1.00  0.00     0.000 A 
HETATM   29  C23 UNK     1      18.928   2.481  18.427  1.00  0.00     0.001 A 
HETATM   30  C18 UNK     1      19.073   1.353  17.620  1.00  0.00     0.017 A 
ENDBRANCH  23  25
ENDBRANCH  22  23
ENDBRANCH   8  22
TORSDOF 6
ENDMDL
MODEL 4
REMARK VINA RESULT:      -9.6      4.023      9.981
REMARK  6 active torsions:
REMARK  status: ('A' for Active; 'I' for Inactive)
REMARK    1  A    between atoms: C11_17  and  O2_2 
REMARK    2  A    between atoms: C4_10  and  O2_2 
REMARK    3  A    between atoms: C13_19  and  O3_3 
REMARK    4  A    between atoms: C6_12  and  O3_3 
REMARK    5  A    between atoms: C11_17  and  C12_18 
REMARK    6  A    between atoms: C13_19  and  C14_20 
ROOT
HETATM    1  O1  UNK     1      18.607  -0.576  38.124  1.00  0.00    -0.275 OA
HETATM    2  O4  UNK     1      17.651   1.330  38.950  1.00  0.00    -0.260 OA
HETATM    3  C1  UNK     1      18.802  -0.864  35.706  1.00  0.00     0.038 A 
HETATM    4  C2  UNK     1      19.005  -1.334  37.004  1.00  0.00     0.095 A 
HETATM    5  C3  UNK     1      18.159   0.445  35.524  1.00  0.00    -0.040 A 
HETATM    6  C4  UNK     1      19.226  -1.677  34.647  1.00  0.00     0.095 A 
HETATM    7  C5  UNK     1      19.607  -2.566  37.266  1.00  0.00     0.075 A 
HETATM    8  C6  UNK     1      20.022  -3.359  36.201  1.00  0.00     0.085 A 
HETATM    9  C7  UNK     1      19.831  -2.914  34.893  1.00  0.00     0.075 A 
HETATM   10  C8  UNK     1      17.792   1.144  36.606  1.00  0.00     0.090 A 
HETATM   11  C9  UNK     1      17.902   1.028  34.163  1.00  0.00     0.049 C 
HETATM   12  C10 UNK     1      18.000   0.662  37.982  1.00  0.00     0.288 A 
ENDROOT
BRANCH   6  13
HETATM   13  O2  UNK     1      19.085  -1.332  33.335  1.00  0.00    -0.274 OA
BRANCH  13  14
HETATM   14  C11 UNK     1      20.237  -1.514  32.567  1.00  0.00     0.298 C 
HETATM   15  O5  UNK     1      21.272  -2.040  32.948  1.00  0.00    -0.259 OA
BRANCH  14  16
HETATM   16  C12 UNK     1      20.051  -0.988  31.191  1.00  0.00     0.039 A 
HETATM   17  C15 UNK     1      20.370  -1.797  30.120  1.00  0.00     0.017 A 
HETATM   18  C19 UNK     1      20.196  -1.303  28.827  1.00  0.00     0.001 A 
HETATM   19  C21 UNK     1      19.706  -0.012  28.634  1.00  0.00     0.000 A 
HETATM   20  C20 UNK     1      19.391   0.786  29.734  1.00  0.00     0.001 A 
HETATM   21  C16 UNK     1      19.565   0.292  31.027  1.00  0.00     0.017 A 
ENDBRANCH  14  16
ENDBRANCH  13  14
ENDBRANCH   6  13
BRANCH   8  22
HETATM   22  O3  UNK     1      20.612  -4.562  36.434  1.00  0.00    -0.275 OA
BRANCH  22  23
HETATM   23  C13 UNK     1      19.743  -5.545  36.917  1.00  0.00     0.298 C 
HETATM   24  O6  UNK     1      18.580  -5.696  36.576  1.00  0.00    -0.259 OA
BRANCH  23  25
HETATM   25  C14 UNK     1      20.418  -6.416  37.912  1.00  0.00     0.039 A 
HETATM   26  C17 UNK     1      19.689  -7.411  38.531  1.00  0.00     0.017 A 
HETATM   27  C22 UNK     1      20.323  -8.229  39.466  1.00  0.00     0.001 A 
HETATM   28  C24 UNK     1      21.673  -8.035  39.761  1.00  0.00     0.000 A 
HETATM   29  C23 UNK     1      22.388  -7.023  39.121  1.00  0.00     0.001 A 
HETATM   30  C18 UNK     1      21.754  -6.204  38.187  1.00  0.00     0.017 A 
ENDBRANCH  23  25
ENDBRANCH  22  23
ENDBRANCH   8  22
TORSDOF 6
ENDMDL
MODEL 5
REMARK VINA RESULT:      -9.5      3.561      6.678
REMARK  6 active torsions:
REMARK  status: ('A' for Active; 'I' for Inactive)
REMARK    1  A    between atoms: C11_17  and  O2_2 
REMARK    2  A    between atoms: C4_10  and  O2_2 
REMARK    3  A    between atoms: C13_19  and  O3_3 
REMARK    4  A    between atoms: C6_12  and  O3_3 
REMARK    5  A    between atoms: C11_17  and  C12_18 
REMARK    6  A    between atoms: C13_19  and  C14_20 
ROOT
HETATM    1  O1  UNK     1      17.037   0.157  35.185  1.00  0.00    -0.275 OA
HETATM    2  O4  UNK     1      15.844   0.996  36.945  1.00  0.00    -0.260 OA
HETATM    3  C1  UNK     1      18.741  -1.545  35.599  1.00  0.00     0.038 A 
HETATM    4  C2  UNK     1      18.037  -0.722  34.719  1.00  0.00     0.095 A 
HETATM    5  C3  UNK     1      18.420  -1.481  37.032  1.00  0.00    -0.040 A 
HETATM    6  C4  UNK     1      19.719  -2.389  35.057  1.00  0.00     0.095 A 
HETATM    7  C5  UNK     1      18.279  -0.719  33.344  1.00  0.00     0.075 A 
HETATM    8  C6  UNK     1      19.254  -1.565  32.825  1.00  0.00     0.085 A 
HETATM    9  C7  UNK     1      19.972  -2.399  33.681  1.00  0.00     0.075 A 
HETATM   10  C8  UNK     1      17.465  -0.638  37.446  1.00  0.00     0.090 A 
HETATM   11  C9  UNK     1      19.127  -2.331  38.049  1.00  0.00     0.049 C 
HETATM   12  C10 UNK     1      16.713   0.237  36.530  1.00  0.00     0.288 A 
ENDROOT
BRANCH   6  13
HETATM   13  O2  UNK     1      20.474  -3.240  35.810  1.00  0.00    -0.274 OA
BRANCH  13  14
HETATM   14  C11 UNK     1      20.323  -4.587  35.475  1.00  0.00     0.298 C 
HETATM   15  O5  UNK     1      20.347  -5.049  34.344  1.00  0.00    -0.259 OA
BRANCH  14  16
HETATM   16  C12 UNK     1      20.134  -5.422  36.689  1.00  0.00     0.039 A 
HETATM   17  C15 UNK     1      21.100  -5.392  37.675  1.00  0.00     0.017 A 
HETATM   18  C19 UNK     1      20.923  -6.176  38.815  1.00  0.00     0.001 A 
HETATM   19  C21 UNK     1      19.786  -6.971  38.944  1.00  0.00     0.000 A 
HETATM   20  C20 UNK     1      18.823  -6.984  37.934  1.00  0.00     0.001 A 
HETATM   21  C16 UNK     1      19.000  -6.200  36.794  1.00  0.00     0.017 A 
ENDBRANCH  14  16
ENDBRANCH  13  14
ENDBRANCH   6  13
BRANCH   8  22
HETATM   22  O3  UNK     1      19.505  -1.579  31.488  1.00  0.00    -0.275 OA
BRANCH  22  23
HETATM   23  C13 UNK     1      20.267  -0.500  31.034  1.00  0.00     0.298 C 
HETATM   24  O6  UNK     1      21.459  -0.332  31.245  1.00  0.00    -0.259 OA
BRANCH  23  25
HETATM   25  C14 UNK     1      19.443   0.440  30.233  1.00  0.00     0.039 A 
HETATM   26  C17 UNK     1      19.024   1.621  30.813  1.00  0.00     0.017 A 
HETATM   27  C22 UNK     1      18.250   2.504  30.061  1.00  0.00     0.001 A 
HETATM   28  C24 UNK     1      17.911   2.187  28.744  1.00  0.00     0.000 A 
HETATM   29  C23 UNK     1      18.347   0.988  28.181  1.00  0.00     0.001 A 
HETATM   30  C18 UNK     1      19.121   0.104  28.934  1.00  0.00     0.017 A 
ENDBRANCH  23  25
ENDBRANCH  22  23
ENDBRANCH   8  22
TORSDOF 6
ENDMDL
MODEL 6
REMARK VINA RESULT:      -8.9      2.237      5.418
REMARK  6 active torsions:
REMARK  status: ('A' for Active; 'I' for Inactive)
REMARK    1  A    between atoms: C11_17  and  O2_2 
REMARK    2  A    between atoms: C4_10  and  O2_2 
REMARK    3  A    between atoms: C13_19  and  O3_3 
REMARK    4  A    between atoms: C6_12  and  O3_3 
REMARK    5  A    between atoms: C11_17  and  C12_18 
REMARK    6  A    between atoms: C13_19  and  C14_20 
ROOT
HETATM    1  O1  UNK     1      18.796   3.455  35.552  1.00  0.00    -0.275 OA
HETATM    2  O4  UNK     1      18.914   1.882  37.207  1.00  0.00    -0.260 OA
HETATM    3  C1  UNK     1      18.224   2.759  33.281  1.00  0.00     0.038 A 
HETATM    4  C2  UNK     1      18.557   3.758  34.196  1.00  0.00     0.095 A 
HETATM    5  C3  UNK     1      18.125   1.372  33.758  1.00  0.00    -0.040 A 
HETATM    6  C4  UNK     1      18.001   3.143  31.952  1.00  0.00     0.095 A 
HETATM    7  C5  UNK     1      18.672   5.100  33.828  1.00  0.00     0.075 A 
HETATM    8  C6  UNK     1      18.446   5.461  32.503  1.00  0.00     0.085 A 
HETATM    9  C7  UNK     1      18.112   4.484  31.567  1.00  0.00     0.075 A 
HETATM   10  C8  UNK     1      18.357   1.113  35.052  1.00  0.00     0.090 A 
HETATM   11  C9  UNK     1      17.772   0.234  32.842  1.00  0.00     0.049 C 
HETATM   12  C10 UNK     1      18.710   2.156  36.030  1.00  0.00     0.288 A 
ENDROOT
BRANCH   6  13
HETATM   13  O2  UNK     1      17.670   2.263  30.964  1.00  0.00    -0.274 OA
BRANCH  13  14
HETATM   14  C11 UNK     1      18.498   2.324  29.841  1.00  0.00     0.298 C 
HETATM   15  O5  UNK     1      18.623   3.287  29.099  1.00  0.00    -0.259 OA
BRANCH  14  16
HETATM   16  C12 UNK     1      19.238   1.051  29.653  1.00  0.00     0.039 A 
HETATM   17  C15 UNK     1      19.036   0.327  28.496  1.00  0.00     0.017 A 
HETATM   18  C19 UNK     1      19.732  -0.869  28.320  1.00  0.00     0.001 A 
HETATM   19  C21 UNK     1      20.614  -1.314  29.303  1.00  0.00     0.000 A 
HETATM   20  C20 UNK     1      20.802  -0.564  30.464  1.00  0.00     0.001 A 
HETATM   21  C16 UNK     1      20.106   0.633  30.641  1.00  0.00     0.017 A 
ENDBRANCH  14  16
ENDBRANCH  13  14
ENDBRANCH   6  13
BRANCH   8  22
HETATM   22  O3  UNK     1      18.552   6.763  32.123  1.00  0.00    -0.275 OA
BRANCH  22  23
HETATM   23  C13 UNK     1      17.389   7.295  31.559  1.00  0.00     0.298 C 
HETATM   24  O6  UNK     1      17.115   7.301  30.368  1.00  0.00    -0.259 OA
BRANCH  23  25
HETATM   25  C14 UNK     1      16.494   7.855  32.601  1.00  0.00     0.039 A 
HETATM   26  C17 UNK     1      16.967   8.864  33.415  1.00  0.00     0.017 A 
HETATM   27  C22 UNK     1      16.126   9.391  34.395  1.00  0.00     0.001 A 
HETATM   28  C24 UNK     1      14.829   8.896  34.540  1.00  0.00     0.000 A 
HETATM   29  C23 UNK     1      14.375   7.876  33.706  1.00  0.00     0.001 A 
HETATM   30  C18 UNK     1      15.216   7.349  32.726  1.00  0.00     0.017 A 
ENDBRANCH  23  25
ENDBRANCH  22  23
ENDBRANCH   8  22
TORSDOF 6
ENDMDL
MODEL 7
REMARK VINA RESULT:      -8.8     13.365     15.431
REMARK  6 active torsions:
REMARK  status: ('A' for Active; 'I' for Inactive)
REMARK    1  A    between atoms: C11_17  and  O2_2 
REMARK    2  A    between atoms: C4_10  and  O2_2 
REMARK    3  A    between atoms: C13_19  and  O3_3 
REMARK    4  A    between atoms: C6_12  and  O3_3 
REMARK    5  A    between atoms: C11_17  and  C12_18 
REMARK    6  A    between atoms: C13_19  and  C14_20 
ROOT
HETATM    1  O1  UNK     1      31.023  -6.179  37.105  1.00  0.00    -0.275 OA
HETATM    2  O4  UNK     1      31.541  -4.675  38.747  1.00  0.00    -0.260 OA
HETATM    3  C1  UNK     1      28.796  -7.183  37.063  1.00  0.00     0.038 A 
HETATM    4  C2  UNK     1      30.075  -7.044  36.522  1.00  0.00     0.095 A 
HETATM    5  C3  UNK     1      28.450  -6.404  38.261  1.00  0.00    -0.040 A 
HETATM    6  C4  UNK     1      27.913  -8.063  36.425  1.00  0.00     0.095 A 
HETATM    7  C5  UNK     1      30.486  -7.747  35.387  1.00  0.00     0.075 A 
HETATM    8  C6  UNK     1      29.593  -8.616  34.768  1.00  0.00     0.085 A 
HETATM    9  C7  UNK     1      28.309  -8.774  35.286  1.00  0.00     0.075 A 
HETATM   10  C8  UNK     1      29.371  -5.588  38.793  1.00  0.00     0.090 A 
HETATM   11  C9  UNK     1      27.098  -6.491  38.908  1.00  0.00     0.049 C 
HETATM   12  C10 UNK     1      30.725  -5.432  38.234  1.00  0.00     0.288 A 
ENDROOT
BRANCH   6  13
HETATM   13  O2  UNK     1      26.637  -8.286  36.854  1.00  0.00    -0.274 OA
BRANCH  13  14
HETATM   14  C11 UNK     1      26.433  -9.550  37.411  1.00  0.00     0.298 C 
HETATM   15  O5  UNK     1      27.104 -10.057  38.297  1.00  0.00    -0.259 OA
BRANCH  14  16
HETATM   16  C12 UNK     1      25.265 -10.225  36.790  1.00  0.00     0.039 A 
HETATM   17  C15 UNK     1      25.410 -11.517  36.327  1.00  0.00     0.017 A 
HETATM   18  C19 UNK     1      24.313 -12.151  35.744  1.00  0.00     0.001 A 
HETATM   19  C21 UNK     1      23.096 -11.480  35.636  1.00  0.00     0.000 A 
HETATM   20  C20 UNK     1      22.975 -10.174  36.111  1.00  0.00     0.001 A 
HETATM   21  C16 UNK     1      24.072  -9.539  36.695  1.00  0.00     0.017 A 
ENDBRANCH  14  16
ENDBRANCH  13  14
ENDBRANCH   6  13
BRANCH   8  22
HETATM   22  O3  UNK     1      29.972  -9.309  33.661  1.00  0.00    -0.275 OA
BRANCH  22  23
HETATM   23  C13 UNK     1      30.328  -8.508  32.573  1.00  0.00     0.298 C 
HETATM   24  O6  UNK     1      31.468  -8.207  32.253  1.00  0.00    -0.259 OA
BRANCH  23  25
HETATM   25  C14 UNK     1      29.129  -8.060  31.821  1.00  0.00     0.039 A 
HETATM   26  C17 UNK     1      28.704  -6.754  31.957  1.00  0.00     0.017 A 
HETATM   27  C22 UNK     1      27.578  -6.334  31.250  1.00  0.00     0.001 A 
HETATM   28  C24 UNK     1      26.899  -7.230  30.423  1.00  0.00     0.000 A 
HETATM   29  C23 UNK     1      27.347  -8.545  30.303  1.00  0.00     0.001 A 
HETATM   30  C18 UNK     1      28.474  -8.965  31.009  1.00  0.00     0.017 A 
ENDBRANCH  23  25
ENDBRANCH  22  23
ENDBRANCH   8  22
TORSDOF 6
ENDMDL
MODEL 8
REMARK VINA RESULT:      -8.8     24.372     27.787
REMARK  6 active torsions:
REMARK  status: ('A' for Active; 'I' for Inactive)
REMARK    1  A    between atoms: C11_17  and  O2_2 
REMARK    2  A    between atoms: C4_10  and  O2_2 
REMARK    3  A    between atoms: C13_19  and  O3_3 
REMARK    4  A    between atoms: C6_12  and  O3_3 
REMARK    5  A    between atoms: C11_17  and  C12_18 
REMARK    6  A    between atoms: C13_19  and  C14_20 
ROOT
HETATM    1  O1  UNK     1       4.672   4.398  13.125  1.00  0.00    -0.275 OA
HETATM    2  O4  UNK     1       4.224   5.979  14.715  1.00  0.00    -0.260 OA
HETATM    3  C1  UNK     1       6.027   5.005  11.185  1.00  0.00     0.038 A 
HETATM    4  C2  UNK     1       5.295   4.061  11.907  1.00  0.00     0.095 A 
HETATM    5  C3  UNK     1       6.139   6.369  11.721  1.00  0.00    -0.040 A 
HETATM    6  C4  UNK     1       6.616   4.591   9.983  1.00  0.00     0.095 A 
HETATM    7  C5  UNK     1       5.139   2.744  11.469  1.00  0.00     0.075 A 
HETATM    8  C6  UNK     1       5.732   2.352  10.273  1.00  0.00     0.085 A 
HETATM    9  C7  UNK     1       6.469   3.274   9.532  1.00  0.00     0.075 A 
HETATM   10  C8  UNK     1       5.537   6.661  12.882  1.00  0.00     0.090 A 
HETATM   11  C9  UNK     1       6.907   7.448  11.012  1.00  0.00     0.049 C 
HETATM   12  C10 UNK     1       4.761   5.676  13.655  1.00  0.00     0.288 A 
ENDROOT
BRANCH   6  13
HETATM   13  O2  UNK     1       7.355   5.416   9.188  1.00  0.00    -0.274 OA
BRANCH  13  14
HETATM   14  C11 UNK     1       8.736   5.253   9.320  1.00  0.00     0.298 C 
HETATM   15  O5  UNK     1       9.308   4.763  10.282  1.00  0.00    -0.259 OA
BRANCH  14  16
HETATM   16  C12 UNK     1       9.450   5.750   8.116  1.00  0.00     0.039 A 
HETATM   17  C15 UNK     1      10.824   5.872   8.160  1.00  0.00     0.017 A 
HETATM   18  C19 UNK     1      11.495   6.338   7.029  1.00  0.00     0.001 A 
HETATM   19  C21 UNK     1      10.778   6.671   5.881  1.00  0.00     0.000 A 
HETATM   20  C20 UNK     1       9.389   6.538   5.862  1.00  0.00     0.001 A 
HETATM   21  C16 UNK     1       8.718   6.071   6.993  1.00  0.00     0.017 A 
ENDBRANCH  14  16
ENDBRANCH  13  14
ENDBRANCH   6  13
BRANCH   8  22
HETATM   22  O3  UNK     1       5.594   1.074   9.829  1.00  0.00    -0.275 OA
BRANCH  22  23
HETATM   23  C13 UNK     1       4.808   0.945   8.680  1.00  0.00     0.298 C 
HETATM   24  O6  UNK     1       3.654   1.329   8.561  1.00  0.00    -0.259 OA
BRANCH  23  25
HETATM   25  C14 UNK     1       5.561   0.282   7.586  1.00  0.00     0.039 A 
HETATM   26  C17 UNK     1       6.498  -0.679   7.907  1.00  0.00     0.017 A 
HETATM   27  C22 UNK     1       7.205  -1.302   6.879  1.00  0.00     0.001 A 
HETATM   28  C24 UNK     1       6.960  -0.948   5.551  1.00  0.00     0.000 A 
HETATM   29  C23 UNK     1       6.009   0.026   5.252  1.00  0.00     0.001 A 
HETATM   30  C18 UNK     1       5.301   0.649   6.281  1.00  0.00     0.017 A 
ENDBRANCH  23  25
ENDBRANCH  22  23
ENDBRANCH   8  22
TORSDOF 6
ENDMDL
MODEL 9
REMARK VINA RESULT:      -8.7     14.234     17.629
REMARK  6 active torsions:
REMARK  status: ('A' for Active; 'I' for Inactive)
REMARK    1  A    between atoms: C11_17  and  O2_2 
REMARK    2  A    between atoms: C4_10  and  O2_2 
REMARK    3  A    between atoms: C13_19  and  O3_3 
REMARK    4  A    between atoms: C6_12  and  O3_3 
REMARK    5  A    between atoms: C11_17  and  C12_18 
REMARK    6  A    between atoms: C13_19  and  C14_20 
ROOT
HETATM    1  O1  UNK     1      31.015  -4.582  38.979  1.00  0.00    -0.275 OA
HETATM    2  O4  UNK     1      29.300  -3.537  40.070  1.00  0.00    -0.260 OA
HETATM    3  C1  UNK     1      30.513  -6.411  37.438  1.00  0.00     0.038 A 
HETATM    4  C2  UNK     1      31.435  -5.574  38.069  1.00  0.00     0.095 A 
HETATM    5  C3  UNK     1      29.085  -6.240  37.741  1.00  0.00    -0.040 A 
HETATM    6  C4  UNK     1      31.010  -7.371  36.547  1.00  0.00     0.095 A 
HETATM    7  C5  UNK     1      32.809  -5.670  37.839  1.00  0.00     0.075 A 
HETATM    8  C6  UNK     1      33.283  -6.630  36.950  1.00  0.00     0.085 A 
HETATM    9  C7  UNK     1      32.384  -7.479  36.306  1.00  0.00     0.075 A 
HETATM   10  C8  UNK     1      28.715  -5.288  38.609  1.00  0.00     0.090 A 
HETATM   11  C9  UNK     1      28.025  -7.095  37.108  1.00  0.00     0.049 C 
HETATM   12  C10 UNK     1      29.675  -4.398  39.282  1.00  0.00     0.288 A 
ENDROOT
BRANCH   6  13
HETATM   13  O2  UNK     1      30.214  -8.246  35.869  1.00  0.00    -0.274 OA
BRANCH  13  14
HETATM   14  C11 UNK     1      30.539  -8.387  34.518  1.00  0.00     0.298 C 
HETATM   15  O5  UNK     1      31.226  -9.277  34.039  1.00  0.00    -0.259 OA
BRANCH  14  16
HETATM   16  C12 UNK     1      29.927  -7.306  33.706  1.00  0.00     0.039 A 
HETATM   17  C15 UNK     1      30.752  -6.438  33.021  1.00  0.00     0.017 A 
HETATM   18  C19 UNK     1      30.178  -5.422  32.257  1.00  0.00     0.001 A 
HETATM   19  C21 UNK     1      28.791  -5.296  32.196  1.00  0.00     0.000 A 
HETATM   20  C20 UNK     1      27.977  -6.186  32.897  1.00  0.00     0.001 A 
HETATM   21  C16 UNK     1      28.552  -7.203  33.660  1.00  0.00     0.017 A 
ENDBRANCH  14  16
ENDBRANCH  13  14
ENDBRANCH   6  13
BRANCH   8  22
HETATM   22  O3  UNK     1      34.617  -6.739  36.711  1.00  0.00    -0.275 OA
BRANCH  22  23
HETATM   23  C13 UNK     1      35.077  -5.965  35.643  1.00  0.00     0.298 C 
HETATM   24  O6  UNK     1      35.108  -4.743  35.612  1.00  0.00    -0.259 OA
BRANCH  23  25
HETATM   25  C14 UNK     1      35.547  -6.818  34.523  1.00  0.00     0.039 A 
HETATM   26  C17 UNK     1      34.769  -6.918  33.387  1.00  0.00     0.017 A 
HETATM   27  C22 UNK     1      35.210  -7.720  32.335  1.00  0.00     0.001 A 
HETATM   28  C24 UNK     1      36.421  -8.406  32.443  1.00  0.00     0.000 A 
HETATM   29  C23 UNK     1      37.189  -8.289  33.601  1.00  0.00     0.001 A 
HETATM   30  C18 UNK     1      36.747  -7.487  34.653  1.00  0.00     0.017 A 
ENDBRANCH  23  25
ENDBRANCH  22  23
ENDBRANCH   8  22
TORSDOF 6
ENDMDL
MODEL 10
REMARK VINA RESULT:      -8.7     13.918     16.918
REMARK  6 active torsions:
REMARK  status: ('A' for Active; 'I' for Inactive)
REMARK    1  A    between atoms: C11_17  and  O2_2 
REMARK    2  A    between atoms: C4_10  and  O2_2 
REMARK    3  A    between atoms: C13_19  and  O3_3 
REMARK    4  A    between atoms: C6_12  and  O3_3 
REMARK    5  A    between atoms: C11_17  and  C12_18 
REMARK    6  A    between atoms: C13_19  and  C14_20 
ROOT
HETATM    1  O1  UNK     1      31.721  -3.908  36.888  1.00  0.00    -0.275 OA
HETATM    2  O4  UNK     1      33.313  -2.867  35.618  1.00  0.00    -0.260 OA
HETATM    3  C1  UNK     1      31.956  -6.289  37.383  1.00  0.00     0.038 A 
HETATM    4  C2  UNK     1      31.253  -5.089  37.498  1.00  0.00     0.095 A 
HETATM    5  C3  UNK     1      33.205  -6.301  36.607  1.00  0.00    -0.040 A 
HETATM    6  C4  UNK     1      31.424  -7.418  38.019  1.00  0.00     0.095 A 
HETATM    7  C5  UNK     1      30.059  -4.990  38.216  1.00  0.00     0.075 A 
HETATM    8  C6  UNK     1      29.547  -6.123  38.841  1.00  0.00     0.085 A 
HETATM    9  C7  UNK     1      30.230  -7.334  38.742  1.00  0.00     0.075 A 
HETATM   10  C8  UNK     1      33.627  -5.163  36.039  1.00  0.00     0.090 A 
HETATM   11  C9  UNK     1      34.026  -7.547  36.432  1.00  0.00     0.049 C 
HETATM   12  C10 UNK     1      32.896  -3.889  36.151  1.00  0.00     0.288 A 
ENDROOT
BRANCH   6  13
HETATM   13  O2  UNK     1      32.016  -8.646  37.982  1.00  0.00    -0.274 OA
BRANCH  13  14
HETATM   14  C11 UNK     1      31.123  -9.707  37.819  1.00  0.00     0.298 C 
HETATM   15  O5  UNK     1      30.627 -10.368  38.720  1.00  0.00    -0.259 OA
BRANCH  14  16
HETATM   16  C12 UNK     1      30.827  -9.941  36.383  1.00  0.00     0.039 A 
HETATM   17  C15 UNK     1      29.607  -9.538  35.879  1.00  0.00     0.017 A 
HETATM   18  C19 UNK     1      29.329  -9.757  34.531  1.00  0.00     0.001 A 
HETATM   19  C21 UNK     1      30.276 -10.375  33.715  1.00  0.00     0.000 A 
HETATM   20  C20 UNK     1      31.502 -10.774  34.248  1.00  0.00     0.001 A 
HETATM   21  C16 UNK     1      31.781 -10.554  35.597  1.00  0.00     0.017 A 
ENDBRANCH  14  16
ENDBRANCH  13  14
ENDBRANCH   6  13
BRANCH   8  22
HETATM   22  O3  UNK     1      28.386  -6.048  39.546  1.00  0.00    -0.275 OA
BRANCH  22  23
HETATM   23  C13 UNK     1      27.241  -6.346  38.802  1.00  0.00     0.298 C 
HETATM   24  O6  UNK     1      26.475  -5.526  38.317  1.00  0.00    -0.259 OA
BRANCH  23  25
HETATM   25  C14 UNK     1      27.062  -7.812  38.654  1.00  0.00     0.039 A 
HETATM   26  C17 UNK     1      26.610  -8.311  37.450  1.00  0.00     0.017 A 
HETATM   27  C22 UNK     1      26.441  -9.688  37.311  1.00  0.00     0.001 A 
HETATM   28  C24 UNK     1      26.728 -10.537  38.381  1.00  0.00     0.000 A 
HETATM   29  C23 UNK     1      27.184 -10.008  39.588  1.00  0.00     0.001 A 
HETATM   30  C18 UNK     1      27.352  -8.631  39.727  1.00  0.00     0.017 A 
ENDBRANCH  23  25
ENDBRANCH  22  23
ENDBRANCH   8  22
TORSDOF 6
ENDMDL
