MODEL 1
REMARK VINA RESULT:      -8.4      0.000      0.000
REMARK  2 active torsions:
REMARK  status: ('A' for Active; 'I' for Inactive)
REMARK    1  A    between atoms: C1_5  and  N1_4 
REMARK       I    between atoms: C6_10  and  N1_4 
REMARK    2  A    between atoms: C6_10  and  C7_11 
ROOT
HETATM    1  O2  UNK     1      19.684  -0.570  28.994  1.00  0.00    -0.274 OA
HETATM    2  O3  UNK     1      18.771   1.294  28.041  1.00  0.00    -0.259 OA
HETATM    3  C7  UNK     1      18.894   1.263  30.406  1.00  0.00     0.108 A 
HETATM    4  C8  UNK     1      19.253   0.601  31.513  1.00  0.00     0.037 A 
HETATM    5  C9  UNK     1      19.863  -0.716  31.414  1.00  0.00    -0.001 A 
HETATM    6  C10 UNK     1      19.098   0.691  29.056  1.00  0.00     0.304 A 
HETATM    7  C11 UNK     1      20.064  -1.272  30.155  1.00  0.00     0.089 A 
HETATM    8  C12 UNK     1      20.253  -1.442  32.542  1.00  0.00     0.014 A 
HETATM    9  C13 UNK     1      20.643  -2.528  29.991  1.00  0.00     0.038 A 
HETATM   10  C14 UNK     1      20.835  -2.705  32.394  1.00  0.00     0.001 A 
HETATM   11  C15 UNK     1      21.030  -3.246  31.121  1.00  0.00     0.003 A 
ENDROOT
BRANCH   3  12
HETATM   12  C6  UNK     1      18.287   2.584  30.610  1.00  0.00     0.258 C 
HETATM   13  O1  UNK     1      17.129   2.693  31.005  1.00  0.00    -0.267 OA
HETATM   14  N1  UNK     1      19.150   3.623  30.308  1.00  0.00    -0.352 N 
HETATM   15  H10 UNK     1      20.088   3.423  29.978  1.00  0.00     0.163 HD
BRANCH  14  16
HETATM   16  C1  UNK     1      18.778   5.012  30.427  1.00  0.00     0.084 C 
HETATM   17  C2  UNK     1      19.912   5.936  30.005  1.00  0.00     0.025 C 
HETATM   18  C4  UNK     1      20.818   6.018  31.230  1.00  0.00     0.002 C 
HETATM   19  C5  UNK     1      19.925   5.723  32.437  1.00  0.00     0.002 C 
HETATM   20  C3  UNK     1      18.537   5.414  31.878  1.00  0.00     0.025 C 
ENDBRANCH  14  16
ENDBRANCH   3  12
TORSDOF 2
ENDMDL
MODEL 2
REMARK VINA RESULT:      -8.4      1.854      2.826
REMARK  2 active torsions:
REMARK  status: ('A' for Active; 'I' for Inactive)
REMARK    1  A    between atoms: C1_5  and  N1_4 
REMARK       I    between atoms: C6_10  and  N1_4 
REMARK    2  A    between atoms: C6_10  and  C7_11 
ROOT
HETATM    1  O2  UNK     1      18.738   0.591  32.496  1.00  0.00    -0.274 OA
HETATM    2  O3  UNK     1      17.923   2.589  33.246  1.00  0.00    -0.259 OA
HETATM    3  C7  UNK     1      18.808   2.561  31.049  1.00  0.00     0.108 A 
HETATM    4  C8  UNK     1      19.383   1.854  30.069  1.00  0.00     0.037 A 
HETATM    5  C9  UNK     1      19.672   0.440  30.257  1.00  0.00    -0.001 A 
HETATM    6  C10 UNK     1      18.449   1.945  32.346  1.00  0.00     0.304 A 
HETATM    7  C11 UNK     1      19.343  -0.158  31.468  1.00  0.00     0.089 A 
HETATM    8  C12 UNK     1      20.271  -0.336  29.260  1.00  0.00     0.014 A 
HETATM    9  C13 UNK     1      19.592  -1.507  31.711  1.00  0.00     0.038 A 
HETATM   10  C14 UNK     1      20.528  -1.690  29.490  1.00  0.00     0.001 A 
HETATM   11  C15 UNK     1      20.190  -2.275  30.713  1.00  0.00     0.003 A 
ENDROOT
BRANCH   3  12
HETATM   12  C6  UNK     1      18.557   3.979  30.763  1.00  0.00     0.258 C 
HETATM   13  O1  UNK     1      18.647   4.419  29.619  1.00  0.00    -0.267 OA
HETATM   14  N1  UNK     1      18.228   4.704  31.895  1.00  0.00    -0.352 N 
HETATM   15  H10 UNK     1      18.190   4.243  32.798  1.00  0.00     0.163 HD
BRANCH  14  16
HETATM   16  C1  UNK     1      17.940   6.117  31.866  1.00  0.00     0.084 C 
HETATM   17  C2  UNK     1      19.047   6.930  32.523  1.00  0.00     0.025 C 
HETATM   18  C4  UNK     1      18.751   6.846  34.018  1.00  0.00     0.002 C 
HETATM   19  C5  UNK     1      17.248   6.589  34.137  1.00  0.00     0.002 C 
HETATM   20  C3  UNK     1      16.718   6.466  32.709  1.00  0.00     0.025 C 
ENDBRANCH  14  16
ENDBRANCH   3  12
TORSDOF 2
ENDMDL
MODEL 3
REMARK VINA RESULT:      -8.1      1.265      2.093
REMARK  2 active torsions:
REMARK  status: ('A' for Active; 'I' for Inactive)
REMARK    1  A    between atoms: C1_5  and  N1_4 
REMARK       I    between atoms: C6_10  and  N1_4 
REMARK    2  A    between atoms: C6_10  and  C7_11 
ROOT
HETATM    1  O2  UNK     1      18.978   0.025  32.442  1.00  0.00    -0.274 OA
HETATM    2  O3  UNK     1      18.048   2.100  32.660  1.00  0.00    -0.259 OA
HETATM    3  C7  UNK     1      19.018   1.587  30.561  1.00  0.00     0.108 A 
HETATM    4  C8  UNK     1      19.661   0.695  29.798  1.00  0.00     0.037 A 
HETATM    5  C9  UNK     1      20.004  -0.614  30.333  1.00  0.00    -0.001 A 
HETATM    6  C10 UNK     1      18.637   1.286  31.959  1.00  0.00     0.304 A 
HETATM    7  C11 UNK     1      19.655  -0.918  31.644  1.00  0.00     0.089 A 
HETATM    8  C12 UNK     1      20.675  -1.576  29.572  1.00  0.00     0.014 A 
HETATM    9  C13 UNK     1      19.953  -2.153  32.215  1.00  0.00     0.038 A 
HETATM   10  C14 UNK     1      20.982  -2.820  30.132  1.00  0.00     0.001 A 
HETATM   11  C15 UNK     1      20.622  -3.108  31.451  1.00  0.00     0.003 A 
ENDROOT
BRANCH   3  12
HETATM   12  C6  UNK     1      18.717   2.879  29.932  1.00  0.00     0.258 C 
HETATM   13  O1  UNK     1      18.096   2.936  28.873  1.00  0.00    -0.267 OA
HETATM   14  N1  UNK     1      19.203   3.954  30.654  1.00  0.00    -0.352 N 
HETATM   15  H10 UNK     1      19.714   3.795  31.516  1.00  0.00     0.163 HD
BRANCH  14  16
HETATM   16  C1  UNK     1      19.033   5.324  30.234  1.00  0.00     0.084 C 
HETATM   17  C2  UNK     1      20.279   6.156  30.511  1.00  0.00     0.025 C 
HETATM   18  C4  UNK     1      20.167   6.537  31.984  1.00  0.00     0.002 C 
HETATM   19  C5  UNK     1      18.674   6.502  32.318  1.00  0.00     0.002 C 
HETATM   20  C3  UNK     1      17.961   6.039  31.049  1.00  0.00     0.025 C 
ENDBRANCH  14  16
ENDBRANCH   3  12
TORSDOF 2
ENDMDL
MODEL 4
REMARK VINA RESULT:      -7.9      4.059      5.525
REMARK  2 active torsions:
REMARK  status: ('A' for Active; 'I' for Inactive)
REMARK    1  A    between atoms: C1_5  and  N1_4 
REMARK       I    between atoms: C6_10  and  N1_4 
REMARK    2  A    between atoms: C6_10  and  C7_11 
ROOT
HETATM    1  O2  UNK     1      18.825   1.110  31.520  1.00  0.00    -0.274 OA
HETATM    2  O3  UNK     1      17.852   1.801  33.467  1.00  0.00    -0.259 OA
HETATM    3  C7  UNK     1      18.629  -0.436  33.404  1.00  0.00     0.108 A 
HETATM    4  C8  UNK     1      19.222  -1.409  32.702  1.00  0.00     0.037 A 
HETATM    5  C9  UNK     1      19.660  -1.166  31.336  1.00  0.00    -0.001 A 
HETATM    6  C10 UNK     1      18.395   0.907  32.828  1.00  0.00     0.304 A 
HETATM    7  C11 UNK     1      19.450   0.089  30.776  1.00  0.00     0.089 A 
HETATM    8  C12 UNK     1      20.284  -2.152  30.568  1.00  0.00     0.014 A 
HETATM    9  C13 UNK     1      19.846   0.387  29.474  1.00  0.00     0.038 A 
HETATM   10  C14 UNK     1      20.686  -1.868  29.259  1.00  0.00     0.001 A 
HETATM   11  C15 UNK     1      20.468  -0.601  28.714  1.00  0.00     0.003 A 
ENDROOT
BRANCH   3  12
HETATM   12  C6  UNK     1      18.224  -0.779  34.773  1.00  0.00     0.258 C 
HETATM   13  O1  UNK     1      18.887  -1.561  35.451  1.00  0.00    -0.267 OA
HETATM   14  N1  UNK     1      17.061  -0.140  35.164  1.00  0.00    -0.352 N 
HETATM   15  H10 UNK     1      16.584   0.482  34.520  1.00  0.00     0.163 HD
BRANCH  14  16
HETATM   16  C1  UNK     1      16.465  -0.321  36.465  1.00  0.00     0.084 C 
HETATM   17  C2  UNK     1      15.511   0.816  36.810  1.00  0.00     0.025 C 
HETATM   18  C4  UNK     1      16.416   1.934  37.321  1.00  0.00     0.002 C 
HETATM   19  C5  UNK     1      17.676   1.249  37.853  1.00  0.00     0.002 C 
HETATM   20  C3  UNK     1      17.501  -0.244  37.581  1.00  0.00     0.025 C 
ENDBRANCH  14  16
ENDBRANCH   3  12
TORSDOF 2
ENDMDL
MODEL 5
REMARK VINA RESULT:      -7.9      3.435      4.256
REMARK  2 active torsions:
REMARK  status: ('A' for Active; 'I' for Inactive)
REMARK    1  A    between atoms: C1_5  and  N1_4 
REMARK       I    between atoms: C6_10  and  N1_4 
REMARK    2  A    between atoms: C6_10  and  C7_11 
ROOT
HETATM    1  O2  UNK     1      18.802  -0.528  33.907  1.00  0.00    -0.274 OA
HETATM    2  O3  UNK     1      18.981   0.337  31.800  1.00  0.00    -0.259 OA
HETATM    3  C7  UNK     1      18.174   1.796  33.482  1.00  0.00     0.108 A 
HETATM    4  C8  UNK     1      17.847   1.971  34.768  1.00  0.00     0.037 A 
HETATM    5  C9  UNK     1      17.985   0.876  35.715  1.00  0.00    -0.001 A 
HETATM    6  C10 UNK     1      18.681   0.501  32.977  1.00  0.00     0.304 A 
HETATM    7  C11 UNK     1      18.460  -0.350  35.261  1.00  0.00     0.089 A 
HETATM    8  C12 UNK     1      17.656   1.014  37.066  1.00  0.00     0.014 A 
HETATM    9  C13 UNK     1      18.616  -1.438  36.117  1.00  0.00     0.038 A 
HETATM   10  C14 UNK     1      17.807  -0.070  37.937  1.00  0.00     0.001 A 
HETATM   11  C15 UNK     1      18.286  -1.293  37.463  1.00  0.00     0.003 A 
ENDROOT
BRANCH   3  12
HETATM   12  C6  UNK     1      17.999   2.960  32.605  1.00  0.00     0.258 C 
HETATM   13  O1  UNK     1      17.624   2.825  31.442  1.00  0.00    -0.267 OA
HETATM   14  N1  UNK     1      18.301   4.156  33.233  1.00  0.00    -0.352 N 
HETATM   15  H10 UNK     1      18.613   4.156  34.198  1.00  0.00     0.163 HD
BRANCH  14  16
HETATM   16  C1  UNK     1      18.208   5.435  32.573  1.00  0.00     0.084 C 
HETATM   17  C2  UNK     1      19.513   5.809  31.883  1.00  0.00     0.025 C 
HETATM   18  C4  UNK     1      20.384   6.386  32.995  1.00  0.00     0.002 C 
HETATM   19  C5  UNK     1      19.419   6.914  34.057  1.00  0.00     0.002 C 
HETATM   20  C3  UNK     1      18.012   6.574  33.567  1.00  0.00     0.025 C 
ENDBRANCH  14  16
ENDBRANCH   3  12
TORSDOF 2
ENDMDL
MODEL 6
REMARK VINA RESULT:      -7.9      5.894      9.513
REMARK  2 active torsions:
REMARK  status: ('A' for Active; 'I' for Inactive)
REMARK    1  A    between atoms: C1_5  and  N1_4 
REMARK       I    between atoms: C6_10  and  N1_4 
REMARK    2  A    between atoms: C6_10  and  C7_11 
ROOT
HETATM    1  O2  UNK     1      19.471  -0.699  34.671  1.00  0.00    -0.274 OA
HETATM    2  O3  UNK     1      20.693  -2.499  33.974  1.00  0.00    -0.259 OA
HETATM    3  C7  UNK     1      19.756  -2.628  36.146  1.00  0.00     0.108 A 
HETATM    4  C8  UNK     1      19.024  -2.041  37.100  1.00  0.00     0.037 A 
HETATM    5  C9  UNK     1      18.461  -0.718  36.883  1.00  0.00    -0.001 A 
HETATM    6  C10 UNK     1      20.023  -1.965  34.850  1.00  0.00     0.304 A 
HETATM    7  C11 UNK     1      18.699  -0.076  35.672  1.00  0.00     0.089 A 
HETATM    8  C12 UNK     1      17.690  -0.068  37.851  1.00  0.00     0.014 A 
HETATM    9  C13 UNK     1      18.189   1.191  35.400  1.00  0.00     0.038 A 
HETATM   10  C14 UNK     1      17.172   1.204  37.593  1.00  0.00     0.001 A 
HETATM   11  C15 UNK     1      17.421   1.833  36.370  1.00  0.00     0.003 A 
ENDROOT
BRANCH   3  12
HETATM   12  C6  UNK     1      20.280  -3.963  36.461  1.00  0.00     0.258 C 
HETATM   13  O1  UNK     1      21.189  -4.110  37.274  1.00  0.00    -0.267 OA
HETATM   14  N1  UNK     1      19.647  -4.969  35.752  1.00  0.00    -0.352 N 
HETATM   15  H10 UNK     1      18.910  -4.737  35.094  1.00  0.00     0.163 HD
BRANCH  14  16
HETATM   16  C1  UNK     1      19.990  -6.363  35.890  1.00  0.00     0.084 C 
HETATM   17  C2  UNK     1      19.183  -7.238  34.939  1.00  0.00     0.025 C 
HETATM   18  C4  UNK     1      17.847  -7.442  35.646  1.00  0.00     0.002 C 
HETATM   19  C5  UNK     1      18.128  -7.273  37.140  1.00  0.00     0.002 C 
HETATM   20  C3  UNK     1      19.607  -6.910  37.260  1.00  0.00     0.025 C 
ENDBRANCH  14  16
ENDBRANCH   3  12
TORSDOF 2
ENDMDL
MODEL 7
REMARK VINA RESULT:      -7.8      1.636      2.166
REMARK  2 active torsions:
REMARK  status: ('A' for Active; 'I' for Inactive)
REMARK    1  A    between atoms: C1_5  and  N1_4 
REMARK       I    between atoms: C6_10  and  N1_4 
REMARK    2  A    between atoms: C6_10  and  C7_11 
ROOT
HETATM    1  O2  UNK     1      19.401   1.340  29.373  1.00  0.00    -0.274 OA
HETATM    2  O3  UNK     1      18.502   3.387  29.843  1.00  0.00    -0.259 OA
HETATM    3  C7  UNK     1      18.642   1.851  31.641  1.00  0.00     0.108 A 
HETATM    4  C8  UNK     1      19.001   0.633  32.064  1.00  0.00     0.037 A 
HETATM    5  C9  UNK     1      19.596  -0.319  31.139  1.00  0.00    -0.001 A 
HETATM    6  C10 UNK     1      18.830   2.273  30.234  1.00  0.00     0.304 A 
HETATM    7  C11 UNK     1      19.781   0.057  29.813  1.00  0.00     0.089 A 
HETATM    8  C12 UNK     1      19.986  -1.600  31.538  1.00  0.00     0.014 A 
HETATM    9  C13 UNK     1      20.346  -0.807  28.877  1.00  0.00     0.038 A 
HETATM   10  C14 UNK     1      20.553  -2.479  30.610  1.00  0.00     0.001 A 
HETATM   11  C15 UNK     1      20.732  -2.083  29.282  1.00  0.00     0.003 A 
ENDROOT
BRANCH   3  12
HETATM   12  C6  UNK     1      18.051   2.740  32.649  1.00  0.00     0.258 C 
HETATM   13  O1  UNK     1      17.471   2.283  33.631  1.00  0.00    -0.267 OA
HETATM   14  N1  UNK     1      18.226   4.080  32.351  1.00  0.00    -0.352 N 
HETATM   15  H10 UNK     1      18.714   4.351  31.504  1.00  0.00     0.163 HD
BRANCH  14  16
HETATM   16  C1  UNK     1      17.730   5.142  33.192  1.00  0.00     0.084 C 
HETATM   17  C2  UNK     1      16.943   6.171  32.392  1.00  0.00     0.025 C 
HETATM   18  C4  UNK     1      18.007   7.079  31.782  1.00  0.00     0.002 C 
HETATM   19  C5  UNK     1      19.225   6.981  32.702  1.00  0.00     0.002 C 
HETATM   20  C3  UNK     1      18.862   5.970  33.788  1.00  0.00     0.025 C 
ENDBRANCH  14  16
ENDBRANCH   3  12
TORSDOF 2
ENDMDL
MODEL 8
REMARK VINA RESULT:      -7.6     22.108     23.950
REMARK  2 active torsions:
REMARK  status: ('A' for Active; 'I' for Inactive)
REMARK    1  A    between atoms: C1_5  and  N1_4 
REMARK       I    between atoms: C6_10  and  N1_4 
REMARK    2  A    between atoms: C6_10  and  C7_11 
ROOT
HETATM    1  O2  UNK     1      11.723   6.732   6.516  1.00  0.00    -0.274 OA
HETATM    2  O3  UNK     1      13.998   6.936   6.530  1.00  0.00    -0.259 OA
HETATM    3  C7  UNK     1      12.998   6.069   8.495  1.00  0.00     0.108 A 
HETATM    4  C8  UNK     1      11.876   5.715   9.132  1.00  0.00     0.037 A 
HETATM    5  C9  UNK     1      10.584   5.855   8.477  1.00  0.00    -0.001 A 
HETATM    6  C10 UNK     1      12.973   6.611   7.117  1.00  0.00     0.304 A 
HETATM    7  C11 UNK     1      10.539   6.361   7.183  1.00  0.00     0.089 A 
HETATM    8  C12 UNK     1       9.388   5.497   9.104  1.00  0.00     0.014 A 
HETATM    9  C13 UNK     1       9.335   6.519   6.498  1.00  0.00     0.038 A 
HETATM   10  C14 UNK     1       8.173   5.651   8.431  1.00  0.00     0.001 A 
HETATM   11  C15 UNK     1       8.146   6.161   7.131  1.00  0.00     0.003 A 
ENDROOT
BRANCH   3  12
HETATM   12  C6  UNK     1      14.250   5.891   9.240  1.00  0.00     0.258 C 
HETATM   13  O1  UNK     1      14.839   4.812   9.237  1.00  0.00    -0.267 OA
HETATM   14  N1  UNK     1      14.646   7.037   9.905  1.00  0.00    -0.352 N 
HETATM   15  H10 UNK     1      14.079   7.877   9.849  1.00  0.00     0.163 HD
BRANCH  14  16
HETATM   16  C1  UNK     1      15.844   7.106  10.707  1.00  0.00     0.084 C 
HETATM   17  C2  UNK     1      15.772   8.231  11.731  1.00  0.00     0.025 C 
HETATM   18  C4  UNK     1      16.157   9.485  10.952  1.00  0.00     0.002 C 
HETATM   19  C5  UNK     1      17.021   9.009   9.783  1.00  0.00     0.002 C 
HETATM   20  C3  UNK     1      17.064   7.484   9.874  1.00  0.00     0.025 C 
ENDBRANCH  14  16
ENDBRANCH   3  12
TORSDOF 2
ENDMDL
MODEL 9
REMARK VINA RESULT:      -7.6     22.098     24.003
REMARK  2 active torsions:
REMARK  status: ('A' for Active; 'I' for Inactive)
REMARK    1  A    between atoms: C1_5  and  N1_4 
REMARK       I    between atoms: C6_10  and  N1_4 
REMARK    2  A    between atoms: C6_10  and  C7_11 
ROOT
HETATM    1  O2  UNK     1      10.604   5.581   9.249  1.00  0.00    -0.274 OA
HETATM    2  O3  UNK     1      12.207   5.239  10.840  1.00  0.00    -0.259 OA
HETATM    3  C7  UNK     1      12.958   5.981   8.719  1.00  0.00     0.108 A 
HETATM    4  C8  UNK     1      12.643   6.342   7.470  1.00  0.00     0.037 A 
HETATM    5  C9  UNK     1      11.255   6.342   7.034  1.00  0.00    -0.001 A 
HETATM    6  C10 UNK     1      11.923   5.571   9.695  1.00  0.00     0.304 A 
HETATM    7  C11 UNK     1      10.267   5.961   7.935  1.00  0.00     0.089 A 
HETATM    8  C12 UNK     1      10.881   6.712   5.739  1.00  0.00     0.014 A 
HETATM    9  C13 UNK     1       8.920   5.940   7.581  1.00  0.00     0.038 A 
HETATM   10  C14 UNK     1       9.533   6.696   5.369  1.00  0.00     0.001 A 
HETATM   11  C15 UNK     1       8.554   6.311   6.288  1.00  0.00     0.003 A 
ENDROOT
BRANCH   3  12
HETATM   12  C6  UNK     1      14.384   6.013   9.063  1.00  0.00     0.258 C 
HETATM   13  O1  UNK     1      15.189   5.280   8.492  1.00  0.00    -0.267 OA
HETATM   14  N1  UNK     1      14.675   6.925  10.062  1.00  0.00    -0.352 N 
HETATM   15  H10 UNK     1      13.931   7.476  10.477  1.00  0.00     0.163 HD
BRANCH  14  16
HETATM   16  C1  UNK     1      16.008   7.134  10.571  1.00  0.00     0.084 C 
HETATM   17  C2  UNK     1      16.015   8.092  11.756  1.00  0.00     0.025 C 
HETATM   18  C4  UNK     1      15.980   9.481  11.126  1.00  0.00     0.002 C 
HETATM   19  C5  UNK     1      16.586   9.329   9.730  1.00  0.00     0.002 C 
HETATM   20  C3  UNK     1      16.899   7.843   9.558  1.00  0.00     0.025 C 
ENDBRANCH  14  16
ENDBRANCH   3  12
TORSDOF 2
ENDMDL
MODEL 10
REMARK VINA RESULT:      -7.6      4.632      8.375
REMARK  2 active torsions:
REMARK  status: ('A' for Active; 'I' for Inactive)
REMARK    1  A    between atoms: C1_5  and  N1_4 
REMARK       I    between atoms: C6_10  and  N1_4 
REMARK    2  A    between atoms: C6_10  and  C7_11 
ROOT
HETATM    1  O2  UNK     1      18.966  -0.379  33.557  1.00  0.00    -0.274 OA
HETATM    2  O3  UNK     1      18.705  -0.808  35.785  1.00  0.00    -0.259 OA
HETATM    3  C7  UNK     1      19.949  -2.392  34.538  1.00  0.00     0.108 A 
HETATM    4  C8  UNK     1      20.447  -2.760  33.352  1.00  0.00     0.037 A 
HETATM    5  C9  UNK     1      20.224  -1.934  32.175  1.00  0.00    -0.001 A 
HETATM    6  C10 UNK     1      19.162  -1.149  34.701  1.00  0.00     0.304 A 
HETATM    7  C11 UNK     1      19.487  -0.762  32.305  1.00  0.00     0.089 A 
HETATM    8  C12 UNK     1      20.726  -2.280  30.917  1.00  0.00     0.014 A 
HETATM    9  C13 UNK     1      19.239   0.073  31.219  1.00  0.00     0.038 A 
HETATM   10  C14 UNK     1      20.484  -1.452  29.817  1.00  0.00     0.001 A 
HETATM   11  C15 UNK     1      19.742  -0.278  29.967  1.00  0.00     0.003 A 
ENDROOT
BRANCH   3  12
HETATM   12  C6  UNK     1      20.228  -3.291  35.665  1.00  0.00     0.258 C 
HETATM   13  O1  UNK     1      21.061  -2.995  36.518  1.00  0.00    -0.267 OA
HETATM   14  N1  UNK     1      19.469  -4.447  35.630  1.00  0.00    -0.352 N 
HETATM   15  H10 UNK     1      18.812  -4.598  34.871  1.00  0.00     0.163 HD
BRANCH  14  16
HETATM   16  C1  UNK     1      19.568  -5.483  36.628  1.00  0.00     0.084 C 
HETATM   17  C2  UNK     1      20.579  -6.550  36.233  1.00  0.00     0.025 C 
HETATM   18  C4  UNK     1      19.818  -7.467  35.281  1.00  0.00     0.002 C 
HETATM   19  C5  UNK     1      18.339  -7.321  35.645  1.00  0.00     0.002 C 
HETATM   20  C3  UNK     1      18.272  -6.275  36.756  1.00  0.00     0.025 C 
ENDBRANCH  14  16
ENDBRANCH   3  12
TORSDOF 2
ENDMDL
