MODEL 1
REMARK VINA RESULT:      -8.7      0.000      0.000
REMARK  4 active torsions:
REMARK  status: ('A' for Active; 'I' for Inactive)
REMARK    1  A    between atoms: C9_14  and  O3_3 
REMARK    2  A    between atoms: C16_21  and  O4_4 
REMARK    3  A    between atoms: C5_10  and  C6_11 
REMARK    4  A    between atoms: C13_18  and  C16_21 
ROOT
HETATM    1  O1  UNK     1      16.805   7.566  32.444  1.00  0.00    -0.306 OA
HETATM    2  O2  UNK     1      19.357   9.203  34.273  1.00  0.00    -0.284 OA
HETATM    3  C1  UNK     1      17.031   9.463  33.743  1.00  0.00     0.051 A 
HETATM    4  C2  UNK     1      16.180   8.671  32.974  1.00  0.00     0.093 A 
HETATM    5  C3  UNK     1      18.122   7.630  32.883  1.00  0.00     0.127 A 
HETATM    6  C4  UNK     1      18.343   8.829  33.728  1.00  0.00     0.218 A 
HETATM    7  C5  UNK     1      19.064   6.734  32.586  1.00  0.00     0.053 C 
HETATM    8  C7  UNK     1      16.608  10.617  34.365  1.00  0.00     0.021 A 
HETATM    9  C8  UNK     1      14.856   9.011  32.795  1.00  0.00     0.074 A 
HETATM   10  C9  UNK     1      14.401  10.179  33.417  1.00  0.00     0.068 A 
HETATM   11  C10 UNK     1      15.268  10.974  34.193  1.00  0.00     0.037 A 
ENDROOT
BRANCH   7  12
HETATM   12  C6  UNK     1      18.858   5.573  31.769  1.00  0.00    -0.033 A 
HETATM   13  C11 UNK     1      18.314   4.398  32.317  1.00  0.00     0.012 A 
HETATM   14  C14 UNK     1      18.112   3.270  31.523  1.00  0.00     0.019 A 
HETATM   15  C13 UNK     1      18.452   3.298  30.170  1.00  0.00     0.037 A 
HETATM   16  C15 UNK     1      18.992   4.456  29.612  1.00  0.00     0.019 A 
HETATM   17  C12 UNK     1      19.194   5.585  30.406  1.00  0.00     0.012 A 
BRANCH  15  18
HETATM   18  C16 UNK     1      18.241   2.121  29.343  1.00  0.00     0.176 C 
HETATM   19  O5  UNK     1      18.051   2.129  28.122  1.00  0.00    -0.646 OA
BRANCH  18  20
HETATM   20  O4  UNK     1      18.275   0.966  30.061  1.00  0.00    -0.773 OA
HETATM   21  H10 UNK     1      19.084   0.443  29.877  1.00  0.00     0.167 HD
ENDBRANCH  18  20
ENDBRANCH  15  18
ENDBRANCH   7  12
BRANCH  10  22
HETATM   22  O3  UNK     1      13.099  10.556  33.269  1.00  0.00    -0.361 OA
HETATM   23  H9  UNK     1      12.593   9.807  32.911  1.00  0.00     0.217 HD
ENDBRANCH  10  22
TORSDOF 4
ENDMDL
MODEL 2
REMARK VINA RESULT:      -8.4      3.009      9.218
REMARK  4 active torsions:
REMARK  status: ('A' for Active; 'I' for Inactive)
REMARK    1  A    between atoms: C9_14  and  O3_3 
REMARK    2  A    between atoms: C16_21  and  O4_4 
REMARK    3  A    between atoms: C5_10  and  C6_11 
REMARK    4  A    between atoms: C13_18  and  C16_21 
ROOT
HETATM    1  O1  UNK     1      19.673   1.123  31.213  1.00  0.00    -0.306 OA
HETATM    2  O2  UNK     1      18.993   0.357  27.823  1.00  0.00    -0.284 OA
HETATM    3  C1  UNK     1      19.830  -0.703  29.806  1.00  0.00     0.051 A 
HETATM    4  C2  UNK     1      20.027  -0.202  31.092  1.00  0.00     0.093 A 
HETATM    5  C3  UNK     1      19.224   1.510  29.956  1.00  0.00     0.127 A 
HETATM    6  C4  UNK     1      19.296   0.383  28.995  1.00  0.00     0.218 A 
HETATM    7  C5  UNK     1      18.786   2.732  29.651  1.00  0.00     0.053 C 
HETATM    8  C7  UNK     1      20.120  -2.008  29.468  1.00  0.00     0.021 A 
HETATM    9  C8  UNK     1      20.528  -0.996  32.100  1.00  0.00     0.074 A 
HETATM   10  C9  UNK     1      20.830  -2.325  31.783  1.00  0.00     0.068 A 
HETATM   11  C10 UNK     1      20.629  -2.825  30.480  1.00  0.00     0.037 A 
ENDROOT
BRANCH   7  12
HETATM   12  C6  UNK     1      18.714   3.827  30.575  1.00  0.00    -0.033 A 
HETATM   13  C11 UNK     1      19.340   5.052  30.286  1.00  0.00     0.012 A 
HETATM   14  C14 UNK     1      19.270   6.116  31.184  1.00  0.00     0.019 A 
HETATM   15  C13 UNK     1      18.572   5.974  32.384  1.00  0.00     0.037 A 
HETATM   16  C15 UNK     1      17.945   4.765  32.685  1.00  0.00     0.019 A 
HETATM   17  C12 UNK     1      18.016   3.699  31.788  1.00  0.00     0.012 A 
BRANCH  15  18
HETATM   18  C16 UNK     1      18.499   7.084  33.319  1.00  0.00     0.176 C 
HETATM   19  O5  UNK     1      18.239   8.255  33.022  1.00  0.00    -0.646 OA
BRANCH  18  20
HETATM   20  O4  UNK     1      18.749   6.704  34.602  1.00  0.00    -0.773 OA
HETATM   21  H10 UNK     1      19.468   6.038  34.653  1.00  0.00     0.167 HD
ENDBRANCH  18  20
ENDBRANCH  15  18
ENDBRANCH   7  12
BRANCH  10  22
HETATM   22  O3  UNK     1      21.328  -3.150  32.747  1.00  0.00    -0.361 OA
HETATM   23  H9  UNK     1      20.727  -3.907  32.855  1.00  0.00     0.217 HD
ENDBRANCH  10  22
TORSDOF 4
ENDMDL
MODEL 3
REMARK VINA RESULT:      -8.3      2.876      8.689
REMARK  4 active torsions:
REMARK  status: ('A' for Active; 'I' for Inactive)
REMARK    1  A    between atoms: C9_14  and  O3_3 
REMARK    2  A    between atoms: C16_21  and  O4_4 
REMARK    3  A    between atoms: C5_10  and  C6_11 
REMARK    4  A    between atoms: C13_18  and  C16_21 
ROOT
HETATM    1  O1  UNK     1      19.358   2.111  31.051  1.00  0.00    -0.306 OA
HETATM    2  O2  UNK     1      18.080   2.136  27.748  1.00  0.00    -0.284 OA
HETATM    3  C1  UNK     1      19.152   0.636  29.285  1.00  0.00     0.051 A 
HETATM    4  C2  UNK     1      19.591   0.835  30.593  1.00  0.00     0.093 A 
HETATM    5  C3  UNK     1      18.739   2.782  30.002  1.00  0.00     0.127 A 
HETATM    6  C4  UNK     1      18.572   1.893  28.827  1.00  0.00     0.218 A 
HETATM    7  C5  UNK     1      18.346   4.055  30.045  1.00  0.00     0.053 C 
HETATM    8  C7  UNK     1      19.288  -0.570  28.633  1.00  0.00     0.021 A 
HETATM    9  C8  UNK     1      20.191  -0.179  31.306  1.00  0.00     0.074 A 
HETATM   10  C9  UNK     1      20.342  -1.415  30.668  1.00  0.00     0.068 A 
HETATM   11  C10 UNK     1      19.895  -1.608  29.344  1.00  0.00     0.037 A 
ENDROOT
BRANCH   7  12
HETATM   12  C6  UNK     1      18.504   4.921  31.177  1.00  0.00    -0.033 A 
HETATM   13  C11 UNK     1      17.546   4.942  32.205  1.00  0.00     0.012 A 
HETATM   14  C14 UNK     1      17.700   5.783  33.306  1.00  0.00     0.019 A 
HETATM   15  C13 UNK     1      18.815   6.617  33.397  1.00  0.00     0.037 A 
HETATM   16  C15 UNK     1      19.775   6.609  32.386  1.00  0.00     0.019 A 
HETATM   17  C12 UNK     1      19.621   5.767  31.283  1.00  0.00     0.012 A 
BRANCH  15  18
HETATM   18  C16 UNK     1      18.976   7.493  34.546  1.00  0.00     0.176 C 
HETATM   19  O5  UNK     1      19.945   8.230  34.754  1.00  0.00    -0.646 OA
BRANCH  18  20
HETATM   20  O4  UNK     1      17.922   7.428  35.404  1.00  0.00    -0.773 OA
HETATM   21  H10 UNK     1      18.127   7.842  36.269  1.00  0.00     0.167 HD
ENDBRANCH  18  20
ENDBRANCH  15  18
ENDBRANCH   7  12
BRANCH  10  22
HETATM   22  O3  UNK     1      20.930  -2.449  31.333  1.00  0.00    -0.361 OA
HETATM   23  H9  UNK     1      21.528  -2.916  30.725  1.00  0.00     0.217 HD
ENDBRANCH  10  22
TORSDOF 4
ENDMDL
MODEL 4
REMARK VINA RESULT:      -8.1      9.725     13.745
REMARK  4 active torsions:
REMARK  status: ('A' for Active; 'I' for Inactive)
REMARK    1  A    between atoms: C9_14  and  O3_3 
REMARK    2  A    between atoms: C16_21  and  O4_4 
REMARK    3  A    between atoms: C5_10  and  C6_11 
REMARK    4  A    between atoms: C13_18  and  C16_21 
ROOT
HETATM    1  O1  UNK     1      19.260  -5.146  36.874  1.00  0.00    -0.306 OA
HETATM    2  O2  UNK     1      22.539  -5.007  38.202  1.00  0.00    -0.284 OA
HETATM    3  C1  UNK     1      20.827  -6.617  37.720  1.00  0.00     0.051 A 
HETATM    4  C2  UNK     1      19.553  -6.456  37.176  1.00  0.00     0.093 A 
HETATM    5  C3  UNK     1      20.385  -4.413  37.234  1.00  0.00     0.127 A 
HETATM    6  C4  UNK     1      21.439  -5.297  37.789  1.00  0.00     0.218 A 
HETATM    7  C5  UNK     1      20.504  -3.092  37.099  1.00  0.00     0.053 C 
HETATM    8  C7  UNK     1      21.321  -7.848  38.094  1.00  0.00     0.021 A 
HETATM    9  C8  UNK     1      18.717  -7.533  36.983  1.00  0.00     0.074 A 
HETATM   10  C9  UNK     1      19.196  -8.795  37.353  1.00  0.00     0.068 A 
HETATM   11  C10 UNK     1      20.484  -8.950  37.903  1.00  0.00     0.037 A 
ENDROOT
BRANCH   7  12
HETATM   12  C6  UNK     1      19.489  -2.232  36.565  1.00  0.00    -0.033 A 
HETATM   13  C11 UNK     1      19.521  -1.835  35.217  1.00  0.00     0.012 A 
HETATM   14  C14 UNK     1      18.534  -0.999  34.696  1.00  0.00     0.019 A 
HETATM   15  C13 UNK     1      17.499  -0.546  35.515  1.00  0.00     0.037 A 
HETATM   16  C15 UNK     1      17.453  -0.931  36.855  1.00  0.00     0.019 A 
HETATM   17  C12 UNK     1      18.440  -1.767  37.376  1.00  0.00     0.012 A 
BRANCH  15  18
HETATM   18  C16 UNK     1      16.470   0.325  34.972  1.00  0.00     0.176 C 
HETATM   19  O5  UNK     1      15.304   0.394  35.375  1.00  0.00    -0.646 OA
BRANCH  18  20
HETATM   20  O4  UNK     1      16.923   1.089  33.941  1.00  0.00    -0.773 OA
HETATM   21  H10 UNK     1      16.349   1.015  33.150  1.00  0.00     0.167 HD
ENDBRANCH  18  20
ENDBRANCH  15  18
ENDBRANCH   7  12
BRANCH  10  22
HETATM   22  O3  UNK     1      18.405  -9.892  37.180  1.00  0.00    -0.361 OA
HETATM   23  H9  UNK     1      17.676  -9.859  37.822  1.00  0.00     0.217 HD
ENDBRANCH  10  22
TORSDOF 4
ENDMDL
MODEL 5
REMARK VINA RESULT:      -8.1     13.709     17.903
REMARK  4 active torsions:
REMARK  status: ('A' for Active; 'I' for Inactive)
REMARK    1  A    between atoms: C9_14  and  O3_3 
REMARK    2  A    between atoms: C16_21  and  O4_4 
REMARK    3  A    between atoms: C5_10  and  C6_11 
REMARK    4  A    between atoms: C13_18  and  C16_21 
ROOT
HETATM    1  O1  UNK     1      19.202  -0.674  17.280  1.00  0.00    -0.306 OA
HETATM    2  O2  UNK     1      19.138   2.301  15.361  1.00  0.00    -0.284 OA
HETATM    3  C1  UNK     1      19.172   1.605  17.657  1.00  0.00     0.051 A 
HETATM    4  C2  UNK     1      19.196   0.330  18.220  1.00  0.00     0.093 A 
HETATM    5  C3  UNK     1      19.181  -0.036  16.045  1.00  0.00     0.127 A 
HETATM    6  C4  UNK     1      19.161   1.438  16.209  1.00  0.00     0.218 A 
HETATM    7  C5  UNK     1      19.179  -0.662  14.868  1.00  0.00     0.053 C 
HETATM    8  C7  UNK     1      19.163   2.752  18.421  1.00  0.00     0.021 A 
HETATM    9  C8  UNK     1      19.212   0.153  19.587  1.00  0.00     0.074 A 
HETATM   10  C9  UNK     1      19.204   1.302  20.385  1.00  0.00     0.068 A 
HETATM   11  C10 UNK     1      19.179   2.588  19.808  1.00  0.00     0.037 A 
ENDROOT
BRANCH   7  12
HETATM   12  C6  UNK     1      19.198  -2.087  14.702  1.00  0.00    -0.033 A 
HETATM   13  C11 UNK     1      20.357  -2.742  14.252  1.00  0.00     0.012 A 
HETATM   14  C14 UNK     1      20.376  -4.127  14.091  1.00  0.00     0.019 A 
HETATM   15  C13 UNK     1      19.236  -4.878  14.377  1.00  0.00     0.037 A 
HETATM   16  C15 UNK     1      18.078  -4.244  14.824  1.00  0.00     0.019 A 
HETATM   17  C12 UNK     1      18.058  -2.858  14.985  1.00  0.00     0.012 A 
BRANCH  15  18
HETATM   18  C16 UNK     1      19.256  -6.323  14.209  1.00  0.00     0.176 C 
HETATM   19  O5  UNK     1      19.931  -6.937  13.377  1.00  0.00    -0.646 OA
BRANCH  18  20
HETATM   20  O4  UNK     1      18.434  -6.961  15.085  1.00  0.00    -0.773 OA
HETATM   21  H10 UNK     1      17.642  -6.424  15.302  1.00  0.00     0.167 HD
ENDBRANCH  18  20
ENDBRANCH  15  18
ENDBRANCH   7  12
BRANCH  10  22
HETATM   22  O3  UNK     1      19.219   1.178  21.743  1.00  0.00    -0.361 OA
HETATM   23  H9  UNK     1      18.317   0.987  22.052  1.00  0.00     0.217 HD
ENDBRANCH  10  22
TORSDOF 4
ENDMDL
MODEL 6
REMARK VINA RESULT:      -7.9      3.315      7.823
REMARK  4 active torsions:
REMARK  status: ('A' for Active; 'I' for Inactive)
REMARK    1  A    between atoms: C9_14  and  O3_3 
REMARK    2  A    between atoms: C16_21  and  O4_4 
REMARK    3  A    between atoms: C5_10  and  C6_11 
REMARK    4  A    between atoms: C13_18  and  C16_21 
ROOT
HETATM    1  O1  UNK     1      18.335   3.607  34.527  1.00  0.00    -0.306 OA
HETATM    2  O2  UNK     1      18.238   1.633  31.589  1.00  0.00    -0.284 OA
HETATM    3  C1  UNK     1      18.222   1.367  33.974  1.00  0.00     0.051 A 
HETATM    4  C2  UNK     1      18.269   2.314  34.995  1.00  0.00     0.093 A 
HETATM    5  C3  UNK     1      18.331   3.508  33.141  1.00  0.00     0.127 A 
HETATM    6  C4  UNK     1      18.259   2.091  32.709  1.00  0.00     0.218 A 
HETATM    7  C5  UNK     1      18.383   4.547  32.307  1.00  0.00     0.053 C 
HETATM    8  C7  UNK     1      18.153   0.013  34.223  1.00  0.00     0.021 A 
HETATM    9  C8  UNK     1      18.250   1.938  36.320  1.00  0.00     0.074 A 
HETATM   10  C9  UNK     1      18.180   0.569  36.600  1.00  0.00     0.068 A 
HETATM   11  C10 UNK     1      18.132  -0.383  35.562  1.00  0.00     0.037 A 
ENDROOT
BRANCH   7  12
HETATM   12  C6  UNK     1      18.453   5.919  32.717  1.00  0.00    -0.033 A 
HETATM   13  C11 UNK     1      19.622   6.434  33.304  1.00  0.00     0.012 A 
HETATM   14  C14 UNK     1      19.691   7.769  33.702  1.00  0.00     0.019 A 
HETATM   15  C13 UNK     1      18.593   8.610  33.519  1.00  0.00     0.037 A 
HETATM   16  C15 UNK     1      17.426   8.115  32.938  1.00  0.00     0.019 A 
HETATM   17  C12 UNK     1      17.356   6.779  32.540  1.00  0.00     0.012 A 
BRANCH  15  18
HETATM   18  C16 UNK     1      18.665  10.001  33.934  1.00  0.00     0.176 C 
HETATM   19  O5  UNK     1      17.753  10.828  33.829  1.00  0.00    -0.646 OA
BRANCH  18  20
HETATM   20  O4  UNK     1      19.874  10.324  34.469  1.00  0.00    -0.773 OA
HETATM   21  H10 UNK     1      20.477   9.552  34.503  1.00  0.00     0.167 HD
ENDBRANCH  18  20
ENDBRANCH  15  18
ENDBRANCH   7  12
BRANCH  10  22
HETATM   22  O3  UNK     1      18.158   0.147  37.896  1.00  0.00    -0.361 OA
HETATM   23  H9  UNK     1      17.253  -0.128  38.123  1.00  0.00     0.217 HD
ENDBRANCH  10  22
TORSDOF 4
ENDMDL
MODEL 7
REMARK VINA RESULT:      -7.8      2.722      7.998
REMARK  4 active torsions:
REMARK  status: ('A' for Active; 'I' for Inactive)
REMARK    1  A    between atoms: C9_14  and  O3_3 
REMARK    2  A    between atoms: C16_21  and  O4_4 
REMARK    3  A    between atoms: C5_10  and  C6_11 
REMARK    4  A    between atoms: C13_18  and  C16_21 
ROOT
HETATM    1  O1  UNK     1      18.071   3.017  33.066  1.00  0.00    -0.306 OA
HETATM    2  O2  UNK     1      19.146   2.210  29.790  1.00  0.00    -0.284 OA
HETATM    3  C1  UNK     1      18.703   1.133  31.888  1.00  0.00     0.051 A 
HETATM    4  C2  UNK     1      18.270   1.656  33.106  1.00  0.00     0.093 A 
HETATM    5  C3  UNK     1      18.386   3.408  31.770  1.00  0.00     0.127 A 
HETATM    6  C4  UNK     1      18.803   2.244  30.950  1.00  0.00     0.218 A 
HETATM    7  C5  UNK     1      18.322   4.661  31.320  1.00  0.00     0.053 C 
HETATM    8  C7  UNK     1      18.962  -0.209  31.709  1.00  0.00     0.021 A 
HETATM    9  C8  UNK     1      18.078   0.846  34.203  1.00  0.00     0.074 A 
HETATM   10  C9  UNK     1      18.333  -0.521  34.048  1.00  0.00     0.068 A 
HETATM   11  C10 UNK     1      18.771  -1.042  32.814  1.00  0.00     0.037 A 
ENDROOT
BRANCH   7  12
HETATM   12  C6  UNK     1      17.921   5.792  32.106  1.00  0.00    -0.033 A 
HETATM   13  C11 UNK     1      16.562   6.125  32.242  1.00  0.00     0.012 A 
HETATM   14  C14 UNK     1      16.171   7.224  33.007  1.00  0.00     0.019 A 
HETATM   15  C13 UNK     1      17.132   8.005  33.648  1.00  0.00     0.037 A 
HETATM   16  C15 UNK     1      18.485   7.688  33.524  1.00  0.00     0.019 A 
HETATM   17  C12 UNK     1      18.876   6.589  32.758  1.00  0.00     0.012 A 
BRANCH  15  18
HETATM   18  C16 UNK     1      16.725   9.150  34.447  1.00  0.00     0.176 C 
HETATM   19  O5  UNK     1      17.016  10.327  34.211  1.00  0.00    -0.646 OA
BRANCH  18  20
HETATM   20  O4  UNK     1      15.964   8.795  35.517  1.00  0.00    -0.773 OA
HETATM   21  H10 UNK     1      16.462   8.859  36.359  1.00  0.00     0.167 HD
ENDBRANCH  18  20
ENDBRANCH  15  18
ENDBRANCH   7  12
BRANCH  10  22
HETATM   22  O3  UNK     1      18.157  -1.362  35.106  1.00  0.00    -0.361 OA
HETATM   23  H9  UNK     1      17.273  -1.762  35.046  1.00  0.00     0.217 HD
ENDBRANCH  10  22
TORSDOF 4
ENDMDL
MODEL 8
REMARK VINA RESULT:      -7.7     10.225     14.593
REMARK  4 active torsions:
REMARK  status: ('A' for Active; 'I' for Inactive)
REMARK    1  A    between atoms: C9_14  and  O3_3 
REMARK    2  A    between atoms: C16_21  and  O4_4 
REMARK    3  A    between atoms: C5_10  and  C6_11 
REMARK    4  A    between atoms: C13_18  and  C16_21 
ROOT
HETATM    1  O1  UNK     1      20.633  -6.050  35.969  1.00  0.00    -0.306 OA
HETATM    2  O2  UNK     1      21.724  -6.469  39.312  1.00  0.00    -0.284 OA
HETATM    3  C1  UNK     1      21.570  -7.716  37.267  1.00  0.00     0.051 A 
HETATM    4  C2  UNK     1      21.088  -7.348  36.012  1.00  0.00     0.093 A 
HETATM    5  C3  UNK     1      20.823  -5.541  37.249  1.00  0.00     0.127 A 
HETATM    6  C4  UNK     1      21.425  -6.560  38.143  1.00  0.00     0.218 A 
HETATM    7  C5  UNK     1      20.508  -4.301  37.625  1.00  0.00     0.053 C 
HETATM    8  C7  UNK     1      22.073  -8.972  37.528  1.00  0.00     0.021 A 
HETATM    9  C8  UNK     1      21.091  -8.235  34.958  1.00  0.00     0.074 A 
HETATM   10  C9  UNK     1      21.597  -9.518  35.196  1.00  0.00     0.068 A 
HETATM   11  C10 UNK     1      22.082  -9.882  36.469  1.00  0.00     0.037 A 
ENDROOT
BRANCH   7  12
HETATM   12  C6  UNK     1      19.925  -3.311  36.767  1.00  0.00    -0.033 A 
HETATM   13  C11 UNK     1      20.450  -3.075  35.484  1.00  0.00     0.012 A 
HETATM   14  C14 UNK     1      19.883  -2.112  34.649  1.00  0.00     0.019 A 
HETATM   15  C13 UNK     1      18.784  -1.371  35.083  1.00  0.00     0.037 A 
HETATM   16  C15 UNK     1      18.251  -1.593  36.352  1.00  0.00     0.019 A 
HETATM   17  C12 UNK     1      18.818  -2.556  37.189  1.00  0.00     0.012 A 
BRANCH  15  18
HETATM   18  C16 UNK     1      18.193  -0.368  34.211  1.00  0.00     0.176 C 
HETATM   19  O5  UNK     1      18.732   0.689  33.868  1.00  0.00    -0.646 OA
BRANCH  18  20
HETATM   20  O4  UNK     1      16.945  -0.713  33.791  1.00  0.00    -0.773 OA
HETATM   21  H10 UNK     1      16.902  -1.648  33.500  1.00  0.00     0.167 HD
ENDBRANCH  18  20
ENDBRANCH  15  18
ENDBRANCH   7  12
BRANCH  10  22
HETATM   22  O3  UNK     1      21.620 -10.430  34.184  1.00  0.00    -0.361 OA
HETATM   23  H9  UNK     1      22.212 -10.108  33.483  1.00  0.00     0.217 HD
ENDBRANCH  10  22
TORSDOF 4
ENDMDL
MODEL 9
REMARK VINA RESULT:      -7.5      4.858      8.486
REMARK  4 active torsions:
REMARK  status: ('A' for Active; 'I' for Inactive)
REMARK    1  A    between atoms: C9_14  and  O3_3 
REMARK    2  A    between atoms: C16_21  and  O4_4 
REMARK    3  A    between atoms: C5_10  and  C6_11 
REMARK    4  A    between atoms: C13_18  and  C16_21 
ROOT
HETATM    1  O1  UNK     1      18.858   0.690  34.425  1.00  0.00    -0.306 OA
HETATM    2  O2  UNK     1      17.285   1.449  37.505  1.00  0.00    -0.284 OA
HETATM    3  C1  UNK     1      18.381  -0.385  36.413  1.00  0.00     0.051 A 
HETATM    4  C2  UNK     1      18.953  -0.479  35.145  1.00  0.00     0.093 A 
HETATM    5  C3  UNK     1      18.197   1.591  35.251  1.00  0.00     0.127 A 
HETATM    6  C4  UNK     1      17.857   0.968  36.554  1.00  0.00     0.218 A 
HETATM    7  C5  UNK     1      17.906   2.850  34.920  1.00  0.00     0.053 C 
HETATM    8  C7  UNK     1      18.368  -1.441  37.299  1.00  0.00     0.021 A 
HETATM    9  C8  UNK     1      19.539  -1.647  34.711  1.00  0.00     0.074 A 
HETATM   10  C9  UNK     1      19.539  -2.735  35.591  1.00  0.00     0.068 A 
HETATM   11  C10 UNK     1      18.959  -2.632  36.872  1.00  0.00     0.037 A 
ENDROOT
BRANCH   7  12
HETATM   12  C6  UNK     1      18.230   3.459  33.663  1.00  0.00    -0.033 A 
HETATM   13  C11 UNK     1      18.179   2.715  32.471  1.00  0.00     0.012 A 
HETATM   14  C14 UNK     1      18.494   3.307  31.249  1.00  0.00     0.019 A 
HETATM   15  C13 UNK     1      18.865   4.652  31.198  1.00  0.00     0.037 A 
HETATM   16  C15 UNK     1      18.920   5.403  32.372  1.00  0.00     0.019 A 
HETATM   17  C12 UNK     1      18.606   4.811  33.596  1.00  0.00     0.012 A 
BRANCH  15  18
HETATM   18  C16 UNK     1      19.192   5.269  29.923  1.00  0.00     0.176 C 
HETATM   19  O5  UNK     1      19.958   6.225  29.767  1.00  0.00    -0.646 OA
BRANCH  18  20
HETATM   20  O4  UNK     1      18.556   4.675  28.877  1.00  0.00    -0.773 OA
HETATM   21  H10 UNK     1      19.040   3.885  28.554  1.00  0.00     0.167 HD
ENDBRANCH  18  20
ENDBRANCH  15  18
ENDBRANCH   7  12
BRANCH  10  22
HETATM   22  O3  UNK     1      20.107  -3.912  35.206  1.00  0.00    -0.361 OA
HETATM   23  H9  UNK     1      19.596  -4.282  34.465  1.00  0.00     0.217 HD
ENDBRANCH  10  22
TORSDOF 4
ENDMDL
MODEL 10
REMARK VINA RESULT:      -7.4     18.333     20.853
REMARK  4 active torsions:
REMARK  status: ('A' for Active; 'I' for Inactive)
REMARK    1  A    between atoms: C9_14  and  O3_3 
REMARK    2  A    between atoms: C16_21  and  O4_4 
REMARK    3  A    between atoms: C5_10  and  C6_11 
REMARK    4  A    between atoms: C13_18  and  C16_21 
ROOT
HETATM    1  O1  UNK     1      32.211  -6.043  36.560  1.00  0.00    -0.306 OA
HETATM    2  O2  UNK     1      31.974  -2.510  36.502  1.00  0.00    -0.284 OA
HETATM    3  C1  UNK     1      30.865  -4.403  37.475  1.00  0.00     0.051 A 
HETATM    4  C2  UNK     1      31.129  -5.767  37.365  1.00  0.00     0.093 A 
HETATM    5  C3  UNK     1      32.679  -4.810  36.121  1.00  0.00     0.127 A 
HETATM    6  C4  UNK     1      31.859  -3.703  36.672  1.00  0.00     0.218 A 
HETATM    7  C5  UNK     1      33.726  -4.641  35.313  1.00  0.00     0.053 C 
HETATM    8  C7  UNK     1      29.826  -3.909  38.234  1.00  0.00     0.021 A 
HETATM    9  C8  UNK     1      30.354  -6.699  38.019  1.00  0.00     0.074 A 
HETATM   10  C9  UNK     1      29.292  -6.224  38.796  1.00  0.00     0.068 A 
HETATM   11  C10 UNK     1      29.031  -4.843  38.902  1.00  0.00     0.037 A 
ENDROOT
BRANCH   7  12
HETATM   12  C6  UNK     1      34.523  -5.706  34.777  1.00  0.00    -0.033 A 
HETATM   13  C11 UNK     1      34.152  -6.349  33.583  1.00  0.00     0.012 A 
HETATM   14  C14 UNK     1      34.926  -7.384  33.061  1.00  0.00     0.019 A 
HETATM   15  C13 UNK     1      36.084  -7.793  33.724  1.00  0.00     0.037 A 
HETATM   16  C15 UNK     1      36.466  -7.165  34.909  1.00  0.00     0.019 A 
HETATM   17  C12 UNK     1      35.691  -6.130  35.432  1.00  0.00     0.012 A 
BRANCH  15  18
HETATM   18  C16 UNK     1      36.892  -8.872  33.179  1.00  0.00     0.176 C 
HETATM   19  O5  UNK     1      37.133  -9.051  31.980  1.00  0.00    -0.646 OA
BRANCH  18  20
HETATM   20  O4  UNK     1      37.378  -9.698  34.144  1.00  0.00    -0.773 OA
HETATM   21  H10 UNK     1      37.855  -9.204  34.844  1.00  0.00     0.167 HD
ENDBRANCH  18  20
ENDBRANCH  15  18
ENDBRANCH   7  12
BRANCH  10  22
HETATM   22  O3  UNK     1      28.496  -7.109  39.462  1.00  0.00    -0.361 OA
HETATM   23  H9  UNK     1      29.025  -7.558  40.143  1.00  0.00     0.217 HD
ENDBRANCH  10  22
TORSDOF 4
ENDMDL
