MODEL 1
REMARK VINA RESULT:      -9.2      0.000      0.000
REMARK  3 active torsions:
REMARK  status: ('A' for Active; 'I' for Inactive)
REMARK       I    between atoms: C11_15  and  N1_4 
REMARK    1  A    between atoms: C4_8  and  N1_4 
REMARK    2  A    between atoms: C11_15  and  C13_17 
REMARK    3  A    between atoms: C12_16  and  C14_18 
ROOT
HETATM    1  O1  UNK     1      18.362   0.961  32.186  1.00  0.00    -0.275 OA
HETATM    2  O2  UNK     1      17.641   2.784  31.009  1.00  0.00    -0.260 OA
HETATM    3  C1  UNK     1      19.839  -0.654  31.100  1.00  0.00     0.004 A 
HETATM    4  C2  UNK     1      19.121  -0.226  32.218  1.00  0.00     0.092 A 
HETATM    5  C3  UNK     1      19.789   0.161  29.878  1.00  0.00    -0.043 A 
HETATM    6  C4  UNK     1      19.845  -2.120  33.509  1.00  0.00     0.037 A 
HETATM    7  C5  UNK     1      20.569  -1.845  31.213  1.00  0.00     0.017 A 
HETATM    8  C6  UNK     1      19.114  -0.941  33.417  1.00  0.00     0.067 A 
HETATM    9  C7  UNK     1      20.571  -2.571  32.409  1.00  0.00     0.030 A 
HETATM   10  C8  UNK     1      19.060   1.284  29.877  1.00  0.00     0.090 A 
HETATM   11  C9  UNK     1      20.550  -0.273  28.659  1.00  0.00     0.049 C 
HETATM   12  C10 UNK     1      18.297   1.749  31.048  1.00  0.00     0.288 A 
ENDROOT
BRANCH   6  13
HETATM   13  N1  UNK     1      19.853  -2.849  34.698  1.00  0.00    -0.324 N 
HETATM   14  C11 UNK     1      20.547  -2.563  35.883  1.00  0.00     0.245 C 
HETATM   15  O3  UNK     1      21.283  -1.606  36.094  1.00  0.00    -0.268 OA
HETATM   16  H8  UNK     1      19.277  -3.688  34.686  1.00  0.00     0.169 HD
BRANCH  14  17
HETATM   17  C13 UNK     1      20.292  -3.594  36.935  1.00  0.00     0.075 C 
HETATM   18  C14 UNK     1      20.467  -4.895  36.656  1.00  0.00     0.017 C 
BRANCH  18  19
HETATM   19  C12 UNK     1      20.237  -5.992  37.612  1.00  0.00    -0.036 A 
HETATM   20  C15 UNK     1      21.147  -6.204  38.635  1.00  0.00     0.011 A 
HETATM   21  C17 UNK     1      20.928  -7.243  39.540  1.00  0.00     0.001 A 
HETATM   22  C19 UNK     1      19.804  -8.056  39.408  1.00  0.00     0.000 A 
HETATM   23  C18 UNK     1      18.897  -7.832  38.373  1.00  0.00     0.001 A 
HETATM   24  C16 UNK     1      19.115  -6.793  37.468  1.00  0.00     0.011 A 
ENDBRANCH  18  19
ENDBRANCH  14  17
ENDBRANCH   6  13
TORSDOF 3
ENDMDL
MODEL 2
REMARK VINA RESULT:      -9.1      1.432      2.176
REMARK  3 active torsions:
REMARK  status: ('A' for Active; 'I' for Inactive)
REMARK       I    between atoms: C11_15  and  N1_4 
REMARK    1  A    between atoms: C4_8  and  N1_4 
REMARK    2  A    between atoms: C11_15  and  C13_17 
REMARK    3  A    between atoms: C12_16  and  C14_18 
ROOT
HETATM    1  O1  UNK     1      20.062  -1.134  30.296  1.00  0.00    -0.275 OA
HETATM    2  O2  UNK     1      20.422  -0.609  28.098  1.00  0.00    -0.260 OA
HETATM    3  C1  UNK     1      18.974   0.499  31.751  1.00  0.00     0.004 A 
HETATM    4  C2  UNK     1      19.562  -0.751  31.556  1.00  0.00     0.092 A 
HETATM    5  C3  UNK     1      18.883   1.420  30.608  1.00  0.00    -0.043 A 
HETATM    6  C4  UNK     1      19.212  -1.363  33.854  1.00  0.00     0.037 A 
HETATM    7  C5  UNK     1      18.501   0.804  33.034  1.00  0.00     0.017 A 
HETATM    8  C6  UNK     1      19.688  -1.684  32.588  1.00  0.00     0.067 A 
HETATM    9  C7  UNK     1      18.620  -0.122  34.077  1.00  0.00     0.030 A 
HETATM   10  C8  UNK     1      19.367   1.029  29.421  1.00  0.00     0.090 A 
HETATM   11  C9  UNK     1      18.255   2.771  30.784  1.00  0.00     0.049 C 
HETATM   12  C10 UNK     1      19.990  -0.287  29.200  1.00  0.00     0.288 A 
ENDROOT
BRANCH   6  13
HETATM   13  N1  UNK     1      19.327  -2.280  34.898  1.00  0.00    -0.324 N 
HETATM   14  C11 UNK     1      20.426  -2.496  35.743  1.00  0.00     0.245 C 
HETATM   15  O3  UNK     1      21.501  -1.908  35.718  1.00  0.00    -0.268 OA
HETATM   16  H8  UNK     1      18.501  -2.856  35.053  1.00  0.00     0.169 HD
BRANCH  14  17
HETATM   17  C13 UNK     1      20.152  -3.574  36.741  1.00  0.00     0.075 C 
HETATM   18  C14 UNK     1      20.156  -4.860  36.359  1.00  0.00     0.017 C 
BRANCH  18  19
HETATM   19  C12 UNK     1      19.890  -5.999  37.256  1.00  0.00    -0.036 A 
HETATM   20  C15 UNK     1      20.406  -5.985  38.542  1.00  0.00     0.011 A 
HETATM   21  C17 UNK     1      20.154  -7.064  39.390  1.00  0.00     0.001 A 
HETATM   22  C19 UNK     1      19.392  -8.140  38.941  1.00  0.00     0.000 A 
HETATM   23  C18 UNK     1      18.880  -8.141  37.643  1.00  0.00     0.001 A 
HETATM   24  C16 UNK     1      19.131  -7.062  36.794  1.00  0.00     0.011 A 
ENDBRANCH  18  19
ENDBRANCH  14  17
ENDBRANCH   6  13
TORSDOF 3
ENDMDL
MODEL 3
REMARK VINA RESULT:      -9.1      4.564      9.221
REMARK  3 active torsions:
REMARK  status: ('A' for Active; 'I' for Inactive)
REMARK       I    between atoms: C11_15  and  N1_4 
REMARK    1  A    between atoms: C4_8  and  N1_4 
REMARK    2  A    between atoms: C11_15  and  C13_17 
REMARK    3  A    between atoms: C12_16  and  C14_18 
ROOT
HETATM    1  O1  UNK     1      21.322  -8.966  35.239  1.00  0.00    -0.275 OA
HETATM    2  O2  UNK     1      22.408 -10.873  34.594  1.00  0.00    -0.260 OA
HETATM    3  C1  UNK     1      19.851  -9.031  37.188  1.00  0.00     0.004 A 
HETATM    4  C2  UNK     1      20.439  -8.331  36.134  1.00  0.00     0.092 A 
HETATM    5  C3  UNK     1      20.170 -10.457  37.350  1.00  0.00    -0.043 A 
HETATM    6  C4  UNK     1      19.327  -6.294  36.761  1.00  0.00     0.037 A 
HETATM    7  C5  UNK     1      18.984  -8.327  38.034  1.00  0.00     0.017 A 
HETATM    8  C6  UNK     1      20.190  -6.975  35.910  1.00  0.00     0.067 A 
HETATM    9  C7  UNK     1      18.725  -6.969  37.822  1.00  0.00     0.030 A 
HETATM   10  C8  UNK     1      21.012 -11.035  36.483  1.00  0.00     0.090 A 
HETATM   11  C9  UNK     1      19.554 -11.239  38.473  1.00  0.00     0.049 C 
HETATM   12  C10 UNK     1      21.642 -10.309  35.367  1.00  0.00     0.288 A 
ENDROOT
BRANCH   6  13
HETATM   13  N1  UNK     1      19.065  -4.940  36.556  1.00  0.00    -0.324 N 
HETATM   14  C11 UNK     1      19.975  -3.872  36.563  1.00  0.00     0.245 C 
HETATM   15  O3  UNK     1      21.183  -3.935  36.753  1.00  0.00    -0.268 OA
HETATM   16  H8  UNK     1      18.087  -4.717  36.379  1.00  0.00     0.169 HD
BRANCH  14  17
HETATM   17  C13 UNK     1      19.295  -2.566  36.301  1.00  0.00     0.075 C 
HETATM   18  C14 UNK     1      18.355  -2.117  37.146  1.00  0.00     0.017 C 
BRANCH  18  19
HETATM   19  C12 UNK     1      17.618  -0.852  36.979  1.00  0.00    -0.036 A 
HETATM   20  C15 UNK     1      17.805   0.169  37.897  1.00  0.00     0.011 A 
HETATM   21  C17 UNK     1      17.106   1.366  37.739  1.00  0.00     0.001 A 
HETATM   22  C19 UNK     1      16.232   1.526  36.666  1.00  0.00     0.000 A 
HETATM   23  C18 UNK     1      16.053   0.490  35.750  1.00  0.00     0.001 A 
HETATM   24  C16 UNK     1      16.751  -0.708  35.908  1.00  0.00     0.011 A 
ENDBRANCH  18  19
ENDBRANCH  14  17
ENDBRANCH   6  13
TORSDOF 3
ENDMDL
MODEL 4
REMARK VINA RESULT:      -9.0      4.539      9.219
REMARK  3 active torsions:
REMARK  status: ('A' for Active; 'I' for Inactive)
REMARK       I    between atoms: C11_15  and  N1_4 
REMARK    1  A    between atoms: C4_8  and  N1_4 
REMARK    2  A    between atoms: C11_15  and  C13_17 
REMARK    3  A    between atoms: C12_16  and  C14_18 
ROOT
HETATM    1  O1  UNK     1      19.174  -9.172  38.303  1.00  0.00    -0.275 OA
HETATM    2  O2  UNK     1      19.106 -11.168  39.419  1.00  0.00    -0.260 OA
HETATM    3  C1  UNK     1      20.438  -9.013  36.218  1.00  0.00     0.004 A 
HETATM    4  C2  UNK     1      19.634  -8.429  37.199  1.00  0.00     0.092 A 
HETATM    5  C3  UNK     1      20.801 -10.431  36.359  1.00  0.00    -0.043 A 
HETATM    6  C4  UNK     1      19.665  -6.305  36.073  1.00  0.00     0.037 A 
HETATM    7  C5  UNK     1      20.853  -8.206  35.151  1.00  0.00     0.017 A 
HETATM    8  C6  UNK     1      19.243  -7.089  37.141  1.00  0.00     0.067 A 
HETATM    9  C7  UNK     1      20.469  -6.862  35.080  1.00  0.00     0.030 A 
HETATM   10  C8  UNK     1      20.350 -11.113  37.420  1.00  0.00     0.090 A 
HETATM   11  C9  UNK     1      21.663 -11.088  35.322  1.00  0.00     0.049 C 
HETATM   12  C10 UNK     1      19.500 -10.511  38.462  1.00  0.00     0.288 A 
ENDROOT
BRANCH   6  13
HETATM   13  N1  UNK     1      19.286  -4.965  35.996  1.00  0.00    -0.324 N 
HETATM   14  C11 UNK     1      20.040  -3.832  36.337  1.00  0.00     0.245 C 
HETATM   15  O3  UNK     1      21.186  -3.812  36.769  1.00  0.00    -0.268 OA
HETATM   16  H8  UNK     1      18.343  -4.809  35.646  1.00  0.00     0.169 HD
BRANCH  14  17
HETATM   17  C13 UNK     1      19.273  -2.570  36.109  1.00  0.00     0.075 C 
HETATM   18  C14 UNK     1      18.428  -2.119  37.048  1.00  0.00     0.017 C 
BRANCH  18  19
HETATM   19  C12 UNK     1      17.617  -0.895  36.925  1.00  0.00    -0.036 A 
HETATM   20  C15 UNK     1      16.685  -0.798  35.904  1.00  0.00     0.011 A 
HETATM   21  C17 UNK     1      15.918   0.362  35.788  1.00  0.00     0.001 A 
HETATM   22  C19 UNK     1      16.094   1.408  36.692  1.00  0.00     0.000 A 
HETATM   23  C18 UNK     1      17.037   1.296  37.714  1.00  0.00     0.001 A 
HETATM   24  C16 UNK     1      17.804   0.137  37.831  1.00  0.00     0.011 A 
ENDBRANCH  18  19
ENDBRANCH  14  17
ENDBRANCH   6  13
TORSDOF 3
ENDMDL
MODEL 5
REMARK VINA RESULT:      -9.0      1.562      2.563
REMARK  3 active torsions:
REMARK  status: ('A' for Active; 'I' for Inactive)
REMARK       I    between atoms: C11_15  and  N1_4 
REMARK    1  A    between atoms: C4_8  and  N1_4 
REMARK    2  A    between atoms: C11_15  and  C13_17 
REMARK    3  A    between atoms: C12_16  and  C14_18 
ROOT
HETATM    1  O1  UNK     1      18.868   0.391  30.806  1.00  0.00    -0.275 OA
HETATM    2  O2  UNK     1      19.003   1.276  28.701  1.00  0.00    -0.260 OA
HETATM    3  C1  UNK     1      18.350   1.860  32.688  1.00  0.00     0.004 A 
HETATM    4  C2  UNK     1      18.643   0.593  32.182  1.00  0.00     0.092 A 
HETATM    5  C3  UNK     1      18.279   2.992  31.752  1.00  0.00    -0.043 A 
HETATM    6  C4  UNK     1      18.515  -0.398  34.368  1.00  0.00     0.037 A 
HETATM    7  C5  UNK     1      18.138   1.977  34.068  1.00  0.00     0.017 A 
HETATM    8  C6  UNK     1      18.728  -0.535  33.001  1.00  0.00     0.067 A 
HETATM    9  C7  UNK     1      18.221   0.856  34.901  1.00  0.00     0.030 A 
HETATM   10  C8  UNK     1      18.499   2.771  30.449  1.00  0.00     0.090 A 
HETATM   11  C9  UNK     1      17.966   4.367  32.265  1.00  0.00     0.049 C 
HETATM   12  C10 UNK     1      18.808   1.439  29.900  1.00  0.00     0.288 A 
ENDROOT
BRANCH   6  13
HETATM   13  N1  UNK     1      18.595  -1.511  35.204  1.00  0.00    -0.324 N 
HETATM   14  C11 UNK     1      19.737  -2.064  35.801  1.00  0.00     0.245 C 
HETATM   15  O3  UNK     1      20.891  -1.663  35.697  1.00  0.00    -0.268 OA
HETATM   16  H8  UNK     1      17.704  -1.966  35.394  1.00  0.00     0.169 HD
BRANCH  14  17
HETATM   17  C13 UNK     1      19.402  -3.262  36.631  1.00  0.00     0.075 C 
HETATM   18  C14 UNK     1      20.123  -4.386  36.508  1.00  0.00     0.017 C 
BRANCH  18  19
HETATM   19  C12 UNK     1      19.875  -5.625  37.267  1.00  0.00    -0.036 A 
HETATM   20  C15 UNK     1      20.632  -5.892  38.396  1.00  0.00     0.011 A 
HETATM   21  C17 UNK     1      20.397  -7.065  39.115  1.00  0.00     0.001 A 
HETATM   22  C19 UNK     1      19.408  -7.953  38.694  1.00  0.00     0.000 A 
HETATM   23  C18 UNK     1      18.654  -7.671  37.556  1.00  0.00     0.001 A 
HETATM   24  C16 UNK     1      18.889  -6.499  36.837  1.00  0.00     0.011 A 
ENDBRANCH  18  19
ENDBRANCH  14  17
ENDBRANCH   6  13
TORSDOF 3
ENDMDL
MODEL 6
REMARK VINA RESULT:      -8.9      0.943      1.132
REMARK  3 active torsions:
REMARK  status: ('A' for Active; 'I' for Inactive)
REMARK       I    between atoms: C11_15  and  N1_4 
REMARK    1  A    between atoms: C4_8  and  N1_4 
REMARK    2  A    between atoms: C11_15  and  C13_17 
REMARK    3  A    between atoms: C12_16  and  C14_18 
ROOT
HETATM    1  O1  UNK     1      18.055   2.126  32.996  1.00  0.00    -0.275 OA
HETATM    2  O2  UNK     1      17.512   4.201  32.199  1.00  0.00    -0.260 OA
HETATM    3  C1  UNK     1      19.032   0.481  31.478  1.00  0.00     0.004 A 
HETATM    4  C2  UNK     1      18.579   0.843  32.747  1.00  0.00     0.092 A 
HETATM    5  C3  UNK     1      18.952   1.472  30.394  1.00  0.00    -0.043 A 
HETATM    6  C4  UNK     1      19.128  -1.318  33.647  1.00  0.00     0.037 A 
HETATM    7  C5  UNK     1      19.540  -0.814  31.312  1.00  0.00     0.017 A 
HETATM    8  C6  UNK     1      18.620  -0.037  33.831  1.00  0.00     0.067 A 
HETATM    9  C7  UNK     1      19.587  -1.706  32.389  1.00  0.00     0.030 A 
HETATM   10  C8  UNK     1      18.448   2.684  30.659  1.00  0.00     0.090 A 
HETATM   11  C9  UNK     1      19.431   1.114  29.017  1.00  0.00     0.049 C 
HETATM   12  C10 UNK     1      17.967   3.080  31.994  1.00  0.00     0.288 A 
ENDROOT
BRANCH   6  13
HETATM   13  N1  UNK     1      19.179  -2.212  34.716  1.00  0.00    -0.324 N 
HETATM   14  C11 UNK     1      20.198  -2.365  35.667  1.00  0.00     0.245 C 
HETATM   15  O3  UNK     1      21.245  -1.732  35.734  1.00  0.00    -0.268 OA
HETATM   16  H8  UNK     1      18.366  -2.820  34.801  1.00  0.00     0.169 HD
BRANCH  14  17
HETATM   17  C13 UNK     1      19.873  -3.438  36.656  1.00  0.00     0.075 C 
HETATM   18  C14 UNK     1      20.579  -4.579  36.664  1.00  0.00     0.017 C 
BRANCH  18  19
HETATM   19  C12 UNK     1      20.338  -5.703  37.587  1.00  0.00    -0.036 A 
HETATM   20  C15 UNK     1      21.295  -6.016  38.539  1.00  0.00     0.011 A 
HETATM   21  C17 UNK     1      21.067  -7.080  39.412  1.00  0.00     0.001 A 
HETATM   22  C19 UNK     1      19.886  -7.816  39.321  1.00  0.00     0.000 A 
HETATM   23  C18 UNK     1      18.933  -7.490  38.357  1.00  0.00     0.001 A 
HETATM   24  C16 UNK     1      19.160  -6.426  37.483  1.00  0.00     0.011 A 
ENDBRANCH  18  19
ENDBRANCH  14  17
ENDBRANCH   6  13
TORSDOF 3
ENDMDL
MODEL 7
REMARK VINA RESULT:      -8.7      5.288     10.743
REMARK  3 active torsions:
REMARK  status: ('A' for Active; 'I' for Inactive)
REMARK       I    between atoms: C11_15  and  N1_4 
REMARK    1  A    between atoms: C4_8  and  N1_4 
REMARK    2  A    between atoms: C11_15  and  C13_17 
REMARK    3  A    between atoms: C12_16  and  C14_18 
ROOT
HETATM    1  O1  UNK     1      19.197  -0.314  32.923  1.00  0.00    -0.275 OA
HETATM    2  O2  UNK     1      19.933  -2.421  33.426  1.00  0.00    -0.260 OA
HETATM    3  C1  UNK     1      19.406   0.510  30.633  1.00  0.00     0.004 A 
HETATM    4  C2  UNK     1      19.015   0.697  31.960  1.00  0.00     0.092 A 
HETATM    5  C3  UNK     1      20.017  -0.773  30.254  1.00  0.00    -0.043 A 
HETATM    6  C4  UNK     1      18.221   2.918  31.497  1.00  0.00     0.037 A 
HETATM    7  C5  UNK     1      19.190   1.564  29.736  1.00  0.00     0.017 A 
HETATM    8  C6  UNK     1      18.427   1.884  32.402  1.00  0.00     0.067 A 
HETATM    9  C7  UNK     1      18.602   2.759  30.166  1.00  0.00     0.030 A 
HETATM   10  C8  UNK     1      20.178  -1.716  31.192  1.00  0.00     0.090 A 
HETATM   11  C9  UNK     1      20.448  -1.006  28.836  1.00  0.00     0.049 C 
HETATM   12  C10 UNK     1      19.769  -1.533  32.596  1.00  0.00     0.288 A 
ENDROOT
BRANCH   6  13
HETATM   13  N1  UNK     1      17.635   4.112  31.918  1.00  0.00    -0.324 N 
HETATM   14  C11 UNK     1      18.249   5.361  32.095  1.00  0.00     0.245 C 
HETATM   15  O3  UNK     1      19.429   5.635  31.908  1.00  0.00    -0.268 OA
HETATM   16  H8  UNK     1      16.639   4.050  32.115  1.00  0.00     0.169 HD
BRANCH  14  17
HETATM   17  C13 UNK     1      17.274   6.394  32.560  1.00  0.00     0.075 C 
HETATM   18  C14 UNK     1      17.649   7.679  32.648  1.00  0.00     0.017 C 
BRANCH  18  19
HETATM   19  C12 UNK     1      16.774   8.775  33.102  1.00  0.00    -0.036 A 
HETATM   20  C15 UNK     1      17.270   9.717  33.988  1.00  0.00     0.011 A 
HETATM   21  C17 UNK     1      16.441  10.754  34.417  1.00  0.00     0.001 A 
HETATM   22  C19 UNK     1      15.129  10.834  33.955  1.00  0.00     0.000 A 
HETATM   23  C18 UNK     1      14.643   9.878  33.063  1.00  0.00     0.001 A 
HETATM   24  C16 UNK     1      15.471   8.841  32.634  1.00  0.00     0.011 A 
ENDBRANCH  18  19
ENDBRANCH  14  17
ENDBRANCH   6  13
TORSDOF 3
ENDMDL
MODEL 8
REMARK VINA RESULT:      -8.7      5.179     10.483
REMARK  3 active torsions:
REMARK  status: ('A' for Active; 'I' for Inactive)
REMARK       I    between atoms: C11_15  and  N1_4 
REMARK    1  A    between atoms: C4_8  and  N1_4 
REMARK    2  A    between atoms: C11_15  and  C13_17 
REMARK    3  A    between atoms: C12_16  and  C14_18 
ROOT
HETATM    1  O1  UNK     1      19.196  -0.287  32.867  1.00  0.00    -0.275 OA
HETATM    2  O2  UNK     1      19.931  -2.369  33.464  1.00  0.00    -0.260 OA
HETATM    3  C1  UNK     1      19.437   0.445  30.548  1.00  0.00     0.004 A 
HETATM    4  C2  UNK     1      19.026   0.684  31.860  1.00  0.00     0.092 A 
HETATM    5  C3  UNK     1      20.058  -0.850  30.231  1.00  0.00    -0.043 A 
HETATM    6  C4  UNK     1      18.232   2.882  31.296  1.00  0.00     0.037 A 
HETATM    7  C5  UNK     1      19.232   1.461  29.606  1.00  0.00     0.017 A 
HETATM    8  C6  UNK     1      18.428   1.885  32.246  1.00  0.00     0.067 A 
HETATM    9  C7  UNK     1      18.634   2.670  29.978  1.00  0.00     0.030 A 
HETATM   10  C8  UNK     1      20.208  -1.754  31.208  1.00  0.00     0.090 A 
HETATM   11  C9  UNK     1      20.511  -1.138  28.830  1.00  0.00     0.049 C 
HETATM   12  C10 UNK     1      19.778  -1.516  32.597  1.00  0.00     0.288 A 
ENDROOT
BRANCH   6  13
HETATM   13  N1  UNK     1      17.636   4.089  31.659  1.00  0.00    -0.324 N 
HETATM   14  C11 UNK     1      18.263   5.314  31.934  1.00  0.00     0.245 C 
HETATM   15  O3  UNK     1      19.464   5.551  31.903  1.00  0.00    -0.268 OA
HETATM   16  H8  UNK     1      16.621   4.059  31.728  1.00  0.00     0.169 HD
BRANCH  14  17
HETATM   17  C13 UNK     1      17.270   6.374  32.290  1.00  0.00     0.075 C 
HETATM   18  C14 UNK     1      17.497   7.183  33.335  1.00  0.00     0.017 C 
BRANCH  18  19
HETATM   19  C12 UNK     1      16.584   8.252  33.778  1.00  0.00    -0.036 A 
HETATM   20  C15 UNK     1      15.225   7.995  33.855  1.00  0.00     0.011 A 
HETATM   21  C17 UNK     1      14.361   9.007  34.275  1.00  0.00     0.001 A 
HETATM   22  C19 UNK     1      14.869  10.261  34.610  1.00  0.00     0.000 A 
HETATM   23  C18 UNK     1      16.239  10.506  34.527  1.00  0.00     0.001 A 
HETATM   24  C16 UNK     1      17.104   9.494  34.107  1.00  0.00     0.011 A 
ENDBRANCH  18  19
ENDBRANCH  14  17
ENDBRANCH   6  13
TORSDOF 3
ENDMDL
MODEL 9
REMARK VINA RESULT:      -8.6      6.465     10.469
REMARK  3 active torsions:
REMARK  status: ('A' for Active; 'I' for Inactive)
REMARK       I    between atoms: C11_15  and  N1_4 
REMARK    1  A    between atoms: C4_8  and  N1_4 
REMARK    2  A    between atoms: C11_15  and  C13_17 
REMARK    3  A    between atoms: C12_16  and  C14_18 
ROOT
HETATM    1  O1  UNK     1      18.100   9.858  33.677  1.00  0.00    -0.275 OA
HETATM    2  O2  UNK     1      18.186  11.989  34.504  1.00  0.00    -0.260 OA
HETATM    3  C1  UNK     1      15.936   8.896  33.080  1.00  0.00     0.004 A 
HETATM    4  C2  UNK     1      17.323   8.791  33.186  1.00  0.00     0.092 A 
HETATM    5  C3  UNK     1      15.291  10.151  33.494  1.00  0.00    -0.043 A 
HETATM    6  C4  UNK     1      17.300   6.548  32.321  1.00  0.00     0.037 A 
HETATM    7  C5  UNK     1      15.235   7.790  32.581  1.00  0.00     0.017 A 
HETATM    8  C6  UNK     1      18.013   7.635  32.814  1.00  0.00     0.067 A 
HETATM    9  C7  UNK     1      15.913   6.625  32.205  1.00  0.00     0.030 A 
HETATM   10  C8  UNK     1      16.055  11.149  33.958  1.00  0.00     0.090 A 
HETATM   11  C9  UNK     1      13.801  10.295  33.393  1.00  0.00     0.049 C 
HETATM   12  C10 UNK     1      17.521  11.053  34.075  1.00  0.00     0.288 A 
ENDROOT
BRANCH   6  13
HETATM   13  N1  UNK     1      17.969   5.384  31.943  1.00  0.00    -0.324 N 
HETATM   14  C11 UNK     1      18.604   5.109  30.723  1.00  0.00     0.245 C 
HETATM   15  O3  UNK     1      18.688   5.852  29.752  1.00  0.00    -0.268 OA
HETATM   16  H8  UNK     1      17.991   4.656  32.654  1.00  0.00     0.169 HD
BRANCH  14  17
HETATM   17  C13 UNK     1      19.208   3.741  30.711  1.00  0.00     0.075 C 
HETATM   18  C14 UNK     1      18.605   2.747  30.042  1.00  0.00     0.017 C 
BRANCH  18  19
HETATM   19  C12 UNK     1      19.107   1.363  29.972  1.00  0.00    -0.036 A 
HETATM   20  C15 UNK     1      19.406   0.689  31.145  1.00  0.00     0.011 A 
HETATM   21  C17 UNK     1      19.881  -0.621  31.077  1.00  0.00     0.001 A 
HETATM   22  C19 UNK     1      20.051  -1.238  29.839  1.00  0.00     0.000 A 
HETATM   23  C18 UNK     1      19.746  -0.547  28.667  1.00  0.00     0.001 A 
HETATM   24  C16 UNK     1      19.271   0.763  28.733  1.00  0.00     0.011 A 
ENDBRANCH  18  19
ENDBRANCH  14  17
ENDBRANCH   6  13
TORSDOF 3
ENDMDL
MODEL 10
REMARK VINA RESULT:      -8.4      2.528      4.180
REMARK  3 active torsions:
REMARK  status: ('A' for Active; 'I' for Inactive)
REMARK       I    between atoms: C11_15  and  N1_4 
REMARK    1  A    between atoms: C4_8  and  N1_4 
REMARK    2  A    between atoms: C11_15  and  C13_17 
REMARK    3  A    between atoms: C12_16  and  C14_18 
ROOT
HETATM    1  O1  UNK     1      18.843  -0.497  33.960  1.00  0.00    -0.275 OA
HETATM    2  O2  UNK     1      18.580   1.176  32.423  1.00  0.00    -0.260 OA
HETATM    3  C1  UNK     1      18.101  -0.136  36.259  1.00  0.00     0.004 A 
HETATM    4  C2  UNK     1      18.678  -0.950  35.283  1.00  0.00     0.092 A 
HETATM    5  C3  UNK     1      17.664   1.216  35.879  1.00  0.00    -0.043 A 
HETATM    6  C4  UNK     1      18.982  -2.748  36.849  1.00  0.00     0.037 A 
HETATM    7  C5  UNK     1      17.972  -0.660  37.551  1.00  0.00     0.017 A 
HETATM    8  C6  UNK     1      19.119  -2.246  35.561  1.00  0.00     0.067 A 
HETATM    9  C7  UNK     1      18.409  -1.957  37.843  1.00  0.00     0.030 A 
HETATM   10  C8  UNK     1      17.834   1.620  34.612  1.00  0.00     0.090 A 
HETATM   11  C9  UNK     1      17.039   2.116  36.904  1.00  0.00     0.049 C 
HETATM   12  C10 UNK     1      18.441   0.771  33.572  1.00  0.00     0.288 A 
ENDROOT
BRANCH   6  13
HETATM   13  N1  UNK     1      19.416  -4.040  37.148  1.00  0.00    -0.324 N 
HETATM   14  C11 UNK     1      20.734  -4.504  37.261  1.00  0.00     0.245 C 
HETATM   15  O3  UNK     1      21.761  -3.851  37.118  1.00  0.00    -0.268 OA
HETATM   16  H8  UNK     1      18.669  -4.715  37.299  1.00  0.00     0.169 HD
BRANCH  14  17
HETATM   17  C13 UNK     1      20.779  -5.961  37.595  1.00  0.00     0.075 C 
HETATM   18  C14 UNK     1      19.647  -6.679  37.620  1.00  0.00     0.017 C 
BRANCH  18  19
HETATM   19  C12 UNK     1      19.575  -8.115  37.944  1.00  0.00    -0.036 A 
HETATM   20  C15 UNK     1      19.158  -9.011  36.972  1.00  0.00     0.011 A 
HETATM   21  C17 UNK     1      19.091 -10.370  37.280  1.00  0.00     0.001 A 
HETATM   22  C19 UNK     1      19.441 -10.814  38.554  1.00  0.00     0.000 A 
HETATM   23  C18 UNK     1      19.858  -9.901  39.522  1.00  0.00     0.001 A 
HETATM   24  C16 UNK     1      19.925  -8.542  39.215  1.00  0.00     0.011 A 
ENDBRANCH  18  19
ENDBRANCH  14  17
ENDBRANCH   6  13
TORSDOF 3
ENDMDL
