MODEL 1
REMARK VINA RESULT:     -10.1      0.000      0.000
REMARK  5 active torsions:
REMARK  status: ('A' for Active; 'I' for Inactive)
REMARK    1  A    between atoms: C13_22  and  O2_3 
REMARK    2  A    between atoms: C14_23  and  O3_4 
REMARK    3  A    between atoms: C16_25  and  O4_5 
REMARK       I    between atoms: C12_21  and  N1_8 
REMARK    4  A    between atoms: C5_14  and  N1_8 
REMARK    5  A    between atoms: C12_21  and  C7_16 
ROOT
HETATM    1  S1  UNK     1      18.030  -0.604  37.296  1.00  0.00    -0.082 SA
HETATM    2  N2  UNK     1      20.918  -2.516  33.564  1.00  0.00    -0.191 NA
HETATM    3  C1  UNK     1      19.289  -2.781  36.770  1.00  0.00     0.004 A 
HETATM    4  C2  UNK     1      19.782  -4.121  36.964  1.00  0.00    -0.021 A 
HETATM    5  C4  UNK     1      19.510  -1.919  35.658  1.00  0.00     0.090 A 
HETATM    6  C5  UNK     1      18.883  -0.726  35.830  1.00  0.00     0.098 A 
HETATM    7  C9  UNK     1      19.032  -5.207  36.518  1.00  0.00     0.052 A 
HETATM    8  C10 UNK     1      18.500  -2.191  37.733  1.00  0.00     0.065 A 
HETATM    9  C11 UNK     1      21.007  -4.324  37.595  1.00  0.00     0.015 A 
HETATM   10  C14 UNK     1      19.511  -6.504  36.705  1.00  0.00     0.102 A 
HETATM   11  C16 UNK     1      20.737  -6.710  37.337  1.00  0.00     0.101 A 
HETATM   12  C18 UNK     1      21.485  -5.620  37.782  1.00  0.00     0.040 A 
HETATM   13  C21 UNK     1      20.288  -2.248  34.502  1.00  0.00     0.103 C 
ENDROOT
BRANCH   6  14
HETATM   14  N1  UNK     1      18.830   0.402  35.005  1.00  0.00    -0.316 N 
HETATM   15  C12 UNK     1      17.742   0.807  34.244  1.00  0.00     0.262 C 
HETATM   16  O5  UNK     1      16.638   0.276  34.140  1.00  0.00    -0.267 OA
HETATM   17  H5  UNK     1      19.679   0.961  35.005  1.00  0.00     0.170 HD
BRANCH  15  18
HETATM   18  C7  UNK     1      18.028   2.035  33.493  1.00  0.00     0.108 A 
HETATM   19  C17 UNK     1      18.403   2.012  32.061  1.00  0.00     0.304 A 
HETATM   20  O1  UNK     1      18.649   3.242  31.459  1.00  0.00    -0.271 OA
HETATM   21  O6  UNK     1      18.492   0.963  31.431  1.00  0.00    -0.259 OA
HETATM   22  C6  UNK     1      18.550   4.452  32.173  1.00  0.00     0.123 A 
HETATM   23  C13 UNK     1      18.816   5.635  31.485  1.00  0.00     0.102 A 
HETATM   24  C3  UNK     1      18.196   4.452  33.519  1.00  0.00     0.002 A 
HETATM   25  C19 UNK     1      18.726   6.847  32.165  1.00  0.00     0.040 A 
HETATM   26  C20 UNK     1      18.373   6.866  33.515  1.00  0.00     0.004 A 
HETATM   27  C15 UNK     1      18.109   5.672  34.193  1.00  0.00     0.014 A 
HETATM   28  C8  UNK     1      17.932   3.182  34.176  1.00  0.00     0.037 A 
BRANCH  23  29
HETATM   29  O2  UNK     1      19.159   5.621  30.169  1.00  0.00    -0.353 OA
HETATM   30  C22 UNK     1      20.517   5.926  29.847  1.00  0.00     0.210 C 
ENDBRANCH  23  29
ENDBRANCH  15  18
ENDBRANCH   6  14
BRANCH  10  31
HETATM   31  O3  UNK     1      18.771  -7.561  36.267  1.00  0.00    -0.353 OA
HETATM   32  C23 UNK     1      17.619  -7.262  35.479  1.00  0.00     0.210 C 
ENDBRANCH  10  31
BRANCH  11  33
HETATM   33  O4  UNK     1      21.214  -7.972  37.525  1.00  0.00    -0.353 OA
HETATM   34  C24 UNK     1      22.063  -8.502  36.509  1.00  0.00     0.210 C 
ENDBRANCH  11  33
TORSDOF 5
ENDMDL
MODEL 2
REMARK VINA RESULT:      -9.6     18.810     21.876
REMARK  5 active torsions:
REMARK  status: ('A' for Active; 'I' for Inactive)
REMARK    1  A    between atoms: C13_22  and  O2_3 
REMARK    2  A    between atoms: C14_23  and  O3_4 
REMARK    3  A    between atoms: C16_25  and  O4_5 
REMARK       I    between atoms: C12_21  and  N1_8 
REMARK    4  A    between atoms: C5_14  and  N1_8 
REMARK    5  A    between atoms: C12_21  and  C7_16 
ROOT
HETATM    1  S1  UNK     1      20.335  -4.359  14.414  1.00  0.00    -0.082 SA
HETATM    2  N2  UNK     1      18.845  -0.583  11.340  1.00  0.00    -0.191 NA
HETATM    3  C1  UNK     1      19.833  -4.003  11.920  1.00  0.00     0.004 A 
HETATM    4  C2  UNK     1      19.690  -4.331  10.524  1.00  0.00    -0.021 A 
HETATM    5  C4  UNK     1      19.608  -2.746  12.551  1.00  0.00     0.090 A 
HETATM    6  C5  UNK     1      19.846  -2.818  13.887  1.00  0.00     0.098 A 
HETATM    7  C9  UNK     1      18.467  -4.790  10.041  1.00  0.00     0.052 A 
HETATM    8  C10 UNK     1      20.232  -4.968  12.817  1.00  0.00     0.065 A 
HETATM    9  C11 UNK     1      20.776  -4.187   9.664  1.00  0.00     0.015 A 
HETATM   10  C14 UNK     1      18.329  -5.106   8.690  1.00  0.00     0.102 A 
HETATM   11  C16 UNK     1      19.415  -4.964   7.827  1.00  0.00     0.101 A 
HETATM   12  C18 UNK     1      20.637  -4.504   8.313  1.00  0.00     0.040 A 
HETATM   13  C21 UNK     1      19.188  -1.552  11.883  1.00  0.00     0.103 C 
ENDROOT
BRANCH   6  14
HETATM   14  N1  UNK     1      19.754  -1.841  14.882  1.00  0.00    -0.316 N 
HETATM   15  C12 UNK     1      18.749  -1.733  15.833  1.00  0.00     0.262 C 
HETATM   16  O5  UNK     1      17.763  -2.451  15.990  1.00  0.00    -0.267 OA
HETATM   17  H5  UNK     1      20.525  -1.177  14.889  1.00  0.00     0.170 HD
BRANCH  15  18
HETATM   18  C7  UNK     1      18.960  -0.588  16.726  1.00  0.00     0.108 A 
HETATM   19  C17 UNK     1      19.164   0.784  16.210  1.00  0.00     0.304 A 
HETATM   20  O1  UNK     1      19.355   1.786  17.157  1.00  0.00    -0.271 OA
HETATM   21  O6  UNK     1      19.166   1.031  15.009  1.00  0.00    -0.259 OA
HETATM   22  C6  UNK     1      19.356   1.513  18.539  1.00  0.00     0.123 A 
HETATM   23  C13 UNK     1      19.555   2.582  19.411  1.00  0.00     0.102 A 
HETATM   24  C3  UNK     1      19.163   0.215  19.003  1.00  0.00     0.002 A 
HETATM   25  C19 UNK     1      19.562   2.342  20.783  1.00  0.00     0.040 A 
HETATM   26  C20 UNK     1      19.370   1.047  21.267  1.00  0.00     0.004 A 
HETATM   27  C15 UNK     1      19.171  -0.016  20.380  1.00  0.00     0.014 A 
HETATM   28  C8  UNK     1      18.960  -0.854  18.038  1.00  0.00     0.037 A 
BRANCH  23  29
HETATM   29  O2  UNK     1      19.742   3.846  18.944  1.00  0.00    -0.353 OA
HETATM   30  C22 UNK     1      21.064   4.201  18.540  1.00  0.00     0.210 C 
ENDBRANCH  23  29
ENDBRANCH  15  18
ENDBRANCH   6  14
BRANCH  10  31
HETATM   31  O3  UNK     1      17.129  -5.556   8.226  1.00  0.00    -0.353 OA
HETATM   32  C23 UNK     1      16.513  -6.620   8.950  1.00  0.00     0.210 C 
ENDBRANCH  10  31
BRANCH  11  33
HETATM   33  O4  UNK     1      19.291  -5.270   6.504  1.00  0.00    -0.353 OA
HETATM   34  C24 UNK     1      19.014  -4.192   5.613  1.00  0.00     0.210 C 
ENDBRANCH  11  33
TORSDOF 5
ENDMDL
MODEL 3
REMARK VINA RESULT:      -9.3      6.607     10.933
REMARK  5 active torsions:
REMARK  status: ('A' for Active; 'I' for Inactive)
REMARK    1  A    between atoms: C13_22  and  O2_3 
REMARK    2  A    between atoms: C14_23  and  O3_4 
REMARK    3  A    between atoms: C16_25  and  O4_5 
REMARK       I    between atoms: C12_21  and  N1_8 
REMARK    4  A    between atoms: C5_14  and  N1_8 
REMARK    5  A    between atoms: C12_21  and  C7_16 
ROOT
HETATM    1  S1  UNK     1      19.781   8.626  34.192  1.00  0.00    -0.082 SA
HETATM    2  N2  UNK     1      15.536   7.750  31.521  1.00  0.00    -0.191 NA
HETATM    3  C1  UNK     1      18.774   6.750  32.754  1.00  0.00     0.004 A 
HETATM    4  C2  UNK     1      18.685   5.474  32.091  1.00  0.00    -0.021 A 
HETATM    5  C4  UNK     1      17.816   7.804  32.756  1.00  0.00     0.090 A 
HETATM    6  C5  UNK     1      18.248   8.860  33.494  1.00  0.00     0.098 A 
HETATM    7  C9  UNK     1      18.122   4.386  32.754  1.00  0.00     0.052 A 
HETATM    8  C10 UNK     1      19.890   7.065  33.497  1.00  0.00     0.065 A 
HETATM    9  C11 UNK     1      19.163   5.334  30.791  1.00  0.00     0.015 A 
HETATM   10  C14 UNK     1      18.036   3.151  32.111  1.00  0.00     0.102 A 
HETATM   11  C16 UNK     1      18.513   3.008  30.809  1.00  0.00     0.101 A 
HETATM   12  C18 UNK     1      19.076   4.100  30.149  1.00  0.00     0.040 A 
HETATM   13  C21 UNK     1      16.557   7.775  32.074  1.00  0.00     0.103 C 
ENDROOT
BRANCH   6  14
HETATM   14  N1  UNK     1      17.642  10.090  33.766  1.00  0.00    -0.316 N 
HETATM   15  C12 UNK     1      16.543  10.296  34.589  1.00  0.00     0.262 C 
HETATM   16  O5  UNK     1      15.897   9.467  35.227  1.00  0.00    -0.267 OA
HETATM   17  H5  UNK     1      18.089  10.885  33.317  1.00  0.00     0.170 HD
BRANCH  15  18
HETATM   18  C7  UNK     1      16.165  11.712  34.651  1.00  0.00     0.108 A 
HETATM   19  C17 UNK     1      17.168  12.787  34.828  1.00  0.00     0.304 A 
HETATM   20  O1  UNK     1      16.685  14.092  34.872  1.00  0.00    -0.271 OA
HETATM   21  O6  UNK     1      18.366  12.545  34.931  1.00  0.00    -0.259 OA
HETATM   22  C6  UNK     1      15.312  14.380  34.756  1.00  0.00     0.123 A 
HETATM   23  C13 UNK     1      14.923  15.717  34.812  1.00  0.00     0.102 A 
HETATM   24  C3  UNK     1      14.385  13.355  34.590  1.00  0.00     0.002 A 
HETATM   25  C19 UNK     1      13.571  16.034  34.700  1.00  0.00     0.040 A 
HETATM   26  C20 UNK     1      12.628  15.019  34.534  1.00  0.00     0.004 A 
HETATM   27  C15 UNK     1      13.032  13.681  34.480  1.00  0.00     0.014 A 
HETATM   28  C8  UNK     1      14.859  11.981  34.540  1.00  0.00     0.037 A 
BRANCH  23  29
HETATM   29  O2  UNK     1      15.839  16.710  34.973  1.00  0.00    -0.353 OA
HETATM   30  C22 UNK     1      15.987  17.253  36.285  1.00  0.00     0.210 C 
ENDBRANCH  23  29
ENDBRANCH  15  18
ENDBRANCH   6  14
BRANCH  10  31
HETATM   31  O3  UNK     1      17.484   2.091  32.767  1.00  0.00    -0.353 OA
HETATM   32  C23 UNK     1      18.175   1.614  33.921  1.00  0.00     0.210 C 
ENDBRANCH  10  31
BRANCH  11  33
HETATM   33  O4  UNK     1      18.434   1.807  30.171  1.00  0.00    -0.353 OA
HETATM   34  C24 UNK     1      17.940   1.814  28.834  1.00  0.00     0.210 C 
ENDBRANCH  11  33
TORSDOF 5
ENDMDL
MODEL 4
REMARK VINA RESULT:      -9.2      6.946     11.204
REMARK  5 active torsions:
REMARK  status: ('A' for Active; 'I' for Inactive)
REMARK    1  A    between atoms: C13_22  and  O2_3 
REMARK    2  A    between atoms: C14_23  and  O3_4 
REMARK    3  A    between atoms: C16_25  and  O4_5 
REMARK       I    between atoms: C12_21  and  N1_8 
REMARK    4  A    between atoms: C5_14  and  N1_8 
REMARK    5  A    between atoms: C12_21  and  C7_16 
ROOT
HETATM    1  S1  UNK     1      18.584   8.983  34.134  1.00  0.00    -0.082 SA
HETATM    2  N2  UNK     1      14.757   7.324  31.215  1.00  0.00    -0.191 NA
HETATM    3  C1  UNK     1      18.080   7.002  32.579  1.00  0.00     0.004 A 
HETATM    4  C2  UNK     1      18.305   5.769  31.867  1.00  0.00    -0.021 A 
HETATM    5  C4  UNK     1      16.913   7.819  32.568  1.00  0.00     0.090 A 
HETATM    6  C5  UNK     1      17.070   8.908  33.365  1.00  0.00     0.098 A 
HETATM    7  C9  UNK     1      17.968   4.555  32.460  1.00  0.00     0.052 A 
HETATM    8  C10 UNK     1      19.066   7.519  33.390  1.00  0.00     0.065 A 
HETATM    9  C11 UNK     1      18.857   5.799  30.589  1.00  0.00     0.015 A 
HETATM   10  C14 UNK     1      18.184   3.362  31.769  1.00  0.00     0.102 A 
HETATM   11  C16 UNK     1      18.738   3.389  30.490  1.00  0.00     0.101 A 
HETATM   12  C18 UNK     1      19.074   4.606  29.899  1.00  0.00     0.040 A 
HETATM   13  C21 UNK     1      15.723   7.547  31.820  1.00  0.00     0.103 C 
ENDROOT
BRANCH   6  14
HETATM   14  N1  UNK     1      16.196   9.962  33.649  1.00  0.00    -0.316 N 
HETATM   15  C12 UNK     1      14.935   9.847  34.219  1.00  0.00     0.262 C 
HETATM   16  O5  UNK     1      14.345   8.830  34.578  1.00  0.00    -0.267 OA
HETATM   17  H5  UNK     1      16.561  10.882  33.421  1.00  0.00     0.170 HD
BRANCH  15  18
HETATM   18  C7  UNK     1      14.286  11.153  34.377  1.00  0.00     0.108 A 
HETATM   19  C17 UNK     1      14.891  12.241  35.178  1.00  0.00     0.304 A 
HETATM   20  O1  UNK     1      14.179  13.434  35.253  1.00  0.00    -0.271 OA
HETATM   21  O6  UNK     1      15.968  12.102  35.750  1.00  0.00    -0.259 OA
HETATM   22  C6  UNK     1      12.942  13.604  34.601  1.00  0.00     0.123 A 
HETATM   23  C13 UNK     1      12.303  14.835  34.733  1.00  0.00     0.102 A 
HETATM   24  C3  UNK     1      12.390  12.569  33.852  1.00  0.00     0.002 A 
HETATM   25  C19 UNK     1      11.078  15.032  34.100  1.00  0.00     0.040 A 
HETATM   26  C20 UNK     1      10.508  14.005  33.346  1.00  0.00     0.004 A 
HETATM   27  C15 UNK     1      11.161  12.775  33.221  1.00  0.00     0.014 A 
HETATM   28  C8  UNK     1      13.110  11.309  33.755  1.00  0.00     0.037 A 
BRANCH  23  29
HETATM   29  O2  UNK     1      12.854  15.839  35.467  1.00  0.00    -0.353 OA
HETATM   30  C22 UNK     1      13.445  16.922  34.748  1.00  0.00     0.210 C 
ENDBRANCH  23  29
ENDBRANCH  15  18
ENDBRANCH   6  14
BRANCH  10  31
HETATM   31  O3  UNK     1      17.853   2.178  32.357  1.00  0.00    -0.353 OA
HETATM   32  C23 UNK     1      18.163   2.035  33.742  1.00  0.00     0.210 C 
ENDBRANCH  10  31
BRANCH  11  33
HETATM   33  O4  UNK     1      18.954   2.230  29.806  1.00  0.00    -0.353 OA
HETATM   34  C24 UNK     1      18.002   1.882  28.803  1.00  0.00     0.210 C 
ENDBRANCH  11  33
TORSDOF 5
ENDMDL
MODEL 5
REMARK VINA RESULT:      -9.0      6.662     11.128
REMARK  5 active torsions:
REMARK  status: ('A' for Active; 'I' for Inactive)
REMARK    1  A    between atoms: C13_22  and  O2_3 
REMARK    2  A    between atoms: C14_23  and  O3_4 
REMARK    3  A    between atoms: C16_25  and  O4_5 
REMARK       I    between atoms: C12_21  and  N1_8 
REMARK    4  A    between atoms: C5_14  and  N1_8 
REMARK    5  A    between atoms: C12_21  and  C7_16 
ROOT
HETATM    1  S1  UNK     1      19.119   8.582  34.541  1.00  0.00    -0.082 SA
HETATM    2  N2  UNK     1      15.139   7.484  31.562  1.00  0.00    -0.191 NA
HETATM    3  C1  UNK     1      18.445   6.792  32.825  1.00  0.00     0.004 A 
HETATM    4  C2  UNK     1      18.565   5.616  32.002  1.00  0.00    -0.021 A 
HETATM    5  C4  UNK     1      17.344   7.692  32.911  1.00  0.00     0.090 A 
HETATM    6  C5  UNK     1      17.594   8.690  33.799  1.00  0.00     0.098 A 
HETATM    7  C9  UNK     1      18.144   4.381  32.490  1.00  0.00     0.052 A 
HETATM    8  C10 UNK     1      19.478   7.158  33.660  1.00  0.00     0.065 A 
HETATM    9  C11 UNK     1      19.101   5.719  30.721  1.00  0.00     0.015 A 
HETATM   10  C14 UNK     1      18.260   3.243  31.692  1.00  0.00     0.102 A 
HETATM   11  C16 UNK     1      18.797   3.344  30.409  1.00  0.00     0.101 A 
HETATM   12  C18 UNK     1      19.217   4.581  29.923  1.00  0.00     0.040 A 
HETATM   13  C21 UNK     1      16.127   7.578  32.165  1.00  0.00     0.103 C 
ENDROOT
BRANCH   6  14
HETATM   14  N1  UNK     1      16.806   9.776  34.193  1.00  0.00    -0.316 N 
HETATM   15  C12 UNK     1      17.144  11.117  34.074  1.00  0.00     0.262 C 
HETATM   16  O5  UNK     1      18.172  11.611  33.614  1.00  0.00    -0.267 OA
HETATM   17  H5  UNK     1      15.902   9.518  34.579  1.00  0.00     0.170 HD
BRANCH  15  18
HETATM   18  C7  UNK     1      16.087  11.994  34.589  1.00  0.00     0.108 A 
HETATM   19  C17 UNK     1      14.717  11.990  34.026  1.00  0.00     0.304 A 
HETATM   20  O1  UNK     1      13.802  12.868  34.599  1.00  0.00    -0.271 OA
HETATM   21  O6  UNK     1      14.400  11.250  33.100  1.00  0.00    -0.259 OA
HETATM   22  C6  UNK     1      14.157  13.722  35.662  1.00  0.00     0.123 A 
HETATM   23  C13 UNK     1      13.172  14.566  36.171  1.00  0.00     0.102 A 
HETATM   24  C3  UNK     1      15.449  13.710  36.177  1.00  0.00     0.002 A 
HETATM   25  C19 UNK     1      13.493  15.422  37.222  1.00  0.00     0.040 A 
HETATM   26  C20 UNK     1      14.785  15.425  37.750  1.00  0.00     0.004 A 
HETATM   27  C15 UNK     1      15.763  14.572  37.230  1.00  0.00     0.014 A 
HETATM   28  C8  UNK     1      16.429  12.804  35.599  1.00  0.00     0.037 A 
BRANCH  23  29
HETATM   29  O2  UNK     1      11.911  14.566  35.659  1.00  0.00    -0.353 OA
HETATM   30  C22 UNK     1      11.508  15.721  34.922  1.00  0.00     0.210 C 
ENDBRANCH  23  29
ENDBRANCH  15  18
ENDBRANCH   6  14
BRANCH  10  31
HETATM   31  O3  UNK     1      17.847   2.039  32.178  1.00  0.00    -0.353 OA
HETATM   32  C23 UNK     1      18.185   1.738  33.532  1.00  0.00     0.210 C 
ENDBRANCH  10  31
BRANCH  11  33
HETATM   33  O4  UNK     1      18.915   2.239  29.621  1.00  0.00    -0.353 OA
HETATM   34  C24 UNK     1      17.889   2.019  28.655  1.00  0.00     0.210 C 
ENDBRANCH  11  33
TORSDOF 5
ENDMDL
MODEL 6
REMARK VINA RESULT:      -8.8      9.274     12.964
REMARK  5 active torsions:
REMARK  status: ('A' for Active; 'I' for Inactive)
REMARK    1  A    between atoms: C13_22  and  O2_3 
REMARK    2  A    between atoms: C14_23  and  O3_4 
REMARK    3  A    between atoms: C16_25  and  O4_5 
REMARK       I    between atoms: C12_21  and  N1_8 
REMARK    4  A    between atoms: C5_14  and  N1_8 
REMARK    5  A    between atoms: C12_21  and  C7_16 
ROOT
HETATM    1  S1  UNK     1      27.232 -10.199  39.234  1.00  0.00    -0.082 SA
HETATM    2  N2  UNK     1      27.679  -6.684  35.578  1.00  0.00    -0.191 NA
HETATM    3  C1  UNK     1      29.103  -8.928  38.017  1.00  0.00     0.004 A 
HETATM    4  C2  UNK     1      30.443  -8.523  37.677  1.00  0.00    -0.021 A 
HETATM    5  C4  UNK     1      27.879  -8.463  37.454  1.00  0.00     0.090 A 
HETATM    6  C5  UNK     1      26.811  -9.075  38.030  1.00  0.00     0.098 A 
HETATM    7  C9  UNK     1      31.140  -9.202  36.679  1.00  0.00     0.052 A 
HETATM    8  C10 UNK     1      28.896  -9.874  38.996  1.00  0.00     0.065 A 
HETATM    9  C11 UNK     1      31.036  -7.456  38.346  1.00  0.00     0.015 A 
HETATM   10  C14 UNK     1      32.437  -8.809  36.350  1.00  0.00     0.102 A 
HETATM   11  C16 UNK     1      33.033  -7.741  37.019  1.00  0.00     0.101 A 
HETATM   12  C18 UNK     1      32.333  -7.064  38.017  1.00  0.00     0.040 A 
HETATM   13  C21 UNK     1      27.768  -7.481  36.419  1.00  0.00     0.103 C 
ENDROOT
BRANCH   6  14
HETATM   14  N1  UNK     1      25.441  -8.929  37.793  1.00  0.00    -0.316 N 
HETATM   15  C12 UNK     1      24.673  -9.704  36.935  1.00  0.00     0.262 C 
HETATM   16  O5  UNK     1      25.026 -10.647  36.229  1.00  0.00    -0.267 OA
HETATM   17  H5  UNK     1      25.000  -8.189  38.332  1.00  0.00     0.170 HD
BRANCH  15  18
HETATM   18  C7  UNK     1      23.269  -9.278  36.923  1.00  0.00     0.108 A 
HETATM   19  C17 UNK     1      22.300  -9.789  35.927  1.00  0.00     0.304 A 
HETATM   20  O1  UNK     1      20.996  -9.310  36.019  1.00  0.00    -0.271 OA
HETATM   21  O6  UNK     1      22.625 -10.596  35.062  1.00  0.00    -0.259 OA
HETATM   22  C6  UNK     1      20.613  -8.383  37.009  1.00  0.00     0.123 A 
HETATM   23  C13 UNK     1      19.285  -7.961  37.022  1.00  0.00     0.102 A 
HETATM   24  C3  UNK     1      21.540  -7.915  37.935  1.00  0.00     0.002 A 
HETATM   25  C19 UNK     1      18.877  -7.044  37.988  1.00  0.00     0.040 A 
HETATM   26  C20 UNK     1      19.793  -6.563  38.925  1.00  0.00     0.004 A 
HETATM   27  C15 UNK     1      21.122  -6.995  38.900  1.00  0.00     0.014 A 
HETATM   28  C8  UNK     1      22.910  -8.397  37.865  1.00  0.00     0.037 A 
BRANCH  23  29
HETATM   29  O2  UNK     1      18.389  -8.428  36.111  1.00  0.00    -0.353 OA
HETATM   30  C22 UNK     1      17.606  -7.459  35.413  1.00  0.00     0.210 C 
ENDBRANCH  23  29
ENDBRANCH  15  18
ENDBRANCH   6  14
BRANCH  10  31
HETATM   31  O3  UNK     1      33.112  -9.479  35.374  1.00  0.00    -0.353 OA
HETATM   32  C23 UNK     1      32.328 -10.184  34.412  1.00  0.00     0.210 C 
ENDBRANCH  10  31
BRANCH  11  33
HETATM   33  O4  UNK     1      34.300  -7.349  36.705  1.00  0.00    -0.353 OA
HETATM   34  C24 UNK     1      34.644  -5.992  36.975  1.00  0.00     0.210 C 
ENDBRANCH  11  33
TORSDOF 5
ENDMDL
MODEL 7
REMARK VINA RESULT:      -8.8      1.734      2.226
REMARK  5 active torsions:
REMARK  status: ('A' for Active; 'I' for Inactive)
REMARK    1  A    between atoms: C13_22  and  O2_3 
REMARK    2  A    between atoms: C14_23  and  O3_4 
REMARK    3  A    between atoms: C16_25  and  O4_5 
REMARK       I    between atoms: C12_21  and  N1_8 
REMARK    4  A    between atoms: C5_14  and  N1_8 
REMARK    5  A    between atoms: C12_21  and  C7_16 
ROOT
HETATM    1  S1  UNK     1      17.445  -1.676  36.829  1.00  0.00    -0.082 SA
HETATM    2  N2  UNK     1      22.147  -1.913  34.891  1.00  0.00    -0.191 NA
HETATM    3  C1  UNK     1      19.344  -3.392  36.612  1.00  0.00     0.004 A 
HETATM    4  C2  UNK     1      20.034  -4.649  36.755  1.00  0.00    -0.021 A 
HETATM    5  C4  UNK     1      19.817  -2.199  35.992  1.00  0.00     0.090 A 
HETATM    6  C5  UNK     1      18.883  -1.214  36.049  1.00  0.00     0.098 A 
HETATM    7  C9  UNK     1      19.912  -5.623  35.766  1.00  0.00     0.052 A 
HETATM    8  C10 UNK     1      18.068  -3.245  37.109  1.00  0.00     0.065 A 
HETATM    9  C11 UNK     1      20.820  -4.884  37.880  1.00  0.00     0.015 A 
HETATM   10  C14 UNK     1      20.581  -6.839  35.905  1.00  0.00     0.102 A 
HETATM   11  C16 UNK     1      21.369  -7.077  37.031  1.00  0.00     0.101 A 
HETATM   12  C18 UNK     1      21.488  -6.100  38.018  1.00  0.00     0.040 A 
HETATM   13  C21 UNK     1      21.103  -2.041  35.385  1.00  0.00     0.103 C 
ENDROOT
BRANCH   6  14
HETATM   14  N1  UNK     1      18.918   0.101  35.576  1.00  0.00    -0.316 N 
HETATM   15  C12 UNK     1      18.188   0.605  34.507  1.00  0.00     0.262 C 
HETATM   16  O5  UNK     1      17.388   0.019  33.780  1.00  0.00    -0.267 OA
HETATM   17  H5  UNK     1      19.531   0.719  36.101  1.00  0.00     0.170 HD
BRANCH  15  18
HETATM   18  C7  UNK     1      18.465   2.028  34.279  1.00  0.00     0.108 A 
HETATM   19  C17 UNK     1      19.100   2.881  35.309  1.00  0.00     0.304 A 
HETATM   20  O1  UNK     1      19.311   4.215  34.974  1.00  0.00    -0.271 OA
HETATM   21  O6  UNK     1      19.425   2.438  36.406  1.00  0.00    -0.259 OA
HETATM   22  C6  UNK     1      18.940   4.733  33.717  1.00  0.00     0.123 A 
HETATM   23  C13 UNK     1      19.192   6.081  33.472  1.00  0.00     0.102 A 
HETATM   24  C3  UNK     1      18.345   3.914  32.763  1.00  0.00     0.002 A 
HETATM   25  C19 UNK     1      18.835   6.622  32.239  1.00  0.00     0.040 A 
HETATM   26  C20 UNK     1      18.237   5.816  31.269  1.00  0.00     0.004 A 
HETATM   27  C15 UNK     1      17.990   4.464  31.529  1.00  0.00     0.014 A 
HETATM   28  C8  UNK     1      18.111   2.515  33.084  1.00  0.00     0.037 A 
BRANCH  23  29
HETATM   29  O2  UNK     1      19.776   6.871  34.414  1.00  0.00    -0.353 OA
HETATM   30  C22 UNK     1      19.539   8.276  34.322  1.00  0.00     0.210 C 
ENDBRANCH  23  29
ENDBRANCH  15  18
ENDBRANCH   6  14
BRANCH  10  31
HETATM   31  O3  UNK     1      20.456  -7.787  34.934  1.00  0.00    -0.353 OA
HETATM   32  C23 UNK     1      20.819  -7.406  33.607  1.00  0.00     0.210 C 
ENDBRANCH  10  31
BRANCH  11  33
HETATM   33  O4  UNK     1      22.026  -8.261  37.176  1.00  0.00    -0.353 OA
HETATM   34  C24 UNK     1      21.437  -9.228  38.043  1.00  0.00     0.210 C 
ENDBRANCH  11  33
TORSDOF 5
ENDMDL
MODEL 8
REMARK VINA RESULT:      -8.7      5.183     12.425
REMARK  5 active torsions:
REMARK  status: ('A' for Active; 'I' for Inactive)
REMARK    1  A    between atoms: C13_22  and  O2_3 
REMARK    2  A    between atoms: C14_23  and  O3_4 
REMARK    3  A    between atoms: C16_25  and  O4_5 
REMARK       I    between atoms: C12_21  and  N1_8 
REMARK    4  A    between atoms: C5_14  and  N1_8 
REMARK    5  A    between atoms: C12_21  and  C7_16 
ROOT
HETATM    1  S1  UNK     1      14.730   7.188  31.932  1.00  0.00    -0.082 SA
HETATM    2  N2  UNK     1      18.557   7.806  35.233  1.00  0.00    -0.191 NA
HETATM    3  C1  UNK     1      15.557   8.961  33.597  1.00  0.00     0.004 A 
HETATM    4  C2  UNK     1      15.578  10.201  34.330  1.00  0.00    -0.021 A 
HETATM    5  C4  UNK     1      16.481   7.880  33.680  1.00  0.00     0.090 A 
HETATM    6  C5  UNK     1      16.137   6.874  32.833  1.00  0.00     0.098 A 
HETATM    7  C9  UNK     1      14.919  10.294  35.554  1.00  0.00     0.052 A 
HETATM    8  C10 UNK     1      14.556   8.716  32.684  1.00  0.00     0.065 A 
HETATM    9  C11 UNK     1      16.257  11.301  33.812  1.00  0.00     0.015 A 
HETATM   10  C14 UNK     1      14.940  11.494  36.264  1.00  0.00     0.102 A 
HETATM   11  C16 UNK     1      15.618  12.598  35.747  1.00  0.00     0.101 A 
HETATM   12  C18 UNK     1      16.277  12.501  34.522  1.00  0.00     0.040 A 
HETATM   13  C21 UNK     1      17.627   7.839  34.537  1.00  0.00     0.103 C 
ENDROOT
BRANCH   6  14
HETATM   14  N1  UNK     1      16.748   5.641  32.588  1.00  0.00    -0.316 N 
HETATM   15  C12 UNK     1      17.855   5.423  31.779  1.00  0.00     0.262 C 
HETATM   16  O5  UNK     1      18.504   6.242  31.131  1.00  0.00    -0.267 OA
HETATM   17  H5  UNK     1      16.326   4.859  33.082  1.00  0.00     0.170 HD
BRANCH  15  18
HETATM   18  C7  UNK     1      18.235   4.007  31.743  1.00  0.00     0.108 A 
HETATM   19  C17 UNK     1      18.313   3.181  32.970  1.00  0.00     0.304 A 
HETATM   20  O1  UNK     1      18.685   1.851  32.807  1.00  0.00    -0.271 OA
HETATM   21  O6  UNK     1      18.063   3.644  34.078  1.00  0.00    -0.259 OA
HETATM   22  C6  UNK     1      18.975   1.310  31.539  1.00  0.00     0.123 A 
HETATM   23  C13 UNK     1      19.339  -0.033  31.474  1.00  0.00     0.102 A 
HETATM   24  C3  UNK     1      18.896   2.103  30.397  1.00  0.00     0.002 A 
HETATM   25  C19 UNK     1      19.633  -0.595  30.234  1.00  0.00     0.040 A 
HETATM   26  C20 UNK     1      19.559   0.184  29.079  1.00  0.00     0.004 A 
HETATM   27  C15 UNK     1      19.193   1.531  29.158  1.00  0.00     0.014 A 
HETATM   28  C8  UNK     1      18.510   3.498  30.536  1.00  0.00     0.037 A 
BRANCH  23  29
HETATM   29  O2  UNK     1      19.411  -0.798  32.598  1.00  0.00    -0.353 OA
HETATM   30  C22 UNK     1      20.142  -2.021  32.507  1.00  0.00     0.210 C 
ENDBRANCH  23  29
ENDBRANCH  15  18
ENDBRANCH   6  14
BRANCH  10  31
HETATM   31  O3  UNK     1      14.291  11.577  37.460  1.00  0.00    -0.353 OA
HETATM   32  C23 UNK     1      12.906  11.916  37.423  1.00  0.00     0.210 C 
ENDBRANCH  10  31
BRANCH  11  33
HETATM   33  O4  UNK     1      15.645  13.775  36.433  1.00  0.00    -0.353 OA
HETATM   34  C24 UNK     1      14.792  14.817  35.964  1.00  0.00     0.210 C 
ENDBRANCH  11  33
TORSDOF 5
ENDMDL
MODEL 9
REMARK VINA RESULT:      -8.6      8.903     13.009
REMARK  5 active torsions:
REMARK  status: ('A' for Active; 'I' for Inactive)
REMARK    1  A    between atoms: C13_22  and  O2_3 
REMARK    2  A    between atoms: C14_23  and  O3_4 
REMARK    3  A    between atoms: C16_25  and  O4_5 
REMARK       I    between atoms: C12_21  and  N1_8 
REMARK    4  A    between atoms: C5_14  and  N1_8 
REMARK    5  A    between atoms: C12_21  and  C7_16 
ROOT
HETATM    1  S1  UNK     1      27.254 -10.080  39.635  1.00  0.00    -0.082 SA
HETATM    2  N2  UNK     1      27.583  -6.655  35.882  1.00  0.00    -0.191 NA
HETATM    3  C1  UNK     1      29.082  -8.936  38.239  1.00  0.00     0.004 A 
HETATM    4  C2  UNK     1      30.409  -8.614  37.779  1.00  0.00    -0.021 A 
HETATM    5  C4  UNK     1      27.842  -8.412  37.772  1.00  0.00     0.090 A 
HETATM    6  C5  UNK     1      26.795  -8.953  38.447  1.00  0.00     0.098 A 
HETATM    7  C9  UNK     1      30.980  -9.347  36.741  1.00  0.00     0.052 A 
HETATM    8  C10 UNK     1      28.907  -9.853  39.251  1.00  0.00     0.065 A 
HETATM    9  C11 UNK     1      31.114  -7.572  38.374  1.00  0.00     0.015 A 
HETATM   10  C14 UNK     1      32.264  -9.034  36.296  1.00  0.00     0.102 A 
HETATM   11  C16 UNK     1      32.973  -7.991  36.891  1.00  0.00     0.101 A 
HETATM   12  C18 UNK     1      32.398  -7.260  37.929  1.00  0.00     0.040 A 
HETATM   13  C21 UNK     1      27.699  -7.442  36.729  1.00  0.00     0.103 C 
ENDROOT
BRANCH   6  14
HETATM   14  N1  UNK     1      25.420  -8.733  38.322  1.00  0.00    -0.316 N 
HETATM   15  C12 UNK     1      24.758  -7.537  38.563  1.00  0.00     0.262 C 
HETATM   16  O5  UNK     1      25.227  -6.460  38.925  1.00  0.00    -0.267 OA
HETATM   17  H5  UNK     1      24.894  -9.543  38.005  1.00  0.00     0.170 HD
BRANCH  15  18
HETATM   18  C7  UNK     1      23.313  -7.657  38.336  1.00  0.00     0.108 A 
HETATM   19  C17 UNK     1      22.409  -6.486  38.390  1.00  0.00     0.304 A 
HETATM   20  O1  UNK     1      21.058  -6.728  38.158  1.00  0.00    -0.271 OA
HETATM   21  O6  UNK     1      22.824  -5.357  38.627  1.00  0.00    -0.259 OA
HETATM   22  C6  UNK     1      20.570  -8.021  37.885  1.00  0.00     0.123 A 
HETATM   23  C13 UNK     1      19.202  -8.165  37.666  1.00  0.00     0.102 A 
HETATM   24  C3  UNK     1      21.438  -9.109  37.839  1.00  0.00     0.002 A 
HETATM   25  C19 UNK     1      18.690  -9.432  37.394  1.00  0.00     0.040 A 
HETATM   26  C20 UNK     1      19.545 -10.535  37.345  1.00  0.00     0.004 A 
HETATM   27  C15 UNK     1      20.916 -10.375  37.567  1.00  0.00     0.014 A 
HETATM   28  C8  UNK     1      22.855  -8.888  38.078  1.00  0.00     0.037 A 
BRANCH  23  29
HETATM   29  O2  UNK     1      18.365  -7.093  37.712  1.00  0.00    -0.353 OA
HETATM   30  C22 UNK     1      17.814  -6.643  36.474  1.00  0.00     0.210 C 
ENDBRANCH  23  29
ENDBRANCH  15  18
ENDBRANCH   6  14
BRANCH  10  31
HETATM   31  O3  UNK     1      32.816  -9.757  35.281  1.00  0.00    -0.353 OA
HETATM   32  C23 UNK     1      31.964 -10.684  34.609  1.00  0.00     0.210 C 
ENDBRANCH  10  31
BRANCH  11  33
HETATM   33  O4  UNK     1      34.228  -7.677  36.464  1.00  0.00    -0.353 OA
HETATM   34  C24 UNK     1      34.647  -6.323  36.621  1.00  0.00     0.210 C 
ENDBRANCH  11  33
TORSDOF 5
ENDMDL
MODEL 10
REMARK VINA RESULT:      -8.6     26.046     28.901
REMARK  5 active torsions:
REMARK  status: ('A' for Active; 'I' for Inactive)
REMARK    1  A    between atoms: C13_22  and  O2_3 
REMARK    2  A    between atoms: C14_23  and  O3_4 
REMARK    3  A    between atoms: C16_25  and  O4_5 
REMARK       I    between atoms: C12_21  and  N1_8 
REMARK    4  A    between atoms: C5_14  and  N1_8 
REMARK    5  A    between atoms: C12_21  and  C7_16 
ROOT
HETATM    1  S1  UNK     1      15.186  12.843   8.730  1.00  0.00    -0.082 SA
HETATM    2  N2  UNK     1      17.490   8.417   9.744  1.00  0.00    -0.191 NA
HETATM    3  C1  UNK     1      17.540  11.998   9.317  1.00  0.00     0.004 A 
HETATM    4  C2  UNK     1      18.952  12.059   9.598  1.00  0.00    -0.021 A 
HETATM    5  C4  UNK     1      16.703  10.846   9.286  1.00  0.00     0.090 A 
HETATM    6  C5  UNK     1      15.421  11.179   8.982  1.00  0.00     0.098 A 
HETATM    7  C9  UNK     1      19.391  12.232  10.909  1.00  0.00     0.052 A 
HETATM    8  C10 UNK     1      16.843  13.151   9.032  1.00  0.00     0.065 A 
HETATM    9  C11 UNK     1      19.871  11.945   8.559  1.00  0.00     0.015 A 
HETATM   10  C14 UNK     1      20.758  12.291  11.181  1.00  0.00     0.102 A 
HETATM   11  C16 UNK     1      21.680  12.177  10.142  1.00  0.00     0.101 A 
HETATM   12  C18 UNK     1      21.238  12.004   8.831  1.00  0.00     0.040 A 
HETATM   13  C21 UNK     1      17.137   9.505   9.538  1.00  0.00     0.103 C 
ENDROOT
BRANCH   6  14
HETATM   14  N1  UNK     1      14.282  10.381   8.846  1.00  0.00    -0.316 N 
HETATM   15  C12 UNK     1      13.682   9.633   9.850  1.00  0.00     0.262 C 
HETATM   16  O5  UNK     1      14.018   9.520  11.027  1.00  0.00    -0.267 OA
HETATM   17  H5  UNK     1      13.872  10.391   7.915  1.00  0.00     0.170 HD
BRANCH  15  18
HETATM   18  C7  UNK     1      12.502   8.910   9.362  1.00  0.00     0.108 A 
HETATM   19  C17 UNK     1      11.207   8.943  10.080  1.00  0.00     0.304 A 
HETATM   20  O1  UNK     1      10.161   8.217   9.518  1.00  0.00    -0.271 OA
HETATM   21  O6  UNK     1      11.059   9.577  11.119  1.00  0.00    -0.259 OA
HETATM   22  C6  UNK     1      10.322   7.484   8.325  1.00  0.00     0.123 A 
HETATM   23  C13 UNK     1       9.217   6.788   7.839  1.00  0.00     0.102 A 
HETATM   24  C3  UNK     1      11.547   7.467   7.666  1.00  0.00     0.002 A 
HETATM   25  C19 UNK     1       9.346   6.054   6.661  1.00  0.00     0.040 A 
HETATM   26  C20 UNK     1      10.567   6.024   5.987  1.00  0.00     0.004 A 
HETATM   27  C15 UNK     1      11.667   6.728   6.487  1.00  0.00     0.014 A 
HETATM   28  C8  UNK     1      12.660   8.216   8.229  1.00  0.00     0.037 A 
BRANCH  23  29
HETATM   29  O2  UNK     1       8.024   6.815   8.492  1.00  0.00    -0.353 OA
HETATM   30  C22 UNK     1       7.655   5.644   9.221  1.00  0.00     0.210 C 
ENDBRANCH  23  29
ENDBRANCH  15  18
ENDBRANCH   6  14
BRANCH  10  31
HETATM   31  O3  UNK     1      21.178  12.461  12.466  1.00  0.00    -0.353 OA
HETATM   32  C23 UNK     1      20.206  12.905  13.411  1.00  0.00     0.210 C 
ENDBRANCH  10  31
BRANCH  11  33
HETATM   33  O4  UNK     1      23.018  12.233  10.396  1.00  0.00    -0.353 OA
HETATM   34  C24 UNK     1      23.637  13.516  10.331  1.00  0.00     0.210 C 
ENDBRANCH  11  33
TORSDOF 5
ENDMDL
