MODEL 1
REMARK VINA RESULT:      -8.5      0.000      0.000
REMARK  6 active torsions:
REMARK  status: ('A' for Active; 'I' for Inactive)
REMARK    1  A    between atoms: C13_20  and  S1_1 
REMARK       I    between atoms: C16_23  and  N1_7 
REMARK    2  A    between atoms: C2_9  and  N1_7 
REMARK    3  A    between atoms: C1_8  and  C8_15 
REMARK    4  A    between atoms: C5_12  and  C9_16 
REMARK    5  A    between atoms: C10_17  and  C8_15 
REMARK    6  A    between atoms: C16_23  and  C17_24 
ROOT
HETATM    1  C1  UNK     1      19.346  -2.000  35.286  1.00  0.00     0.014 A 
HETATM    2  C2  UNK     1      18.954  -0.794  32.833  1.00  0.00     0.035 A 
HETATM    3  C3  UNK     1      18.447  -0.956  35.190  1.00  0.00     0.018 A 
HETATM    4  C4  UNK     1      20.055  -2.460  34.194  1.00  0.00     0.018 A 
HETATM    5  C6  UNK     1      18.249  -0.347  33.951  1.00  0.00     0.030 A 
HETATM    6  C7  UNK     1      19.857  -1.850  32.955  1.00  0.00     0.030 A 
ENDROOT
BRANCH   1   7
HETATM    7  C8  UNK     1      19.556  -2.648  36.603  1.00  0.00     0.182 C 
HETATM    8  O1  UNK     1      19.290  -2.035  37.632  1.00  0.00    -0.288 OA
BRANCH   7   9
HETATM    9  C10 UNK     1      20.120  -4.026  36.614  1.00  0.00     0.056 C 
HETATM   10  C9  UNK     1      19.299  -5.100  36.608  1.00  0.00     0.015 C 
BRANCH  10  11
HETATM   11  C5  UNK     1      19.735  -6.487  36.635  1.00  0.00    -0.036 A 
HETATM   12  C11 UNK     1      20.463  -7.011  35.567  1.00  0.00     0.012 A 
HETATM   13  C14 UNK     1      20.880  -8.342  35.593  1.00  0.00     0.019 A 
HETATM   14  C13 UNK     1      20.568  -9.150  36.686  1.00  0.00    -0.000 A 
HETATM   15  C15 UNK     1      19.839  -8.627  37.754  1.00  0.00     0.019 A 
HETATM   16  C12 UNK     1      19.423  -7.295  37.729  1.00  0.00     0.012 A 
BRANCH  14  17
HETATM   17  S1  UNK     1      21.099 -10.850  36.718  1.00  0.00    -0.134 SA
HETATM   18  C18 UNK     1      22.680 -10.761  35.831  1.00  0.00     0.095 C 
ENDBRANCH  14  17
ENDBRANCH  10  11
ENDBRANCH   7   9
ENDBRANCH   1   7
BRANCH   2  19
HETATM   19  N1  UNK     1      18.756  -0.185  31.594  1.00  0.00    -0.320 N 
HETATM   20  C16 UNK     1      19.724   0.279  30.694  1.00  0.00     0.330 C 
HETATM   21  O2  UNK     1      20.943   0.243  30.825  1.00  0.00    -0.263 OA
HETATM   22  H9  UNK     1      17.784  -0.069  31.317  1.00  0.00     0.169 HD
BRANCH  20  23
HETATM   23  C17 UNK     1      19.096   0.873  29.465  1.00  0.00     0.472 C 
HETATM   24  F1  UNK     1      19.392   2.190  29.327  1.00  0.00    -0.162 F 
HETATM   25  F2  UNK     1      19.517   0.253  28.332  1.00  0.00    -0.162 F 
HETATM   26  F3  UNK     1      17.743   0.776  29.484  1.00  0.00    -0.162 F 
ENDBRANCH  20  23
ENDBRANCH   2  19
TORSDOF 6
ENDMDL
MODEL 2
REMARK VINA RESULT:      -8.1      6.981     11.331
REMARK  6 active torsions:
REMARK  status: ('A' for Active; 'I' for Inactive)
REMARK    1  A    between atoms: C13_20  and  S1_1 
REMARK       I    between atoms: C16_23  and  N1_7 
REMARK    2  A    between atoms: C2_9  and  N1_7 
REMARK    3  A    between atoms: C1_8  and  C8_15 
REMARK    4  A    between atoms: C5_12  and  C9_16 
REMARK    5  A    between atoms: C10_17  and  C8_15 
REMARK    6  A    between atoms: C16_23  and  C17_24 
ROOT
HETATM    1  C1  UNK     1      18.667   1.190  32.088  1.00  0.00     0.014 A 
HETATM    2  C2  UNK     1      18.917  -0.960  33.800  1.00  0.00     0.035 A 
HETATM    3  C3  UNK     1      18.295   1.341  33.409  1.00  0.00     0.018 A 
HETATM    4  C4  UNK     1      19.160  -0.002  31.596  1.00  0.00     0.018 A 
HETATM    5  C6  UNK     1      18.422   0.255  34.274  1.00  0.00     0.030 A 
HETATM    6  C7  UNK     1      19.286  -1.088  32.461  1.00  0.00     0.030 A 
ENDROOT
BRANCH   1   7
HETATM    7  C8  UNK     1      18.533   2.347  31.168  1.00  0.00     0.182 C 
HETATM    8  O1  UNK     1      18.935   2.254  30.013  1.00  0.00    -0.288 OA
BRANCH   7   9
HETATM    9  C10 UNK     1      17.935   3.597  31.711  1.00  0.00     0.056 C 
HETATM   10  C9  UNK     1      18.688   4.713  31.845  1.00  0.00     0.015 C 
BRANCH  10  11
HETATM   11  C5  UNK     1      18.218   5.981  32.377  1.00  0.00    -0.036 A 
HETATM   12  C11 UNK     1      19.129   6.895  32.909  1.00  0.00     0.012 A 
HETATM   13  C14 UNK     1      18.677   8.112  33.420  1.00  0.00     0.019 A 
HETATM   14  C13 UNK     1      17.316   8.415  33.401  1.00  0.00    -0.000 A 
HETATM   15  C15 UNK     1      16.406   7.502  32.871  1.00  0.00     0.019 A 
HETATM   16  C12 UNK     1      16.856   6.285  32.358  1.00  0.00     0.012 A 
BRANCH  14  17
HETATM   17  S1  UNK     1      16.741   9.969  34.056  1.00  0.00    -0.134 SA
HETATM   18  C18 UNK     1      15.077   9.533  34.636  1.00  0.00     0.095 C 
ENDBRANCH  14  17
ENDBRANCH  10  11
ENDBRANCH   7   9
ENDBRANCH   1   7
BRANCH   2  19
HETATM   19  N1  UNK     1      19.044  -2.048  34.665  1.00  0.00    -0.320 N 
HETATM   20  C16 UNK     1      20.197  -2.507  35.314  1.00  0.00     0.330 C 
HETATM   21  O2  UNK     1      21.329  -2.040  35.244  1.00  0.00    -0.263 OA
HETATM   22  H9  UNK     1      18.186  -2.566  34.840  1.00  0.00     0.169 HD
BRANCH  20  23
HETATM   23  C17 UNK     1      19.910  -3.713  36.163  1.00  0.00     0.472 C 
HETATM   24  F1  UNK     1      19.972  -4.866  35.450  1.00  0.00    -0.162 F 
HETATM   25  F2  UNK     1      20.795  -3.834  37.186  1.00  0.00    -0.162 F 
HETATM   26  F3  UNK     1      18.674  -3.664  36.720  1.00  0.00    -0.162 F 
ENDBRANCH  20  23
ENDBRANCH   2  19
TORSDOF 6
ENDMDL
MODEL 3
REMARK VINA RESULT:      -8.1      8.028     12.607
REMARK  6 active torsions:
REMARK  status: ('A' for Active; 'I' for Inactive)
REMARK    1  A    between atoms: C13_20  and  S1_1 
REMARK       I    between atoms: C16_23  and  N1_7 
REMARK    2  A    between atoms: C2_9  and  N1_7 
REMARK    3  A    between atoms: C1_8  and  C8_15 
REMARK    4  A    between atoms: C5_12  and  C9_16 
REMARK    5  A    between atoms: C10_17  and  C8_15 
REMARK    6  A    between atoms: C16_23  and  C17_24 
ROOT
HETATM    1  C1  UNK     1      18.559   4.699  31.017  1.00  0.00     0.014 A 
HETATM    2  C2  UNK     1      18.678   1.971  31.420  1.00  0.00     0.035 A 
HETATM    3  C3  UNK     1      18.279   4.195  32.272  1.00  0.00     0.018 A 
HETATM    4  C4  UNK     1      18.897   3.881  29.958  1.00  0.00     0.018 A 
HETATM    5  C6  UNK     1      18.339   2.818  32.475  1.00  0.00     0.030 A 
HETATM    6  C7  UNK     1      18.956   2.503  30.160  1.00  0.00     0.030 A 
ENDROOT
BRANCH   1   7
HETATM    7  C8  UNK     1      18.496   6.166  30.802  1.00  0.00     0.182 C 
HETATM    8  O1  UNK     1      18.904   6.643  29.748  1.00  0.00    -0.288 OA
BRANCH   7   9
HETATM    9  C10 UNK     1      17.959   7.005  31.908  1.00  0.00     0.056 C 
HETATM   10  C9  UNK     1      16.749   7.598  31.790  1.00  0.00     0.015 C 
BRANCH  10  11
HETATM   11  C5  UNK     1      16.133   8.451  32.794  1.00  0.00    -0.036 A 
HETATM   12  C11 UNK     1      14.745   8.475  32.932  1.00  0.00     0.012 A 
HETATM   13  C14 UNK     1      14.154   9.294  33.895  1.00  0.00     0.019 A 
HETATM   14  C13 UNK     1      14.951  10.090  34.718  1.00  0.00    -0.000 A 
HETATM   15  C15 UNK     1      16.338  10.066  34.579  1.00  0.00     0.019 A 
HETATM   16  C12 UNK     1      16.929   9.247  33.618  1.00  0.00     0.012 A 
BRANCH  14  17
HETATM   17  S1  UNK     1      14.195  11.137  35.946  1.00  0.00    -0.134 SA
HETATM   18  C18 UNK     1      15.301  12.576  35.937  1.00  0.00     0.095 C 
ENDBRANCH  14  17
ENDBRANCH  10  11
ENDBRANCH   7   9
ENDBRANCH   1   7
BRANCH   2  19
HETATM   19  N1  UNK     1      18.738   0.592  31.622  1.00  0.00    -0.320 N 
HETATM   20  C16 UNK     1      19.832  -0.263  31.438  1.00  0.00     0.330 C 
HETATM   21  O2  UNK     1      20.958   0.039  31.056  1.00  0.00    -0.263 OA
HETATM   22  H9  UNK     1      17.874   0.162  31.944  1.00  0.00     0.169 HD
BRANCH  20  23
HETATM   23  C17 UNK     1      19.484  -1.687  31.768  1.00  0.00     0.472 C 
HETATM   24  F1  UNK     1      20.291  -2.199  32.731  1.00  0.00    -0.162 F 
HETATM   25  F2  UNK     1      18.208  -1.804  32.218  1.00  0.00    -0.162 F 
HETATM   26  F3  UNK     1      19.595  -2.502  30.689  1.00  0.00    -0.162 F 
ENDBRANCH  20  23
ENDBRANCH   2  19
TORSDOF 6
ENDMDL
MODEL 4
REMARK VINA RESULT:      -8.1      6.195      9.198
REMARK  6 active torsions:
REMARK  status: ('A' for Active; 'I' for Inactive)
REMARK    1  A    between atoms: C13_20  and  S1_1 
REMARK       I    between atoms: C16_23  and  N1_7 
REMARK    2  A    between atoms: C2_9  and  N1_7 
REMARK    3  A    between atoms: C1_8  and  C8_15 
REMARK    4  A    between atoms: C5_12  and  C9_16 
REMARK    5  A    between atoms: C10_17  and  C8_15 
REMARK    6  A    between atoms: C16_23  and  C17_24 
ROOT
HETATM    1  C1  UNK     1      20.039  -4.350  37.012  1.00  0.00     0.014 A 
HETATM    2  C2  UNK     1      20.729  -7.020  36.892  1.00  0.00     0.035 A 
HETATM    3  C3  UNK     1      21.193  -4.771  37.642  1.00  0.00     0.018 A 
HETATM    4  C4  UNK     1      19.219  -5.221  36.323  1.00  0.00     0.018 A 
HETATM    5  C6  UNK     1      21.541  -6.120  37.581  1.00  0.00     0.030 A 
HETATM    6  C7  UNK     1      19.567  -6.571  36.263  1.00  0.00     0.030 A 
ENDROOT
BRANCH   1   7
HETATM    7  C8  UNK     1      19.669  -2.915  37.076  1.00  0.00     0.182 C 
HETATM    8  O1  UNK     1      19.439  -2.394  38.163  1.00  0.00    -0.288 OA
BRANCH   7   9
HETATM    9  C10 UNK     1      19.562  -2.170  35.791  1.00  0.00     0.056 C 
HETATM   10  C9  UNK     1      20.060  -2.699  34.651  1.00  0.00     0.015 C 
BRANCH  10  11
HETATM   11  C5  UNK     1      20.029  -2.058  33.346  1.00  0.00    -0.036 A 
HETATM   12  C11 UNK     1      19.118  -1.031  33.095  1.00  0.00     0.012 A 
HETATM   13  C14 UNK     1      19.088  -0.417  31.843  1.00  0.00     0.019 A 
HETATM   14  C13 UNK     1      19.967  -0.829  30.842  1.00  0.00    -0.000 A 
HETATM   15  C15 UNK     1      20.876  -1.856  31.093  1.00  0.00     0.019 A 
HETATM   16  C12 UNK     1      20.908  -2.470  32.345  1.00  0.00     0.012 A 
BRANCH  14  17
HETATM   17  S1  UNK     1      19.926  -0.045  29.242  1.00  0.00    -0.134 SA
HETATM   18  C18 UNK     1      18.852   1.383  29.557  1.00  0.00     0.095 C 
ENDBRANCH  14  17
ENDBRANCH  10  11
ENDBRANCH   7   9
ENDBRANCH   1   7
BRANCH   2  19
HETATM   19  N1  UNK     1      21.077  -8.370  36.830  1.00  0.00    -0.320 N 
HETATM   20  C16 UNK     1      21.398  -9.130  35.699  1.00  0.00     0.330 C 
HETATM   21  O2  UNK     1      21.433  -8.753  34.532  1.00  0.00    -0.263 OA
HETATM   22  H9  UNK     1      21.097  -8.854  37.725  1.00  0.00     0.169 HD
BRANCH  20  23
HETATM   23  C17 UNK     1      21.717 -10.553  36.061  1.00  0.00     0.472 C 
HETATM   24  F1  UNK     1      21.199 -10.901  37.266  1.00  0.00    -0.162 F 
HETATM   25  F2  UNK     1      21.220 -11.430  35.150  1.00  0.00    -0.162 F 
HETATM   26  F3  UNK     1      23.053 -10.776  36.129  1.00  0.00    -0.162 F 
ENDBRANCH  20  23
ENDBRANCH   2  19
TORSDOF 6
ENDMDL
MODEL 5
REMARK VINA RESULT:      -8.0      1.676      2.274
REMARK  6 active torsions:
REMARK  status: ('A' for Active; 'I' for Inactive)
REMARK    1  A    between atoms: C13_20  and  S1_1 
REMARK       I    between atoms: C16_23  and  N1_7 
REMARK    2  A    between atoms: C2_9  and  N1_7 
REMARK    3  A    between atoms: C1_8  and  C8_15 
REMARK    4  A    between atoms: C5_12  and  C9_16 
REMARK    5  A    between atoms: C10_17  and  C8_15 
REMARK    6  A    between atoms: C16_23  and  C17_24 
ROOT
HETATM    1  C1  UNK     1      18.521  -0.556  35.033  1.00  0.00     0.014 A 
HETATM    2  C2  UNK     1      18.695   0.489  32.483  1.00  0.00     0.035 A 
HETATM    3  C3  UNK     1      18.298   0.794  34.847  1.00  0.00     0.018 A 
HETATM    4  C4  UNK     1      18.827  -1.400  33.984  1.00  0.00     0.018 A 
HETATM    5  C6  UNK     1      18.386   1.321  33.559  1.00  0.00     0.030 A 
HETATM    6  C7  UNK     1      18.916  -0.872  32.696  1.00  0.00     0.030 A 
ENDROOT
BRANCH   1   7
HETATM    7  C8  UNK     1      18.427  -1.117  36.403  1.00  0.00     0.182 C 
HETATM    8  O1  UNK     1      18.147  -0.381  37.344  1.00  0.00    -0.288 OA
BRANCH   7   9
HETATM    9  C10 UNK     1      18.713  -2.568  36.577  1.00  0.00     0.056 C 
HETATM   10  C9  UNK     1      19.986  -3.000  36.723  1.00  0.00     0.015 C 
BRANCH  10  11
HETATM   11  C5  UNK     1      20.385  -4.389  36.883  1.00  0.00    -0.036 A 
HETATM   12  C11 UNK     1      19.871  -5.365  36.028  1.00  0.00     0.012 A 
HETATM   13  C14 UNK     1      20.255  -6.698  36.182  1.00  0.00     0.019 A 
HETATM   14  C13 UNK     1      21.150  -7.055  37.190  1.00  0.00    -0.000 A 
HETATM   15  C15 UNK     1      21.663  -6.079  38.044  1.00  0.00     0.019 A 
HETATM   16  C12 UNK     1      21.281  -4.746  37.890  1.00  0.00     0.012 A 
BRANCH  14  17
HETATM   17  S1  UNK     1      21.638  -8.757  37.387  1.00  0.00    -0.134 SA
HETATM   18  C18 UNK     1      21.579  -9.359  35.676  1.00  0.00     0.095 C 
ENDBRANCH  14  17
ENDBRANCH  10  11
ENDBRANCH   7   9
ENDBRANCH   1   7
BRANCH   2  19
HETATM   19  N1  UNK     1      18.783   1.016  31.195  1.00  0.00    -0.320 N 
HETATM   20  C16 UNK     1      18.047   2.069  30.638  1.00  0.00     0.330 C 
HETATM   21  O2  UNK     1      17.171   2.736  31.181  1.00  0.00    -0.263 OA
HETATM   22  H9  UNK     1      19.471   0.573  30.591  1.00  0.00     0.169 HD
BRANCH  20  23
HETATM   23  C17 UNK     1      18.445   2.331  29.214  1.00  0.00     0.472 C 
HETATM   24  F1  UNK     1      17.455   2.017  28.341  1.00  0.00    -0.162 F 
HETATM   25  F2  UNK     1      18.754   3.638  29.006  1.00  0.00    -0.162 F 
HETATM   26  F3  UNK     1      19.534   1.609  28.847  1.00  0.00    -0.162 F 
ENDBRANCH  20  23
ENDBRANCH   2  19
TORSDOF 6
ENDMDL
MODEL 6
REMARK VINA RESULT:      -7.8      6.028     10.576
REMARK  6 active torsions:
REMARK  status: ('A' for Active; 'I' for Inactive)
REMARK    1  A    between atoms: C13_20  and  S1_1 
REMARK       I    between atoms: C16_23  and  N1_7 
REMARK    2  A    between atoms: C2_9  and  N1_7 
REMARK    3  A    between atoms: C1_8  and  C8_15 
REMARK    4  A    between atoms: C5_12  and  C9_16 
REMARK    5  A    between atoms: C10_17  and  C8_15 
REMARK    6  A    between atoms: C16_23  and  C17_24 
ROOT
HETATM    1  C1  UNK     1      19.609  -0.306  30.695  1.00  0.00     0.014 A 
HETATM    2  C2  UNK     1      19.808  -1.938  32.913  1.00  0.00     0.035 A 
HETATM    3  C3  UNK     1      18.712  -0.139  31.731  1.00  0.00     0.018 A 
HETATM    4  C4  UNK     1      20.603  -1.263  30.734  1.00  0.00     0.018 A 
HETATM    5  C6  UNK     1      18.812  -0.963  32.851  1.00  0.00     0.030 A 
HETATM    6  C7  UNK     1      20.704  -2.088  31.854  1.00  0.00     0.030 A 
ENDROOT
BRANCH   1   7
HETATM    7  C8  UNK     1      19.503   0.571  29.504  1.00  0.00     0.182 C 
HETATM    8  O1  UNK     1      19.856   0.153  28.407  1.00  0.00    -0.288 OA
BRANCH   7   9
HETATM    9  C10 UNK     1      18.991   1.955  29.707  1.00  0.00     0.056 C 
HETATM   10  C9  UNK     1      19.145   2.572  30.900  1.00  0.00     0.015 C 
BRANCH  10  11
HETATM   11  C5  UNK     1      18.674   3.910  31.219  1.00  0.00    -0.036 A 
HETATM   12  C11 UNK     1      18.900   4.960  30.329  1.00  0.00     0.012 A 
HETATM   13  C14 UNK     1      18.448   6.244  30.635  1.00  0.00     0.019 A 
HETATM   14  C13 UNK     1      17.770   6.478  31.832  1.00  0.00    -0.000 A 
HETATM   15  C15 UNK     1      17.545   5.429  32.721  1.00  0.00     0.019 A 
HETATM   16  C12 UNK     1      17.995   4.144  32.415  1.00  0.00     0.012 A 
BRANCH  14  17
HETATM   17  S1  UNK     1      17.194   8.118  32.223  1.00  0.00    -0.134 SA
HETATM   18  C18 UNK     1      18.290   8.578  33.594  1.00  0.00     0.095 C 
ENDBRANCH  14  17
ENDBRANCH  10  11
ENDBRANCH   7   9
ENDBRANCH   1   7
BRANCH   2  19
HETATM   19  N1  UNK     1      19.909  -2.763  34.033  1.00  0.00    -0.320 N 
HETATM   20  C16 UNK     1      20.106  -2.389  35.368  1.00  0.00     0.330 C 
HETATM   21  O2  UNK     1      20.233  -1.254  35.814  1.00  0.00    -0.263 OA
HETATM   22  H9  UNK     1      19.828  -3.760  33.847  1.00  0.00     0.169 HD
BRANCH  20  23
HETATM   23  C17 UNK     1      20.158  -3.585  36.276  1.00  0.00     0.472 C 
HETATM   24  F1  UNK     1      19.141  -3.588  37.175  1.00  0.00    -0.162 F 
HETATM   25  F2  UNK     1      20.076  -4.751  35.583  1.00  0.00    -0.162 F 
HETATM   26  F3  UNK     1      21.311  -3.636  36.990  1.00  0.00    -0.162 F 
ENDBRANCH  20  23
ENDBRANCH   2  19
TORSDOF 6
ENDMDL
MODEL 7
REMARK VINA RESULT:      -7.8      9.682     13.870
REMARK  6 active torsions:
REMARK  status: ('A' for Active; 'I' for Inactive)
REMARK    1  A    between atoms: C13_20  and  S1_1 
REMARK       I    between atoms: C16_23  and  N1_7 
REMARK    2  A    between atoms: C2_9  and  N1_7 
REMARK    3  A    between atoms: C1_8  and  C8_15 
REMARK    4  A    between atoms: C5_12  and  C9_16 
REMARK    5  A    between atoms: C10_17  and  C8_15 
REMARK    6  A    between atoms: C16_23  and  C17_24 
ROOT
HETATM    1  C1  UNK     1      18.564   7.002  33.364  1.00  0.00     0.014 A 
HETATM    2  C2  UNK     1      18.626   5.014  31.449  1.00  0.00     0.035 A 
HETATM    3  C3  UNK     1      17.435   6.234  33.160  1.00  0.00     0.018 A 
HETATM    4  C4  UNK     1      19.723   6.807  32.640  1.00  0.00     0.018 A 
HETATM    5  C6  UNK     1      17.466   5.230  32.193  1.00  0.00     0.030 A 
HETATM    6  C7  UNK     1      19.755   5.803  31.672  1.00  0.00     0.030 A 
ENDROOT
BRANCH   1   7
HETATM    7  C8  UNK     1      18.531   8.069  34.393  1.00  0.00     0.182 C 
HETATM    8  O1  UNK     1      19.309   8.025  35.340  1.00  0.00    -0.288 OA
BRANCH   7   9
HETATM    9  C10 UNK     1      17.514   9.146  34.241  1.00  0.00     0.056 C 
HETATM   10  C9  UNK     1      16.221   8.916  34.562  1.00  0.00     0.015 C 
BRANCH  10  11
HETATM   11  C5  UNK     1      15.141   9.882  34.439  1.00  0.00    -0.036 A 
HETATM   12  C11 UNK     1      14.715  10.598  35.558  1.00  0.00     0.012 A 
HETATM   13  C14 UNK     1      13.679  11.525  35.439  1.00  0.00     0.019 A 
HETATM   14  C13 UNK     1      13.068  11.735  34.203  1.00  0.00    -0.000 A 
HETATM   15  C15 UNK     1      13.494  11.019  33.085  1.00  0.00     0.019 A 
HETATM   16  C12 UNK     1      14.531  10.093  33.203  1.00  0.00     0.012 A 
BRANCH  14  17
HETATM   17  S1  UNK     1      11.744  12.917  34.053  1.00  0.00    -0.134 SA
HETATM   18  C18 UNK     1      12.392  14.040  32.783  1.00  0.00     0.095 C 
ENDBRANCH  14  17
ENDBRANCH  10  11
ENDBRANCH   7   9
ENDBRANCH   1   7
BRANCH   2  19
HETATM   19  N1  UNK     1      18.658   4.010  30.481  1.00  0.00    -0.320 N 
HETATM   20  C16 UNK     1      18.316   2.660  30.623  1.00  0.00     0.330 C 
HETATM   21  O2  UNK     1      17.923   2.093  31.637  1.00  0.00    -0.263 OA
HETATM   22  H9  UNK     1      18.970   4.306  29.558  1.00  0.00     0.169 HD
BRANCH  20  23
HETATM   23  C17 UNK     1      18.490   1.906  29.335  1.00  0.00     0.472 C 
HETATM   24  F1  UNK     1      17.658   0.837  29.254  1.00  0.00    -0.162 F 
HETATM   25  F2  UNK     1      18.235   2.687  28.254  1.00  0.00    -0.162 F 
HETATM   26  F3  UNK     1      19.752   1.432  29.187  1.00  0.00    -0.162 F 
ENDBRANCH  20  23
ENDBRANCH   2  19
TORSDOF 6
ENDMDL
MODEL 8
REMARK VINA RESULT:      -7.8     26.515     28.767
REMARK  6 active torsions:
REMARK  status: ('A' for Active; 'I' for Inactive)
REMARK    1  A    between atoms: C13_20  and  S1_1 
REMARK       I    between atoms: C16_23  and  N1_7 
REMARK    2  A    between atoms: C2_9  and  N1_7 
REMARK    3  A    between atoms: C1_8  and  C8_15 
REMARK    4  A    between atoms: C5_12  and  C9_16 
REMARK    5  A    between atoms: C10_17  and  C8_15 
REMARK    6  A    between atoms: C16_23  and  C17_24 
ROOT
HETATM    1  C1  UNK     1      10.796   6.817   7.326  1.00  0.00     0.014 A 
HETATM    2  C2  UNK     1      13.270   7.386   8.411  1.00  0.00     0.035 A 
HETATM    3  C3  UNK     1      10.918   7.888   8.188  1.00  0.00     0.018 A 
HETATM    4  C4  UNK     1      11.873   6.022   6.989  1.00  0.00     0.018 A 
HETATM    5  C6  UNK     1      12.167   8.176   8.736  1.00  0.00     0.030 A 
HETATM    6  C7  UNK     1      13.123   6.308   7.537  1.00  0.00     0.030 A 
ENDROOT
BRANCH   1   7
HETATM    7  C8  UNK     1       9.467   6.512   6.742  1.00  0.00     0.182 C 
HETATM    8  O1  UNK     1       9.328   6.491   5.524  1.00  0.00    -0.288 OA
BRANCH   7   9
HETATM    9  C10 UNK     1       8.337   6.272   7.682  1.00  0.00     0.056 C 
HETATM   10  C9  UNK     1       8.474   5.399   8.706  1.00  0.00     0.015 C 
BRANCH  10  11
HETATM   11  C5  UNK     1       7.438   5.072   9.672  1.00  0.00    -0.036 A 
HETATM   12  C11 UNK     1       6.985   6.044  10.565  1.00  0.00     0.012 A 
HETATM   13  C14 UNK     1       5.991   5.729  11.492  1.00  0.00     0.019 A 
HETATM   14  C13 UNK     1       5.451   4.444  11.528  1.00  0.00    -0.000 A 
HETATM   15  C15 UNK     1       5.904   3.473  10.636  1.00  0.00     0.019 A 
HETATM   16  C12 UNK     1       6.897   3.787   9.708  1.00  0.00     0.012 A 
BRANCH  14  17
HETATM   17  S1  UNK     1       4.183   4.044  12.714  1.00  0.00    -0.134 SA
HETATM   18  C18 UNK     1       4.754   2.438  13.338  1.00  0.00     0.095 C 
ENDBRANCH  14  17
ENDBRANCH  10  11
ENDBRANCH   7   9
ENDBRANCH   1   7
BRANCH   2  19
HETATM   19  N1  UNK     1      14.521   7.673   8.959  1.00  0.00    -0.320 N 
HETATM   20  C16 UNK     1      15.180   7.013  10.003  1.00  0.00     0.330 C 
HETATM   21  O2  UNK     1      14.779   6.049  10.647  1.00  0.00    -0.263 OA
HETATM   22  H9  UNK     1      15.008   8.462   8.540  1.00  0.00     0.169 HD
BRANCH  20  23
HETATM   23  C17 UNK     1      16.516   7.634  10.294  1.00  0.00     0.472 C 
HETATM   24  F1  UNK     1      16.684   7.886  11.617  1.00  0.00    -0.162 F 
HETATM   25  F2  UNK     1      17.542   6.831   9.912  1.00  0.00    -0.162 F 
HETATM   26  F3  UNK     1      16.683   8.815   9.647  1.00  0.00    -0.162 F 
ENDBRANCH  20  23
ENDBRANCH   2  19
TORSDOF 6
ENDMDL
MODEL 9
REMARK VINA RESULT:      -7.8      1.300      2.171
REMARK  6 active torsions:
REMARK  status: ('A' for Active; 'I' for Inactive)
REMARK    1  A    between atoms: C13_20  and  S1_1 
REMARK       I    between atoms: C16_23  and  N1_7 
REMARK    2  A    between atoms: C2_9  and  N1_7 
REMARK    3  A    between atoms: C1_8  and  C8_15 
REMARK    4  A    between atoms: C5_12  and  C9_16 
REMARK    5  A    between atoms: C10_17  and  C8_15 
REMARK    6  A    between atoms: C16_23  and  C17_24 
ROOT
HETATM    1  C1  UNK     1      19.394  -2.109  35.185  1.00  0.00     0.014 A 
HETATM    2  C2  UNK     1      19.706  -1.182  32.604  1.00  0.00     0.035 A 
HETATM    3  C3  UNK     1      20.421  -2.613  34.413  1.00  0.00     0.018 A 
HETATM    4  C4  UNK     1      18.518  -1.155  34.707  1.00  0.00     0.018 A 
HETATM    5  C6  UNK     1      20.579  -2.145  33.110  1.00  0.00     0.030 A 
HETATM    6  C7  UNK     1      18.675  -0.686  33.403  1.00  0.00     0.030 A 
ENDROOT
BRANCH   1   7
HETATM    7  C8  UNK     1      19.226  -2.606  36.573  1.00  0.00     0.182 C 
HETATM    8  O1  UNK     1      18.729  -1.877  37.424  1.00  0.00    -0.288 OA
BRANCH   7   9
HETATM    9  C10 UNK     1      19.708  -3.982  36.877  1.00  0.00     0.056 C 
HETATM   10  C9  UNK     1      19.057  -5.059  36.384  1.00  0.00     0.015 C 
BRANCH  10  11
HETATM   11  C5  UNK     1      19.424  -6.444  36.629  1.00  0.00    -0.036 A 
HETATM   12  C11 UNK     1      19.030  -7.073  37.811  1.00  0.00     0.012 A 
HETATM   13  C14 UNK     1      19.384  -8.402  38.045  1.00  0.00     0.019 A 
HETATM   14  C13 UNK     1      20.131  -9.103  37.098  1.00  0.00    -0.000 A 
HETATM   15  C15 UNK     1      20.524  -8.475  35.917  1.00  0.00     0.019 A 
HETATM   16  C12 UNK     1      20.171  -7.146  35.682  1.00  0.00     0.012 A 
BRANCH  14  17
HETATM   17  S1  UNK     1      20.583 -10.800  37.399  1.00  0.00    -0.134 SA
HETATM   18  C18 UNK     1      19.412 -11.269  38.704  1.00  0.00     0.095 C 
ENDBRANCH  14  17
ENDBRANCH  10  11
ENDBRANCH   7   9
ENDBRANCH   1   7
BRANCH   2  19
HETATM   19  N1  UNK     1      19.863  -0.713  31.299  1.00  0.00    -0.320 N 
HETATM   20  C16 UNK     1      20.198  -1.442  30.152  1.00  0.00     0.330 C 
HETATM   21  O2  UNK     1      20.424  -2.645  30.072  1.00  0.00    -0.263 OA
HETATM   22  H9  UNK     1      19.713   0.286  31.176  1.00  0.00     0.169 HD
BRANCH  20  23
HETATM   23  C17 UNK     1      20.268  -0.561  28.937  1.00  0.00     0.472 C 
HETATM   24  F1  UNK     1      19.338  -0.899  28.008  1.00  0.00    -0.162 F 
HETATM   25  F2  UNK     1      20.059   0.745  29.246  1.00  0.00    -0.162 F 
HETATM   26  F3  UNK     1      21.476  -0.630  28.324  1.00  0.00    -0.162 F 
ENDBRANCH  20  23
ENDBRANCH   2  19
TORSDOF 6
ENDMDL
MODEL 10
REMARK VINA RESULT:      -7.7      8.795     10.557
REMARK  6 active torsions:
REMARK  status: ('A' for Active; 'I' for Inactive)
REMARK    1  A    between atoms: C13_20  and  S1_1 
REMARK       I    between atoms: C16_23  and  N1_7 
REMARK    2  A    between atoms: C2_9  and  N1_7 
REMARK    3  A    between atoms: C1_8  and  C8_15 
REMARK    4  A    between atoms: C5_12  and  C9_16 
REMARK    5  A    between atoms: C10_17  and  C8_15 
REMARK    6  A    between atoms: C16_23  and  C17_24 
ROOT
HETATM    1  C1  UNK     1      27.570  -7.490  38.287  1.00  0.00     0.014 A 
HETATM    2  C2  UNK     1      29.454  -5.796  37.189  1.00  0.00     0.035 A 
HETATM    3  C3  UNK     1      28.154  -6.529  39.088  1.00  0.00     0.018 A 
HETATM    4  C4  UNK     1      27.898  -7.630  36.953  1.00  0.00     0.018 A 
HETATM    5  C6  UNK     1      29.105  -5.674  38.534  1.00  0.00     0.030 A 
HETATM    6  C7  UNK     1      28.850  -6.775  36.398  1.00  0.00     0.030 A 
ENDROOT
BRANCH   1   7
HETATM    7  C8  UNK     1      26.557  -8.399  38.877  1.00  0.00     0.182 C 
HETATM    8  O1  UNK     1      26.888  -9.191  39.753  1.00  0.00    -0.288 OA
BRANCH   7   9
HETATM    9  C10 UNK     1      25.169  -8.327  38.344  1.00  0.00     0.056 C 
HETATM   10  C9  UNK     1      24.206  -7.674  39.033  1.00  0.00     0.015 C 
BRANCH  10  11
HETATM   11  C5  UNK     1      22.817  -7.553  38.621  1.00  0.00    -0.036 A 
HETATM   12  C11 UNK     1      22.399  -8.099  37.407  1.00  0.00     0.012 A 
HETATM   13  C14 UNK     1      21.066  -7.983  37.013  1.00  0.00     0.019 A 
HETATM   14  C13 UNK     1      20.151  -7.319  37.830  1.00  0.00    -0.000 A 
HETATM   15  C15 UNK     1      20.569  -6.773  39.043  1.00  0.00     0.019 A 
HETATM   16  C12 UNK     1      21.901  -6.890  39.439  1.00  0.00     0.012 A 
BRANCH  14  17
HETATM   17  S1  UNK     1      18.449  -7.170  37.324  1.00  0.00    -0.134 SA
HETATM   18  C18 UNK     1      18.596  -7.214  35.515  1.00  0.00     0.095 C 
ENDBRANCH  14  17
ENDBRANCH  10  11
ENDBRANCH   7   9
ENDBRANCH   1   7
BRANCH   2  19
HETATM   19  N1  UNK     1      30.406  -4.941  36.633  1.00  0.00    -0.320 N 
HETATM   20  C16 UNK     1      31.780  -5.161  36.476  1.00  0.00     0.330 C 
HETATM   21  O2  UNK     1      32.418  -6.156  36.802  1.00  0.00    -0.263 OA
HETATM   22  H9  UNK     1      30.047  -4.048  36.303  1.00  0.00     0.169 HD
BRANCH  20  23
HETATM   23  C17 UNK     1      32.457  -3.986  35.829  1.00  0.00     0.472 C 
HETATM   24  F1  UNK     1      32.178  -3.903  34.503  1.00  0.00    -0.162 F 
HETATM   25  F2  UNK     1      32.074  -2.809  36.388  1.00  0.00    -0.162 F 
HETATM   26  F3  UNK     1      33.808  -4.051  35.941  1.00  0.00    -0.162 F 
ENDBRANCH  20  23
ENDBRANCH   2  19
TORSDOF 6
ENDMDL
