MODEL 1
REMARK VINA RESULT:      -9.1      0.000      0.000
REMARK  7 active torsions:
REMARK  status: ('A' for Active; 'I' for Inactive)
REMARK    1  A    between atoms: C1_9  and  O1_2 
REMARK    2  A    between atoms: C24_32  and  O6_7 
REMARK    3  A    between atoms: C6_14  and  N1_8 
REMARK    4  A    between atoms: C1_9  and  C5_13 
REMARK    5  A    between atoms: C5_13  and  C9_17 
REMARK    6  A    between atoms: C10_18  and  C6_14 
REMARK    7  A    between atoms: C13_21  and  C9_17 
ROOT
HETATM    1  O2  UNK     1      27.523  -7.048  35.270  1.00  0.00    -0.269 OA
HETATM    2  N1  UNK     1      29.684  -6.152  34.963  1.00  0.00    -0.310 N 
HETATM    3  C1  UNK     1      29.015  -6.642  37.181  1.00  0.00     0.175 A 
HETATM    4  C2  UNK     1      30.400  -6.062  37.129  1.00  0.00     0.013 A 
HETATM    5  C3  UNK     1      30.746  -5.793  35.804  1.00  0.00     0.047 A 
HETATM    6  C4  UNK     1      28.604  -6.666  35.694  1.00  0.00     0.264 A 
HETATM    7  C7  UNK     1      31.281  -5.791  38.161  1.00  0.00     0.013 A 
HETATM    8  C8  UNK     1      31.975  -5.250  35.468  1.00  0.00     0.030 A 
HETATM    9  C11 UNK     1      32.526  -5.244  37.841  1.00  0.00     0.001 A 
HETATM   10  C12 UNK     1      32.871  -4.977  36.504  1.00  0.00     0.002 A 
ENDROOT
BRANCH   3  11
HETATM   11  O1  UNK     1      28.148  -5.761  37.869  1.00  0.00    -0.375 OA
HETATM   12  H7  UNK     1      27.318  -5.684  37.372  1.00  0.00     0.211 HD
ENDBRANCH   3  11
BRANCH   3  13
HETATM   13  C5  UNK     1      28.964  -8.037  37.788  1.00  0.00     0.137 C 
BRANCH  13  14
HETATM   14  C9  UNK     1      27.781  -8.216  38.717  1.00  0.00     0.169 C 
HETATM   15  O3  UNK     1      27.823  -8.005  39.926  1.00  0.00    -0.292 OA
BRANCH  14  16
HETATM   16  C13 UNK     1      26.523  -8.672  38.092  1.00  0.00     0.086 A 
HETATM   17  C16 UNK     1      26.556  -9.875  37.506  1.00  0.00     0.035 A 
HETATM   18  C18 UNK     1      25.366 -10.411  36.865  1.00  0.00     0.002 A 
HETATM   19  C19 UNK     1      24.200  -9.653  36.870  1.00  0.00     0.123 A 
HETATM   20  C23 UNK     1      25.355 -11.662  36.243  1.00  0.00     0.014 A 
HETATM   21  C24 UNK     1      23.026 -10.109  36.273  1.00  0.00     0.102 A 
HETATM   22  O4  UNK     1      24.171  -8.388  37.488  1.00  0.00    -0.271 OA
HETATM   23  C26 UNK     1      23.023 -11.357  35.655  1.00  0.00     0.040 A 
HETATM   24  C25 UNK     1      24.185 -12.132  35.639  1.00  0.00     0.004 A 
HETATM   25  C17 UNK     1      25.293  -7.849  38.111  1.00  0.00     0.302 A 
HETATM   26  O5  UNK     1      25.259  -6.746  38.646  1.00  0.00    -0.259 OA
BRANCH  21  27
HETATM   27  O6  UNK     1      21.893  -9.358  36.285  1.00  0.00    -0.353 OA
HETATM   28  C27 UNK     1      21.343  -8.988  35.021  1.00  0.00     0.210 C 
ENDBRANCH  21  27
ENDBRANCH  14  16
ENDBRANCH  13  14
ENDBRANCH   3  13
BRANCH   2  29
HETATM   29  C6  UNK     1      29.721  -5.993  33.528  1.00  0.00     0.172 C 
BRANCH  29  30
HETATM   30  C10 UNK     1      29.638  -7.312  32.815  1.00  0.00    -0.018 A 
HETATM   31  C14 UNK     1      28.550  -7.634  32.010  1.00  0.00     0.042 A 
HETATM   32  C20 UNK     1      28.507  -8.870  31.364  1.00  0.00     0.024 A 
HETATM   33 Cl1  UNK     1      27.236  -6.538  31.787  1.00  0.00    -0.084 Cl
HETATM   34  C22 UNK     1      29.554  -9.778  31.527  1.00  0.00     0.002 A 
HETATM   35  C21 UNK     1      30.643  -9.449  32.335  1.00  0.00     0.001 A 
HETATM   36  C15 UNK     1      30.685  -8.214  32.980  1.00  0.00     0.010 A 
ENDBRANCH  29  30
ENDBRANCH   2  29
TORSDOF 7
ENDMDL
MODEL 2
REMARK VINA RESULT:      -8.8      1.367      1.709
REMARK  7 active torsions:
REMARK  status: ('A' for Active; 'I' for Inactive)
REMARK    1  A    between atoms: C1_9  and  O1_2 
REMARK    2  A    between atoms: C24_32  and  O6_7 
REMARK    3  A    between atoms: C6_14  and  N1_8 
REMARK    4  A    between atoms: C1_9  and  C5_13 
REMARK    5  A    between atoms: C5_13  and  C9_17 
REMARK    6  A    between atoms: C10_18  and  C6_14 
REMARK    7  A    between atoms: C13_21  and  C9_17 
ROOT
HETATM    1  O2  UNK     1      27.759  -6.792  34.905  1.00  0.00    -0.269 OA
HETATM    2  N1  UNK     1      29.949  -6.226  34.233  1.00  0.00    -0.310 N 
HETATM    3  C1  UNK     1      29.686  -7.208  36.372  1.00  0.00     0.175 A 
HETATM    4  C2  UNK     1      31.123  -6.881  36.078  1.00  0.00     0.013 A 
HETATM    5  C3  UNK     1      31.224  -6.308  34.810  1.00  0.00     0.047 A 
HETATM    6  C4  UNK     1      28.965  -6.736  35.092  1.00  0.00     0.264 A 
HETATM    7  C7  UNK     1      32.248  -7.070  36.863  1.00  0.00     0.013 A 
HETATM    8  C8  UNK     1      32.442  -5.910  34.285  1.00  0.00     0.030 A 
HETATM    9  C11 UNK     1      33.485  -6.674  36.349  1.00  0.00     0.001 A 
HETATM   10  C12 UNK     1      33.582  -6.099  35.070  1.00  0.00     0.002 A 
ENDROOT
BRANCH   3  11
HETATM   11  O1  UNK     1      29.226  -6.425  37.457  1.00  0.00    -0.375 OA
HETATM   12  H7  UNK     1      28.540  -5.817  37.138  1.00  0.00     0.211 HD
ENDBRANCH   3  11
BRANCH   3  13
HETATM   13  C5  UNK     1      29.440  -8.687  36.628  1.00  0.00     0.137 C 
BRANCH  13  14
HETATM   14  C9  UNK     1      28.499  -8.921  37.791  1.00  0.00     0.169 C 
HETATM   15  O3  UNK     1      28.856  -8.948  38.965  1.00  0.00    -0.292 OA
BRANCH  14  16
HETATM   16  C13 UNK     1      27.077  -9.124  37.449  1.00  0.00     0.086 A 
HETATM   17  C16 UNK     1      26.759 -10.311  36.918  1.00  0.00     0.035 A 
HETATM   18  C18 UNK     1      25.384 -10.605  36.550  1.00  0.00     0.002 A 
HETATM   19  C19 UNK     1      24.410  -9.634  36.757  1.00  0.00     0.123 A 
HETATM   20  C23 UNK     1      25.008 -11.830  35.994  1.00  0.00     0.014 A 
HETATM   21  C24 UNK     1      23.073  -9.852  36.426  1.00  0.00     0.102 A 
HETATM   22  O4  UNK     1      24.750  -8.387  37.317  1.00  0.00    -0.271 OA
HETATM   23  C26 UNK     1      22.707 -11.076  35.872  1.00  0.00     0.040 A 
HETATM   24  C25 UNK     1      23.671 -12.063  35.656  1.00  0.00     0.004 A 
HETATM   25  C17 UNK     1      26.057  -8.077  37.680  1.00  0.00     0.302 A 
HETATM   26  O5  UNK     1      26.344  -6.988  38.167  1.00  0.00    -0.259 OA
BRANCH  21  27
HETATM   27  O6  UNK     1      22.131  -8.895  36.634  1.00  0.00    -0.353 OA
HETATM   28  C27 UNK     1      21.274  -8.576  35.537  1.00  0.00     0.210 C 
ENDBRANCH  21  27
ENDBRANCH  14  16
ENDBRANCH  13  14
ENDBRANCH   3  13
BRANCH   2  29
HETATM   29  C6  UNK     1      29.707  -5.674  32.922  1.00  0.00     0.172 C 
BRANCH  29  30
HETATM   30  C10 UNK     1      28.932  -6.618  32.048  1.00  0.00    -0.018 A 
HETATM   31  C14 UNK     1      29.474  -7.830  31.631  1.00  0.00     0.042 A 
HETATM   32  C20 UNK     1      28.725  -8.681  30.818  1.00  0.00     0.024 A 
HETATM   33 Cl1  UNK     1      31.064  -8.315  32.093  1.00  0.00    -0.084 Cl
HETATM   34  C22 UNK     1      27.436  -8.314  30.426  1.00  0.00     0.002 A 
HETATM   35  C21 UNK     1      26.898  -7.098  30.848  1.00  0.00     0.001 A 
HETATM   36  C15 UNK     1      27.648  -6.248  31.660  1.00  0.00     0.010 A 
ENDBRANCH  29  30
ENDBRANCH   2  29
TORSDOF 7
ENDMDL
MODEL 3
REMARK VINA RESULT:      -8.8      3.555      5.571
REMARK  7 active torsions:
REMARK  status: ('A' for Active; 'I' for Inactive)
REMARK    1  A    between atoms: C1_9  and  O1_2 
REMARK    2  A    between atoms: C24_32  and  O6_7 
REMARK    3  A    between atoms: C6_14  and  N1_8 
REMARK    4  A    between atoms: C1_9  and  C5_13 
REMARK    5  A    between atoms: C5_13  and  C9_17 
REMARK    6  A    between atoms: C10_18  and  C6_14 
REMARK    7  A    between atoms: C13_21  and  C9_17 
ROOT
HETATM    1  O2  UNK     1      30.057  -6.299  32.641  1.00  0.00    -0.269 OA
HETATM    2  N1  UNK     1      31.475  -6.859  30.839  1.00  0.00    -0.310 N 
HETATM    3  C1  UNK     1      32.335  -7.137  33.028  1.00  0.00     0.175 A 
HETATM    4  C2  UNK     1      33.343  -7.511  31.978  1.00  0.00     0.013 A 
HETATM    5  C3  UNK     1      32.789  -7.331  30.710  1.00  0.00     0.047 A 
HETATM    6  C4  UNK     1      31.116  -6.708  32.186  1.00  0.00     0.264 A 
HETATM    7  C7  UNK     1      34.641  -7.969  32.126  1.00  0.00     0.013 A 
HETATM    8  C8  UNK     1      33.505  -7.602  29.556  1.00  0.00     0.030 A 
HETATM    9  C11 UNK     1      35.378  -8.247  30.972  1.00  0.00     0.001 A 
HETATM   10  C12 UNK     1      34.814  -8.067  29.698  1.00  0.00     0.002 A 
ENDROOT
BRANCH   3  11
HETATM   11  O1  UNK     1      32.792  -6.014  33.757  1.00  0.00    -0.375 OA
HETATM   12  H7  UNK     1      32.234  -5.902  34.543  1.00  0.00     0.211 HD
ENDBRANCH   3  11
BRANCH   3  13
HETATM   13  C5  UNK     1      31.981  -8.283  33.964  1.00  0.00     0.137 C 
BRANCH  13  14
HETATM   14  C9  UNK     1      32.400  -8.008  35.393  1.00  0.00     0.169 C 
HETATM   15  O3  UNK     1      33.567  -8.009  35.776  1.00  0.00    -0.292 OA
BRANCH  14  16
HETATM   16  C13 UNK     1      31.311  -7.726  36.351  1.00  0.00     0.086 A 
HETATM   17  C16 UNK     1      30.793  -8.785  36.984  1.00  0.00     0.035 A 
HETATM   18  C18 UNK     1      29.716  -8.608  37.946  1.00  0.00     0.002 A 
HETATM   19  C19 UNK     1      29.239  -7.325  38.193  1.00  0.00     0.123 A 
HETATM   20  C23 UNK     1      29.146  -9.684  38.632  1.00  0.00     0.014 A 
HETATM   21  C24 UNK     1      28.209  -7.088  39.103  1.00  0.00     0.102 A 
HETATM   22  O4  UNK     1      29.789  -6.215  37.523  1.00  0.00    -0.271 OA
HETATM   23  C26 UNK     1      27.646  -8.166  39.781  1.00  0.00     0.040 A 
HETATM   24  C25 UNK     1      28.113  -9.461  39.547  1.00  0.00     0.004 A 
HETATM   25  C17 UNK     1      30.819  -6.353  36.598  1.00  0.00     0.302 A 
HETATM   26  O5  UNK     1      31.292  -5.380  36.019  1.00  0.00    -0.259 OA
BRANCH  21  27
HETATM   27  O6  UNK     1      27.751  -5.829  39.334  1.00  0.00    -0.353 OA
HETATM   28  C27 UNK     1      26.529  -5.454  38.698  1.00  0.00     0.210 C 
ENDBRANCH  21  27
ENDBRANCH  14  16
ENDBRANCH  13  14
ENDBRANCH   3  13
BRANCH   2  29
HETATM   29  C6  UNK     1      30.625  -6.564  29.711  1.00  0.00     0.172 C 
BRANCH  29  30
HETATM   30  C10 UNK     1      29.775  -7.741  29.324  1.00  0.00    -0.018 A 
HETATM   31  C14 UNK     1      28.439  -7.825  29.701  1.00  0.00     0.042 A 
HETATM   32  C20 UNK     1      27.682  -8.935  29.325  1.00  0.00     0.024 A 
HETATM   33 Cl1  UNK     1      27.682  -6.585  30.632  1.00  0.00    -0.084 Cl
HETATM   34  C22 UNK     1      28.266  -9.955  28.573  1.00  0.00     0.002 A 
HETATM   35  C21 UNK     1      29.607  -9.865  28.198  1.00  0.00     0.001 A 
HETATM   36  C15 UNK     1      30.363  -8.755  28.574  1.00  0.00     0.010 A 
ENDBRANCH  29  30
ENDBRANCH   2  29
TORSDOF 7
ENDMDL
MODEL 4
REMARK VINA RESULT:      -8.6      4.598      7.227
REMARK  7 active torsions:
REMARK  status: ('A' for Active; 'I' for Inactive)
REMARK    1  A    between atoms: C1_9  and  O1_2 
REMARK    2  A    between atoms: C24_32  and  O6_7 
REMARK    3  A    between atoms: C6_14  and  N1_8 
REMARK    4  A    between atoms: C1_9  and  C5_13 
REMARK    5  A    between atoms: C5_13  and  C9_17 
REMARK    6  A    between atoms: C10_18  and  C6_14 
REMARK    7  A    between atoms: C13_21  and  C9_17 
ROOT
HETATM    1  O2  UNK     1      31.359  -8.223  32.697  1.00  0.00    -0.269 OA
HETATM    2  N1  UNK     1      30.805  -9.896  31.128  1.00  0.00    -0.310 N 
HETATM    3  C1  UNK     1      31.336 -10.598  33.326  1.00  0.00     0.175 A 
HETATM    4  C2  UNK     1      31.021 -11.761  32.428  1.00  0.00     0.013 A 
HETATM    5  C3  UNK     1      30.715 -11.295  31.148  1.00  0.00     0.047 A 
HETATM    6  C4  UNK     1      31.174  -9.389  32.382  1.00  0.00     0.264 A 
HETATM    7  C7  UNK     1      31.009 -13.116  32.711  1.00  0.00     0.013 A 
HETATM    8  C8  UNK     1      30.386 -12.159  30.117  1.00  0.00     0.030 A 
HETATM    9  C11 UNK     1      30.679 -14.002  31.682  1.00  0.00     0.001 A 
HETATM   10  C12 UNK     1      30.369 -13.528  30.396  1.00  0.00     0.002 A 
ENDROOT
BRANCH   3  11
HETATM   11  O1  UNK     1      32.687 -10.662  33.742  1.00  0.00    -0.375 OA
HETATM   12  H7  UNK     1      33.253 -10.347  33.019  1.00  0.00     0.211 HD
ENDBRANCH   3  11
BRANCH   3  13
HETATM   13  C5  UNK     1      30.405 -10.490  34.525  1.00  0.00     0.137 C 
BRANCH  13  14
HETATM   14  C9  UNK     1      31.159 -10.293  35.823  1.00  0.00     0.169 C 
HETATM   15  O3  UNK     1      31.700 -11.204  36.444  1.00  0.00    -0.292 OA
BRANCH  14  16
HETATM   16  C13 UNK     1      31.225  -8.911  36.338  1.00  0.00     0.086 A 
HETATM   17  C16 UNK     1      30.198  -8.513  37.098  1.00  0.00     0.035 A 
HETATM   18  C18 UNK     1      30.172  -7.168  37.651  1.00  0.00     0.002 A 
HETATM   19  C19 UNK     1      31.230  -6.308  37.375  1.00  0.00     0.123 A 
HETATM   20  C23 UNK     1      29.121  -6.711  38.450  1.00  0.00     0.014 A 
HETATM   21  C24 UNK     1      31.267  -5.007  37.875  1.00  0.00     0.102 A 
HETATM   22  O4  UNK     1      32.308  -6.732  36.575  1.00  0.00    -0.271 OA
HETATM   23  C26 UNK     1      30.214  -4.559  38.670  1.00  0.00     0.040 A 
HETATM   24  C25 UNK     1      29.144  -5.409  38.958  1.00  0.00     0.004 A 
HETATM   25  C17 UNK     1      32.361  -8.012  36.033  1.00  0.00     0.302 A 
HETATM   26  O5  UNK     1      33.304  -8.373  35.336  1.00  0.00    -0.259 OA
BRANCH  21  27
HETATM   27  O6  UNK     1      32.306  -4.176  37.598  1.00  0.00    -0.353 OA
HETATM   28  C27 UNK     1      32.174  -3.326  36.458  1.00  0.00     0.210 C 
ENDBRANCH  21  27
ENDBRANCH  14  16
ENDBRANCH  13  14
ENDBRANCH   3  13
BRANCH   2  29
HETATM   29  C6  UNK     1      30.554  -9.103  29.948  1.00  0.00     0.172 C 
BRANCH  29  30
HETATM   30  C10 UNK     1      29.340  -8.234  30.103  1.00  0.00    -0.018 A 
HETATM   31  C14 UNK     1      29.437  -6.846  30.109  1.00  0.00     0.042 A 
HETATM   32  C20 UNK     1      28.287  -6.071  30.258  1.00  0.00     0.024 A 
HETATM   33 Cl1  UNK     1      30.957  -6.046  29.940  1.00  0.00    -0.084 Cl
HETATM   34  C22 UNK     1      27.043  -6.689  30.399  1.00  0.00     0.002 A 
HETATM   35  C21 UNK     1      26.952  -8.081  30.392  1.00  0.00     0.001 A 
HETATM   36  C15 UNK     1      28.102  -8.855  30.243  1.00  0.00     0.010 A 
ENDBRANCH  29  30
ENDBRANCH   2  29
TORSDOF 7
ENDMDL
MODEL 5
REMARK VINA RESULT:      -8.6      2.592      4.179
REMARK  7 active torsions:
REMARK  status: ('A' for Active; 'I' for Inactive)
REMARK    1  A    between atoms: C1_9  and  O1_2 
REMARK    2  A    between atoms: C24_32  and  O6_7 
REMARK    3  A    between atoms: C6_14  and  N1_8 
REMARK    4  A    between atoms: C1_9  and  C5_13 
REMARK    5  A    between atoms: C5_13  and  C9_17 
REMARK    6  A    between atoms: C10_18  and  C6_14 
REMARK    7  A    between atoms: C13_21  and  C9_17 
ROOT
HETATM    1  O2  UNK     1      33.860  -4.869  35.980  1.00  0.00    -0.269 OA
HETATM    2  N1  UNK     1      33.001  -6.975  35.349  1.00  0.00    -0.310 N 
HETATM    3  C1  UNK     1      32.975  -6.434  37.655  1.00  0.00     0.175 A 
HETATM    4  C2  UNK     1      32.419  -7.805  37.395  1.00  0.00     0.013 A 
HETATM    5  C3  UNK     1      32.456  -8.075  36.026  1.00  0.00     0.047 A 
HETATM    6  C4  UNK     1      33.345  -5.947  36.239  1.00  0.00     0.264 A 
HETATM    7  C7  UNK     1      31.926  -8.741  38.288  1.00  0.00     0.013 A 
HETATM    8  C8  UNK     1      32.002  -9.275  35.506  1.00  0.00     0.030 A 
HETATM    9  C11 UNK     1      31.463  -9.958  37.782  1.00  0.00     0.001 A 
HETATM   10  C12 UNK     1      31.500 -10.222  36.402  1.00  0.00     0.002 A 
ENDROOT
BRANCH   3  11
HETATM   11  O1  UNK     1      34.163  -6.532  38.418  1.00  0.00    -0.375 OA
HETATM   12  H7  UNK     1      34.781  -7.125  37.962  1.00  0.00     0.211 HD
ENDBRANCH   3  11
BRANCH   3  13
HETATM   13  C5  UNK     1      31.980  -5.493  38.318  1.00  0.00     0.137 C 
BRANCH  13  14
HETATM   14  C9  UNK     1      30.782  -5.210  37.438  1.00  0.00     0.169 C 
HETATM   15  O3  UNK     1      30.751  -4.325  36.587  1.00  0.00    -0.292 OA
BRANCH  14  16
HETATM   16  C13 UNK     1      29.600  -6.071  37.646  1.00  0.00     0.086 A 
HETATM   17  C16 UNK     1      29.400  -7.031  36.735  1.00  0.00     0.035 A 
HETATM   18  C18 UNK     1      28.263  -7.930  36.856  1.00  0.00     0.002 A 
HETATM   19  C19 UNK     1      27.392  -7.773  37.929  1.00  0.00     0.123 A 
HETATM   20  C23 UNK     1      28.016  -8.946  35.930  1.00  0.00     0.014 A 
HETATM   21  C24 UNK     1      26.284  -8.601  38.102  1.00  0.00     0.102 A 
HETATM   22  O4  UNK     1      27.608  -6.761  38.885  1.00  0.00    -0.271 OA
HETATM   23  C26 UNK     1      26.045  -9.611  37.174  1.00  0.00     0.040 A 
HETATM   24  C25 UNK     1      26.908  -9.784  36.090  1.00  0.00     0.004 A 
HETATM   25  C17 UNK     1      28.688  -5.887  38.796  1.00  0.00     0.302 A 
HETATM   26  O5  UNK     1      28.868  -5.008  39.633  1.00  0.00    -0.259 OA
BRANCH  21  27
HETATM   27  O6  UNK     1      25.441  -8.437  39.156  1.00  0.00    -0.353 OA
HETATM   28  C27 UNK     1      24.201  -7.777  38.900  1.00  0.00     0.210 C 
ENDBRANCH  21  27
ENDBRANCH  14  16
ENDBRANCH  13  14
ENDBRANCH   3  13
BRANCH   2  29
HETATM   29  C6  UNK     1      33.183  -6.935  33.918  1.00  0.00     0.172 C 
BRANCH  29  30
HETATM   30  C10 UNK     1      31.875  -6.840  33.187  1.00  0.00    -0.018 A 
HETATM   31  C14 UNK     1      31.542  -7.735  32.175  1.00  0.00     0.042 A 
HETATM   32  C20 UNK     1      30.317  -7.612  31.518  1.00  0.00     0.024 A 
HETATM   33 Cl1  UNK     1      32.612  -9.003  31.703  1.00  0.00    -0.084 Cl
HETATM   34  C22 UNK     1      29.432  -6.595  31.877  1.00  0.00     0.002 A 
HETATM   35  C21 UNK     1      29.771  -5.701  32.892  1.00  0.00     0.001 A 
HETATM   36  C15 UNK     1      30.995  -5.824  33.549  1.00  0.00     0.010 A 
ENDBRANCH  29  30
ENDBRANCH   2  29
TORSDOF 7
ENDMDL
MODEL 6
REMARK VINA RESULT:      -8.6      4.666      8.802
REMARK  7 active torsions:
REMARK  status: ('A' for Active; 'I' for Inactive)
REMARK    1  A    between atoms: C1_9  and  O1_2 
REMARK    2  A    between atoms: C24_32  and  O6_7 
REMARK    3  A    between atoms: C6_14  and  N1_8 
REMARK    4  A    between atoms: C1_9  and  C5_13 
REMARK    5  A    between atoms: C5_13  and  C9_17 
REMARK    6  A    between atoms: C10_18  and  C6_14 
REMARK    7  A    between atoms: C13_21  and  C9_17 
ROOT
HETATM    1  O2  UNK     1      32.754  -8.397  36.597  1.00  0.00    -0.269 OA
HETATM    2  N1  UNK     1      30.862  -7.771  37.861  1.00  0.00    -0.310 N 
HETATM    3  C1  UNK     1      32.142  -6.034  36.885  1.00  0.00     0.175 A 
HETATM    4  C2  UNK     1      30.982  -5.498  37.675  1.00  0.00     0.013 A 
HETATM    5  C3  UNK     1      30.261  -6.558  38.227  1.00  0.00     0.047 A 
HETATM    6  C4  UNK     1      31.995  -7.559  37.063  1.00  0.00     0.264 A 
HETATM    7  C7  UNK     1      30.594  -4.187  37.893  1.00  0.00     0.013 A 
HETATM    8  C8  UNK     1      29.136  -6.347  39.006  1.00  0.00     0.030 A 
HETATM    9  C11 UNK     1      29.461  -3.956  38.677  1.00  0.00     0.001 A 
HETATM   10  C12 UNK     1      28.737  -5.027  39.228  1.00  0.00     0.002 A 
ENDROOT
BRANCH   3  11
HETATM   11  O1  UNK     1      33.360  -5.631  37.484  1.00  0.00    -0.375 OA
HETATM   12  H7  UNK     1      33.888  -6.420  37.683  1.00  0.00     0.211 HD
ENDBRANCH   3  11
BRANCH   3  13
HETATM   13  C5  UNK     1      32.106  -5.645  35.415  1.00  0.00     0.137 C 
BRANCH  13  14
HETATM   14  C9  UNK     1      33.445  -5.137  34.922  1.00  0.00     0.169 C 
HETATM   15  O3  UNK     1      33.800  -3.964  34.994  1.00  0.00    -0.292 OA
BRANCH  14  16
HETATM   16  C13 UNK     1      34.346  -6.144  34.326  1.00  0.00     0.086 A 
HETATM   17  C16 UNK     1      33.980  -6.634  33.135  1.00  0.00     0.035 A 
HETATM   18  C18 UNK     1      34.803  -7.630  32.468  1.00  0.00     0.002 A 
HETATM   19  C19 UNK     1      35.971  -8.062  33.088  1.00  0.00     0.123 A 
HETATM   20  C23 UNK     1      34.461  -8.168  31.225  1.00  0.00     0.014 A 
HETATM   21  C24 UNK     1      36.804  -9.014  32.503  1.00  0.00     0.102 A 
HETATM   22  O4  UNK     1      36.351  -7.542  34.341  1.00  0.00    -0.271 OA
HETATM   23  C26 UNK     1      36.455  -9.546  31.263  1.00  0.00     0.040 A 
HETATM   24  C25 UNK     1      35.286  -9.124  30.626  1.00  0.00     0.004 A 
HETATM   25  C17 UNK     1      35.584  -6.588  35.003  1.00  0.00     0.302 A 
HETATM   26  O5  UNK     1      35.923  -6.141  36.094  1.00  0.00    -0.259 OA
BRANCH  21  27
HETATM   27  O6  UNK     1      37.943  -9.428  33.119  1.00  0.00    -0.353 OA
HETATM   28  C27 UNK     1      38.696 -10.454  32.474  1.00  0.00     0.210 C 
ENDBRANCH  21  27
ENDBRANCH  14  16
ENDBRANCH  13  14
ENDBRANCH   3  13
BRANCH   2  29
HETATM   29  C6  UNK     1      30.362  -9.060  38.276  1.00  0.00     0.172 C 
BRANCH  29  30
HETATM   30  C10 UNK     1      29.048  -9.388  37.628  1.00  0.00    -0.018 A 
HETATM   31  C14 UNK     1      27.923  -9.699  38.386  1.00  0.00     0.042 A 
HETATM   32  C20 UNK     1      26.719 -10.001  37.747  1.00  0.00     0.024 A 
HETATM   33 Cl1  UNK     1      27.974  -9.725  40.110  1.00  0.00    -0.084 Cl
HETATM   34  C22 UNK     1      26.648  -9.990  36.354  1.00  0.00     0.002 A 
HETATM   35  C21 UNK     1      27.779  -9.677  35.599  1.00  0.00     0.001 A 
HETATM   36  C15 UNK     1      28.981  -9.375  36.238  1.00  0.00     0.010 A 
ENDBRANCH  29  30
ENDBRANCH   2  29
TORSDOF 7
ENDMDL
MODEL 7
REMARK VINA RESULT:      -8.5      5.211      8.443
REMARK  7 active torsions:
REMARK  status: ('A' for Active; 'I' for Inactive)
REMARK    1  A    between atoms: C1_9  and  O1_2 
REMARK    2  A    between atoms: C24_32  and  O6_7 
REMARK    3  A    between atoms: C6_14  and  N1_8 
REMARK    4  A    between atoms: C1_9  and  C5_13 
REMARK    5  A    between atoms: C5_13  and  C9_17 
REMARK    6  A    between atoms: C10_18  and  C6_14 
REMARK    7  A    between atoms: C13_21  and  C9_17 
ROOT
HETATM    1  O2  UNK     1      31.031 -10.504  28.058  1.00  0.00    -0.269 OA
HETATM    2  N1  UNK     1      29.803  -9.767  29.934  1.00  0.00    -0.310 N 
HETATM    3  C1  UNK     1      31.438 -11.442  30.292  1.00  0.00     0.175 A 
HETATM    4  C2  UNK     1      30.720 -11.080  31.562  1.00  0.00     0.013 A 
HETATM    5  C3  UNK     1      29.771 -10.091  31.297  1.00  0.00     0.047 A 
HETATM    6  C4  UNK     1      30.765 -10.525  29.251  1.00  0.00     0.264 A 
HETATM    7  C7  UNK     1      30.885 -11.580  32.842  1.00  0.00     0.013 A 
HETATM    8  C8  UNK     1      28.963  -9.571  32.295  1.00  0.00     0.030 A 
HETATM    9  C11 UNK     1      30.078 -11.066  33.860  1.00  0.00     0.001 A 
HETATM   10  C12 UNK     1      29.126 -10.069  33.589  1.00  0.00     0.002 A 
ENDROOT
BRANCH   3  11
HETATM   11  O1  UNK     1      31.161 -12.786  29.949  1.00  0.00    -0.375 OA
HETATM   12  H7  UNK     1      31.983 -13.212  29.658  1.00  0.00     0.211 HD
ENDBRANCH   3  11
BRANCH   3  13
HETATM   13  C5  UNK     1      32.938 -11.197  30.354  1.00  0.00     0.137 C 
BRANCH  13  14
HETATM   14  C9  UNK     1      33.277  -9.723  30.434  1.00  0.00     0.169 C 
HETATM   15  O3  UNK     1      33.563  -9.033  29.460  1.00  0.00    -0.292 OA
BRANCH  14  16
HETATM   16  C13 UNK     1      33.250  -9.119  31.782  1.00  0.00     0.086 A 
HETATM   17  C16 UNK     1      32.404  -8.097  31.955  1.00  0.00     0.035 A 
HETATM   18  C18 UNK     1      32.306  -7.437  33.248  1.00  0.00     0.002 A 
HETATM   19  C19 UNK     1      33.104  -7.887  34.294  1.00  0.00     0.123 A 
HETATM   20  C23 UNK     1      31.436  -6.368  33.474  1.00  0.00     0.014 A 
HETATM   21  C24 UNK     1      33.058  -7.298  35.557  1.00  0.00     0.102 A 
HETATM   22  O4  UNK     1      33.992  -8.964  34.106  1.00  0.00    -0.271 OA
HETATM   23  C26 UNK     1      32.189  -6.232  35.774  1.00  0.00     0.040 A 
HETATM   24  C25 UNK     1      31.379  -5.767  34.735  1.00  0.00     0.004 A 
HETATM   25  C17 UNK     1      34.108  -9.615  32.881  1.00  0.00     0.302 A 
HETATM   26  O5  UNK     1      34.884 -10.552  32.726  1.00  0.00    -0.259 OA
BRANCH  21  27
HETATM   27  O6  UNK     1      33.844  -7.747  36.571  1.00  0.00    -0.353 OA
HETATM   28  C27 UNK     1      34.230  -6.797  37.565  1.00  0.00     0.210 C 
ENDBRANCH  21  27
ENDBRANCH  14  16
ENDBRANCH  13  14
ENDBRANCH   3  13
BRANCH   2  29
HETATM   29  C6  UNK     1      28.937  -8.780  29.333  1.00  0.00     0.172 C 
BRANCH  29  30
HETATM   30  C10 UNK     1      29.329  -7.382  29.715  1.00  0.00    -0.018 A 
HETATM   31  C14 UNK     1      28.452  -6.543  30.395  1.00  0.00     0.042 A 
HETATM   32  C20 UNK     1      28.851  -5.249  30.731  1.00  0.00     0.024 A 
HETATM   33 Cl1  UNK     1      26.866  -7.060  30.837  1.00  0.00    -0.084 Cl
HETATM   34  C22 UNK     1      30.127  -4.801  30.385  1.00  0.00     0.002 A 
HETATM   35  C21 UNK     1      31.002  -5.647  29.704  1.00  0.00     0.001 A 
HETATM   36  C15 UNK     1      30.602  -6.940  29.368  1.00  0.00     0.010 A 
ENDBRANCH  29  30
ENDBRANCH   2  29
TORSDOF 7
ENDMDL
MODEL 8
REMARK VINA RESULT:      -8.5     21.577     24.722
REMARK  7 active torsions:
REMARK  status: ('A' for Active; 'I' for Inactive)
REMARK    1  A    between atoms: C1_9  and  O1_2 
REMARK    2  A    between atoms: C24_32  and  O6_7 
REMARK    3  A    between atoms: C6_14  and  N1_8 
REMARK    4  A    between atoms: C1_9  and  C5_13 
REMARK    5  A    between atoms: C5_13  and  C9_17 
REMARK    6  A    between atoms: C10_18  and  C6_14 
REMARK    7  A    between atoms: C13_21  and  C9_17 
ROOT
HETATM    1  O2  UNK     1      18.144  -5.298  14.068  1.00  0.00    -0.269 OA
HETATM    2  N1  UNK     1      19.488  -4.969  12.156  1.00  0.00    -0.310 N 
HETATM    3  C1  UNK     1      19.012  -3.072  13.492  1.00  0.00     0.175 A 
HETATM    4  C2  UNK     1      19.858  -2.720  12.301  1.00  0.00     0.013 A 
HETATM    5  C3  UNK     1      20.110  -3.869  11.549  1.00  0.00     0.047 A 
HETATM    6  C4  UNK     1      18.804  -4.591  13.321  1.00  0.00     0.264 A 
HETATM    7  C7  UNK     1      20.361  -1.492  11.909  1.00  0.00     0.013 A 
HETATM    8  C8  UNK     1      20.869  -3.830  10.391  1.00  0.00     0.030 A 
HETATM    9  C11 UNK     1      21.129  -1.434  10.743  1.00  0.00     0.001 A 
HETATM   10  C12 UNK     1      21.382  -2.595   9.991  1.00  0.00     0.002 A 
ENDROOT
BRANCH   3  11
HETATM   11  O1  UNK     1      17.752  -2.436  13.394  1.00  0.00    -0.375 OA
HETATM   12  H7  UNK     1      17.828  -1.533  13.742  1.00  0.00     0.211 HD
ENDBRANCH   3  11
BRANCH   3  13
HETATM   13  C5  UNK     1      19.677  -2.754  14.823  1.00  0.00     0.137 C 
BRANCH  13  14
HETATM   14  C9  UNK     1      18.671  -2.402  15.898  1.00  0.00     0.169 C 
HETATM   15  O3  UNK     1      17.719  -3.114  16.204  1.00  0.00    -0.292 OA
BRANCH  14  16
HETATM   16  C13 UNK     1      18.884  -1.118  16.597  1.00  0.00     0.086 A 
HETATM   17  C16 UNK     1      18.861  -1.161  17.934  1.00  0.00     0.035 A 
HETATM   18  C18 UNK     1      19.061   0.052  18.710  1.00  0.00     0.002 A 
HETATM   19  C19 UNK     1      19.274   1.252  18.039  1.00  0.00     0.123 A 
HETATM   20  C23 UNK     1      19.047   0.054  20.107  1.00  0.00     0.014 A 
HETATM   21  C24 UNK     1      19.472   2.451  18.723  1.00  0.00     0.102 A 
HETATM   22  O4  UNK     1      19.296   1.291  16.631  1.00  0.00    -0.271 OA
HETATM   23  C26 UNK     1      19.456   2.443  20.116  1.00  0.00     0.040 A 
HETATM   24  C25 UNK     1      19.244   1.248  20.807  1.00  0.00     0.004 A 
HETATM   25  C17 UNK     1      19.109   0.147  15.862  1.00  0.00     0.302 A 
HETATM   26  O5  UNK     1      19.130   0.190  14.636  1.00  0.00    -0.259 OA
BRANCH  21  27
HETATM   27  O6  UNK     1      19.679   3.616  18.055  1.00  0.00    -0.353 OA
HETATM   28  C27 UNK     1      20.814   4.392  18.437  1.00  0.00     0.210 C 
ENDBRANCH  21  27
ENDBRANCH  14  16
ENDBRANCH  13  14
ENDBRANCH   3  13
BRANCH   2  29
HETATM   29  C6  UNK     1      19.551  -6.309  11.622  1.00  0.00     0.172 C 
BRANCH  29  30
HETATM   30  C10 UNK     1      18.283  -6.692  10.915  1.00  0.00    -0.018 A 
HETATM   31  C14 UNK     1      17.461  -7.706  11.398  1.00  0.00     0.042 A 
HETATM   32  C20 UNK     1      16.292  -8.036  10.712  1.00  0.00     0.024 A 
HETATM   33 Cl1  UNK     1      17.853  -8.580  12.834  1.00  0.00    -0.084 Cl
HETATM   34  C22 UNK     1      15.950  -7.349   9.547  1.00  0.00     0.002 A 
HETATM   35  C21 UNK     1      16.777  -6.333   9.068  1.00  0.00     0.001 A 
HETATM   36  C15 UNK     1      17.946  -6.004   9.754  1.00  0.00     0.010 A 
ENDBRANCH  29  30
ENDBRANCH   2  29
TORSDOF 7
ENDMDL
MODEL 9
REMARK VINA RESULT:      -8.4      4.841      9.490
REMARK  7 active torsions:
REMARK  status: ('A' for Active; 'I' for Inactive)
REMARK    1  A    between atoms: C1_9  and  O1_2 
REMARK    2  A    between atoms: C24_32  and  O6_7 
REMARK    3  A    between atoms: C6_14  and  N1_8 
REMARK    4  A    between atoms: C1_9  and  C5_13 
REMARK    5  A    between atoms: C5_13  and  C9_17 
REMARK    6  A    between atoms: C10_18  and  C6_14 
REMARK    7  A    between atoms: C13_21  and  C9_17 
ROOT
HETATM    1  O2  UNK     1      27.515  -7.864  31.048  1.00  0.00    -0.269 OA
HETATM    2  N1  UNK     1      29.015  -9.306  32.161  1.00  0.00    -0.310 N 
HETATM    3  C1  UNK     1      28.916  -9.449  29.799  1.00  0.00     0.175 A 
HETATM    4  C2  UNK     1      29.894 -10.431  30.379  1.00  0.00     0.013 A 
HETATM    5  C3  UNK     1      29.916 -10.306  31.769  1.00  0.00     0.047 A 
HETATM    6  C4  UNK     1      28.368  -8.739  31.054  1.00  0.00     0.264 A 
HETATM    7  C7  UNK     1      30.696 -11.361  29.739  1.00  0.00     0.013 A 
HETATM    8  C8  UNK     1      30.734 -11.096  32.559  1.00  0.00     0.030 A 
HETATM    9  C11 UNK     1      31.528 -12.165  30.520  1.00  0.00     0.001 A 
HETATM   10  C12 UNK     1      31.548 -12.033  31.919  1.00  0.00     0.002 A 
ENDROOT
BRANCH   3  11
HETATM   11  O1  UNK     1      27.850 -10.141  29.177  1.00  0.00    -0.375 OA
HETATM   12  H7  UNK     1      27.516  -9.606  28.440  1.00  0.00     0.211 HD
ENDBRANCH   3  11
BRANCH   3  13
HETATM   13  C5  UNK     1      29.552  -8.456  28.838  1.00  0.00     0.137 C 
BRANCH  13  14
HETATM   14  C9  UNK     1      30.418  -7.440  29.551  1.00  0.00     0.169 C 
HETATM   15  O3  UNK     1      30.026  -6.328  29.893  1.00  0.00    -0.292 OA
BRANCH  14  16
HETATM   16  C13 UNK     1      31.808  -7.850  29.833  1.00  0.00     0.086 A 
HETATM   17  C16 UNK     1      32.244  -7.645  31.082  1.00  0.00     0.035 A 
HETATM   18  C18 UNK     1      33.599  -8.016  31.457  1.00  0.00     0.002 A 
HETATM   19  C19 UNK     1      34.430  -8.584  30.496  1.00  0.00     0.123 A 
HETATM   20  C23 UNK     1      34.094  -7.822  32.748  1.00  0.00     0.014 A 
HETATM   21  C24 UNK     1      35.740  -8.962  30.790  1.00  0.00     0.102 A 
HETATM   22  O4  UNK     1      33.966  -8.797  29.184  1.00  0.00    -0.271 OA
HETATM   23  C26 UNK     1      36.225  -8.764  32.080  1.00  0.00     0.040 A 
HETATM   24  C25 UNK     1      35.406  -8.196  33.058  1.00  0.00     0.004 A 
HETATM   25  C17 UNK     1      32.675  -8.453  28.796  1.00  0.00     0.302 A 
HETATM   26  O5  UNK     1      32.279  -8.641  27.651  1.00  0.00    -0.259 OA
BRANCH  21  27
HETATM   27  O6  UNK     1      36.541  -9.515  29.842  1.00  0.00    -0.353 OA
HETATM   28  C27 UNK     1      37.516 -10.460  30.285  1.00  0.00     0.210 C 
ENDBRANCH  21  27
ENDBRANCH  14  16
ENDBRANCH  13  14
ENDBRANCH   3  13
BRANCH   2  29
HETATM   29  C6  UNK     1      28.795  -8.933  33.538  1.00  0.00     0.172 C 
BRANCH  29  30
HETATM   30  C10 UNK     1      29.817  -7.946  34.023  1.00  0.00    -0.018 A 
HETATM   31  C14 UNK     1      30.710  -8.267  35.041  1.00  0.00     0.042 A 
HETATM   32  C20 UNK     1      31.644  -7.322  35.467  1.00  0.00     0.024 A 
HETATM   33 Cl1  UNK     1      30.693  -9.816  35.802  1.00  0.00    -0.084 Cl
HETATM   34  C22 UNK     1      31.681  -6.061  34.871  1.00  0.00     0.002 A 
HETATM   35  C21 UNK     1      30.784  -5.745  33.851  1.00  0.00     0.001 A 
HETATM   36  C15 UNK     1      29.850  -6.689  33.426  1.00  0.00     0.010 A 
ENDBRANCH  29  30
ENDBRANCH   2  29
TORSDOF 7
ENDMDL
MODEL 10
REMARK VINA RESULT:      -8.4      2.796      4.357
REMARK  7 active torsions:
REMARK  status: ('A' for Active; 'I' for Inactive)
REMARK    1  A    between atoms: C1_9  and  O1_2 
REMARK    2  A    between atoms: C24_32  and  O6_7 
REMARK    3  A    between atoms: C6_14  and  N1_8 
REMARK    4  A    between atoms: C1_9  and  C5_13 
REMARK    5  A    between atoms: C5_13  and  C9_17 
REMARK    6  A    between atoms: C10_18  and  C6_14 
REMARK    7  A    between atoms: C13_21  and  C9_17 
ROOT
HETATM    1  O2  UNK     1      30.708  -5.823  34.788  1.00  0.00    -0.269 OA
HETATM    2  N1  UNK     1      32.569  -6.617  33.573  1.00  0.00    -0.310 N 
HETATM    3  C1  UNK     1      32.950  -5.883  35.792  1.00  0.00     0.175 A 
HETATM    4  C2  UNK     1      34.218  -6.344  35.129  1.00  0.00     0.013 A 
HETATM    5  C3  UNK     1      33.939  -6.766  33.828  1.00  0.00     0.047 A 
HETATM    6  C4  UNK     1      31.896  -6.093  34.686  1.00  0.00     0.264 A 
HETATM    7  C7  UNK     1      35.509  -6.386  35.627  1.00  0.00     0.013 A 
HETATM    8  C8  UNK     1      34.932  -7.242  32.988  1.00  0.00     0.030 A 
HETATM    9  C11 UNK     1      36.522  -6.864  34.793  1.00  0.00     0.001 A 
HETATM   10  C12 UNK     1      36.236  -7.290  33.485  1.00  0.00     0.002 A 
ENDROOT
BRANCH   3  11
HETATM   11  O1  UNK     1      33.030  -4.499  36.076  1.00  0.00    -0.375 OA
HETATM   12  H7  UNK     1      33.962  -4.258  36.201  1.00  0.00     0.211 HD
ENDBRANCH   3  11
BRANCH   3  13
HETATM   13  C5  UNK     1      32.600  -6.674  37.044  1.00  0.00     0.137 C 
BRANCH  13  14
HETATM   14  C9  UNK     1      31.942  -5.812  38.102  1.00  0.00     0.169 C 
HETATM   15  O3  UNK     1      32.550  -5.013  38.808  1.00  0.00    -0.292 OA
BRANCH  14  16
HETATM   16  C13 UNK     1      30.483  -5.974  38.262  1.00  0.00     0.086 A 
HETATM   17  C16 UNK     1      30.047  -7.221  38.479  1.00  0.00     0.035 A 
HETATM   18  C18 UNK     1      28.626  -7.481  38.650  1.00  0.00     0.002 A 
HETATM   19  C19 UNK     1      27.734  -6.415  38.583  1.00  0.00     0.123 A 
HETATM   20  C23 UNK     1      28.126  -8.765  38.880  1.00  0.00     0.014 A 
HETATM   21  C24 UNK     1      26.361  -6.597  38.738  1.00  0.00     0.102 A 
HETATM   22  O4  UNK     1      28.200  -5.106  38.354  1.00  0.00    -0.271 OA
HETATM   23  C26 UNK     1      25.872  -7.880  38.966  1.00  0.00     0.040 A 
HETATM   24  C25 UNK     1      26.751  -8.963  39.037  1.00  0.00     0.004 A 
HETATM   25  C17 UNK     1      29.553  -4.826  38.188  1.00  0.00     0.302 A 
HETATM   26  O5  UNK     1      29.949  -3.682  37.989  1.00  0.00    -0.259 OA
BRANCH  21  27
HETATM   27  O6  UNK     1      25.501  -5.547  38.670  1.00  0.00    -0.353 OA
HETATM   28  C27 UNK     1      24.162  -5.772  39.113  1.00  0.00     0.210 C 
ENDBRANCH  21  27
ENDBRANCH  14  16
ENDBRANCH  13  14
ENDBRANCH   3  13
BRANCH   2  29
HETATM   29  C6  UNK     1      31.956  -6.959  32.312  1.00  0.00     0.172 C 
BRANCH  29  30
HETATM   30  C10 UNK     1      31.102  -8.190  32.417  1.00  0.00    -0.018 A 
HETATM   31  C14 UNK     1      29.728  -8.140  32.204  1.00  0.00     0.042 A 
HETATM   32  C20 UNK     1      28.968  -9.305  32.313  1.00  0.00     0.024 A 
HETATM   33 Cl1  UNK     1      28.928  -6.663  31.808  1.00  0.00    -0.084 Cl
HETATM   34  C22 UNK     1      29.586 -10.514  32.633  1.00  0.00     0.002 A 
HETATM   35  C21 UNK     1      30.964 -10.557  32.845  1.00  0.00     0.001 A 
HETATM   36  C15 UNK     1      31.724  -9.393  32.737  1.00  0.00     0.010 A 
ENDBRANCH  29  30
ENDBRANCH   2  29
TORSDOF 7
ENDMDL
