MODEL 1
REMARK VINA RESULT:     -10.2      0.000      0.000
REMARK  7 active torsions:
REMARK  status: ('A' for Active; 'I' for Inactive)
REMARK    1  A    between atoms: C19_27  and  S1_1 
REMARK    2  A    between atoms: N1_8  and  S1_1 
REMARK    3  A    between atoms: C14_22  and  O2_3 
REMARK    4  A    between atoms: C15_23  and  O2_3 
REMARK    5  A    between atoms: C8_16  and  N1_8 
REMARK    6  A    between atoms: C15_23  and  C8_16 
REMARK    7  A    between atoms: C8_16  and  C9_17 
ROOT
HETATM    1  O4  UNK     1      19.903   6.207  32.244  1.00  0.00    -0.262 OA
HETATM    2  C15 UNK     1      18.708   6.465  32.309  1.00  0.00     0.288 C 
ENDROOT
BRANCH   2   3
HETATM    3  O2  UNK     1      17.673   5.568  31.978  1.00  0.00    -0.277 OA
BRANCH   3   4
HETATM    4  C14 UNK     1      18.100   4.329  31.612  1.00  0.00     0.082 A 
HETATM    5  C13 UNK     1      18.097   3.288  32.532  1.00  0.00     0.075 A 
HETATM    6  C10 UNK     1      18.541   2.025  32.135  1.00  0.00     0.093 A 
HETATM    7  O1  UNK     1      18.525   1.017  33.116  1.00  0.00    -0.274 OA
HETATM    8  C7  UNK     1      18.986   1.760  30.842  1.00  0.00     0.005 A 
HETATM    9  C11 UNK     1      18.971  -0.269  32.853  1.00  0.00     0.295 A 
HETATM   10  O3  UNK     1      18.961  -1.131  33.726  1.00  0.00    -0.259 OA
HETATM   11  C6  UNK     1      19.445  -0.549  31.473  1.00  0.00     0.025 A 
HETATM   12  C3  UNK     1      19.433   0.397  30.514  1.00  0.00    -0.033 A 
HETATM   13  C5  UNK     1      19.944  -1.954  31.231  1.00  0.00     0.045 C 
HETATM   14  C1  UNK     1      19.871   0.097  29.097  1.00  0.00     0.040 C 
HETATM   15  C2  UNK     1      20.035  -1.394  28.793  1.00  0.00     0.005 C 
HETATM   16  C4  UNK     1      20.739  -2.107  29.936  1.00  0.00     0.005 C 
HETATM   17  C12 UNK     1      18.988   2.827  29.932  1.00  0.00     0.017 A 
HETATM   18  C18 UNK     1      18.548   4.100  30.314  1.00  0.00     0.038 A 
ENDBRANCH   3   4
ENDBRANCH   2   3
BRANCH   2  19
HETATM   19  C8  UNK     1      18.120   7.786  32.761  1.00  0.00     0.196 C 
BRANCH  19  20
HETATM   20  N1  UNK     1      16.738   7.515  33.215  1.00  0.00    -0.301 N 
HETATM   21  H12 UNK     1      16.607   6.790  33.932  1.00  0.00     0.173 HD
BRANCH  20  22
HETATM   22  S1  UNK     1      15.419   8.053  32.288  1.00  0.00     0.259 S 
HETATM   23  O5  UNK     1      14.441   6.989  32.178  1.00  0.00    -0.201 OA
HETATM   24  O6  UNK     1      15.921   8.709  31.096  1.00  0.00    -0.201 OA
BRANCH  22  25
HETATM   25  C19 UNK     1      14.738   9.315  33.323  1.00  0.00     0.079 A 
HETATM   26  C20 UNK     1      13.820  10.203  32.790  1.00  0.00     0.026 A 
HETATM   27  C22 UNK     1      13.283  11.199  33.606  1.00  0.00     0.008 A 
HETATM   28  C24 UNK     1      13.671  11.290  34.943  1.00  0.00    -0.062 A 
HETATM   29  C23 UNK     1      14.598  10.385  35.463  1.00  0.00     0.008 A 
HETATM   30  C25 UNK     1      13.098  12.353  35.815  1.00  0.00     0.048 C 
HETATM   31  C21 UNK     1      15.135   9.391  34.647  1.00  0.00     0.026 A 
ENDBRANCH  22  25
ENDBRANCH  20  22
ENDBRANCH  19  20
BRANCH  19  32
HETATM   32  C9  UNK     1      18.962   8.463  33.860  1.00  0.00     0.010 C 
HETATM   33  C16 UNK     1      18.837   7.789  35.231  1.00  0.00     0.012 C 
HETATM   34  C17 UNK     1      18.630   9.953  33.980  1.00  0.00     0.012 C 
ENDBRANCH  19  32
ENDBRANCH   2  19
TORSDOF 7
ENDMDL
MODEL 2
REMARK VINA RESULT:      -9.8     16.209     21.163
REMARK  7 active torsions:
REMARK  status: ('A' for Active; 'I' for Inactive)
REMARK    1  A    between atoms: C19_27  and  S1_1 
REMARK    2  A    between atoms: N1_8  and  S1_1 
REMARK    3  A    between atoms: C14_22  and  O2_3 
REMARK    4  A    between atoms: C15_23  and  O2_3 
REMARK    5  A    between atoms: C8_16  and  N1_8 
REMARK    6  A    between atoms: C15_23  and  C8_16 
REMARK    7  A    between atoms: C8_16  and  C9_17 
ROOT
HETATM    1  O4  UNK     1      21.265  -3.282  13.767  1.00  0.00    -0.262 OA
HETATM    2  C15 UNK     1      20.276  -3.379  13.052  1.00  0.00     0.288 C 
ENDROOT
BRANCH   2   3
HETATM    3  O2  UNK     1      19.004  -2.861  13.366  1.00  0.00    -0.277 OA
BRANCH   3   4
HETATM    4  C14 UNK     1      18.980  -2.060  14.465  1.00  0.00     0.082 A 
HETATM    5  C13 UNK     1      19.164  -0.689  14.335  1.00  0.00     0.075 A 
HETATM    6  C10 UNK     1      19.137   0.115  15.477  1.00  0.00     0.093 A 
HETATM    7  O1  UNK     1      19.343   1.492  15.280  1.00  0.00    -0.274 OA
HETATM    8  C7  UNK     1      18.926  -0.403  16.752  1.00  0.00     0.005 A 
HETATM    9  C11 UNK     1      19.370   2.387  16.337  1.00  0.00     0.295 A 
HETATM   10  O3  UNK     1      19.565   3.583  16.147  1.00  0.00    -0.259 OA
HETATM   11  C6  UNK     1      19.145   1.832  17.697  1.00  0.00     0.025 A 
HETATM   12  C3  UNK     1      18.911   0.521  17.897  1.00  0.00    -0.033 A 
HETATM   13  C5  UNK     1      19.204   2.835  18.825  1.00  0.00     0.045 C 
HETATM   14  C1  UNK     1      18.632  -0.035  19.277  1.00  0.00     0.040 C 
HETATM   15  C2  UNK     1      18.353   1.031  20.339  1.00  0.00     0.005 C 
HETATM   16  C4  UNK     1      19.322   2.195  20.207  1.00  0.00     0.005 C 
HETATM   17  C12 UNK     1      18.749  -1.791  16.861  1.00  0.00     0.017 A 
HETATM   18  C18 UNK     1      18.775  -2.611  15.727  1.00  0.00     0.038 A 
ENDBRANCH   3   4
ENDBRANCH   2   3
BRANCH   2  19
HETATM   19  C8  UNK     1      20.235  -4.064  11.701  1.00  0.00     0.196 C 
BRANCH  19  20
HETATM   20  N1  UNK     1      19.147  -5.066  11.754  1.00  0.00    -0.301 N 
HETATM   21  H12 UNK     1      18.182  -4.725  11.663  1.00  0.00     0.173 HD
BRANCH  20  22
HETATM   22  S1  UNK     1      19.454  -6.620  12.371  1.00  0.00     0.259 S 
HETATM   23  O5  UNK     1      20.815  -6.681  12.867  1.00  0.00    -0.201 OA
HETATM   24  O6  UNK     1      18.979  -7.605  11.419  1.00  0.00    -0.201 OA
BRANCH  22  25
HETATM   25  C19 UNK     1      18.364  -6.680  13.762  1.00  0.00     0.079 A 
HETATM   26  C20 UNK     1      18.802  -6.200  14.984  1.00  0.00     0.026 A 
HETATM   27  C22 UNK     1      17.942  -6.248  16.081  1.00  0.00     0.008 A 
HETATM   28  C24 UNK     1      16.658  -6.773  15.940  1.00  0.00    -0.062 A 
HETATM   29  C23 UNK     1      16.234  -7.253  14.700  1.00  0.00     0.008 A 
HETATM   30  C25 UNK     1      15.739  -6.824  17.112  1.00  0.00     0.048 C 
HETATM   31  C21 UNK     1      17.093  -7.206  13.603  1.00  0.00     0.026 A 
ENDBRANCH  22  25
ENDBRANCH  20  22
ENDBRANCH  19  20
BRANCH  19  32
HETATM   32  C9  UNK     1      20.042  -3.070  10.540  1.00  0.00     0.010 C 
HETATM   33  C16 UNK     1      19.867  -3.746   9.175  1.00  0.00     0.012 C 
HETATM   34  C17 UNK     1      21.189  -2.056  10.476  1.00  0.00     0.012 C 
ENDBRANCH  19  32
ENDBRANCH   2  19
TORSDOF 7
ENDMDL
MODEL 3
REMARK VINA RESULT:      -9.8      7.393     13.683
REMARK  7 active torsions:
REMARK  status: ('A' for Active; 'I' for Inactive)
REMARK    1  A    between atoms: C19_27  and  S1_1 
REMARK    2  A    between atoms: N1_8  and  S1_1 
REMARK    3  A    between atoms: C14_22  and  O2_3 
REMARK    4  A    between atoms: C15_23  and  O2_3 
REMARK    5  A    between atoms: C8_16  and  N1_8 
REMARK    6  A    between atoms: C15_23  and  C8_16 
REMARK    7  A    between atoms: C8_16  and  C9_17 
ROOT
HETATM    1  O4  UNK     1      18.308  -3.924  36.811  1.00  0.00    -0.262 OA
HETATM    2  C15 UNK     1      19.421  -4.335  36.507  1.00  0.00     0.288 C 
ENDROOT
BRANCH   2   3
HETATM    3  O2  UNK     1      20.511  -3.515  36.151  1.00  0.00    -0.277 OA
BRANCH   3   4
HETATM    4  C14 UNK     1      20.361  -2.867  34.964  1.00  0.00     0.082 A 
HETATM    5  C13 UNK     1      19.667  -1.665  34.906  1.00  0.00     0.075 A 
HETATM    6  C10 UNK     1      19.524  -1.018  33.677  1.00  0.00     0.093 A 
HETATM    7  O1  UNK     1      18.801   0.188  33.683  1.00  0.00    -0.274 OA
HETATM    8  C7  UNK     1      20.057  -1.528  32.496  1.00  0.00     0.005 A 
HETATM    9  C11 UNK     1      18.564   0.906  32.521  1.00  0.00     0.295 A 
HETATM   10  O3  UNK     1      17.918   1.949  32.545  1.00  0.00    -0.259 OA
HETATM   11  C6  UNK     1      19.134   0.360  31.263  1.00  0.00     0.025 A 
HETATM   12  C3  UNK     1      19.859  -0.775  31.247  1.00  0.00    -0.033 A 
HETATM   13  C5  UNK     1      18.836   1.159  30.016  1.00  0.00     0.045 C 
HETATM   14  C1  UNK     1      20.480  -1.303  29.972  1.00  0.00     0.040 C 
HETATM   15  C2  UNK     1      20.463  -0.311  28.807  1.00  0.00     0.005 C 
HETATM   16  C4  UNK     1      19.123   0.401  28.720  1.00  0.00     0.005 C 
HETATM   17  C12 UNK     1      20.748  -2.747  32.576  1.00  0.00     0.017 A 
HETATM   18  C18 UNK     1      20.899  -3.409  33.800  1.00  0.00     0.038 A 
ENDBRANCH   3   4
ENDBRANCH   2   3
BRANCH   2  19
HETATM   19  C8  UNK     1      19.837  -5.791  36.466  1.00  0.00     0.196 C 
BRANCH  19  20
HETATM   20  N1  UNK     1      19.335  -6.422  37.707  1.00  0.00    -0.301 N 
HETATM   21  H12 UNK     1      18.371  -6.210  37.992  1.00  0.00     0.173 HD
BRANCH  20  22
HETATM   22  S1  UNK     1      20.431  -7.094  38.820  1.00  0.00     0.259 S 
HETATM   23  O5  UNK     1      19.697  -7.709  39.908  1.00  0.00    -0.201 OA
HETATM   24  O6  UNK     1      21.471  -6.123  39.098  1.00  0.00    -0.201 OA
BRANCH  22  25
HETATM   25  C19 UNK     1      21.173  -8.384  37.865  1.00  0.00     0.079 A 
HETATM   26  C20 UNK     1      22.479  -8.237  37.431  1.00  0.00     0.026 A 
HETATM   27  C22 UNK     1      23.064  -9.255  36.677  1.00  0.00     0.008 A 
HETATM   28  C24 UNK     1      22.335 -10.403  36.369  1.00  0.00    -0.062 A 
HETATM   29  C23 UNK     1      21.019 -10.533  36.815  1.00  0.00     0.008 A 
HETATM   30  C25 UNK     1      22.960 -11.490  35.564  1.00  0.00     0.048 C 
HETATM   31  C21 UNK     1      20.434  -9.516  37.568  1.00  0.00     0.026 A 
ENDBRANCH  22  25
ENDBRANCH  20  22
ENDBRANCH  19  20
BRANCH  19  32
HETATM   32  C9  UNK     1      19.324  -6.518  35.207  1.00  0.00     0.010 C 
HETATM   33  C16 UNK     1      18.139  -7.451  35.477  1.00  0.00     0.012 C 
HETATM   34  C17 UNK     1      20.449  -7.290  34.511  1.00  0.00     0.012 C 
ENDBRANCH  19  32
ENDBRANCH   2  19
TORSDOF 7
ENDMDL
MODEL 4
REMARK VINA RESULT:      -9.8     17.370     20.300
REMARK  7 active torsions:
REMARK  status: ('A' for Active; 'I' for Inactive)
REMARK    1  A    between atoms: C19_27  and  S1_1 
REMARK    2  A    between atoms: N1_8  and  S1_1 
REMARK    3  A    between atoms: C14_22  and  O2_3 
REMARK    4  A    between atoms: C15_23  and  O2_3 
REMARK    5  A    between atoms: C8_16  and  N1_8 
REMARK    6  A    between atoms: C15_23  and  C8_16 
REMARK    7  A    between atoms: C8_16  and  C9_17 
ROOT
HETATM    1  O4  UNK     1      34.811  -4.229  34.977  1.00  0.00    -0.262 OA
HETATM    2  C15 UNK     1      34.898  -5.367  35.421  1.00  0.00     0.288 C 
ENDROOT
BRANCH   2   3
HETATM    3  O2  UNK     1      34.857  -5.701  36.789  1.00  0.00    -0.277 OA
BRANCH   3   4
HETATM    4  C14 UNK     1      33.669  -6.218  37.205  1.00  0.00     0.082 A 
HETATM    5  C13 UNK     1      32.625  -5.374  37.560  1.00  0.00     0.075 A 
HETATM    6  C10 UNK     1      31.415  -5.926  37.985  1.00  0.00     0.093 A 
HETATM    7  O1  UNK     1      30.402  -5.019  38.342  1.00  0.00    -0.274 OA
HETATM    8  C7  UNK     1      31.206  -7.301  38.064  1.00  0.00     0.005 A 
HETATM    9  C11 UNK     1      29.168  -5.444  38.810  1.00  0.00     0.295 A 
HETATM   10  O3  UNK     1      28.302  -4.636  39.130  1.00  0.00    -0.259 OA
HETATM   11  C6  UNK     1      28.948  -6.911  38.894  1.00  0.00     0.025 A 
HETATM   12  C3  UNK     1      29.896  -7.792  38.521  1.00  0.00    -0.033 A 
HETATM   13  C5  UNK     1      27.601  -7.335  39.428  1.00  0.00     0.045 C 
HETATM   14  C1  UNK     1      29.653  -9.285  38.560  1.00  0.00     0.040 C 
HETATM   15  C2  UNK     1      28.188  -9.677  38.766  1.00  0.00     0.005 C 
HETATM   16  C4  UNK     1      27.537  -8.808  39.829  1.00  0.00     0.005 C 
HETATM   17  C12 UNK     1      32.277  -8.135  37.708  1.00  0.00     0.017 A 
HETATM   18  C18 UNK     1      33.497  -7.598  37.281  1.00  0.00     0.038 A 
ENDBRANCH   3   4
ENDBRANCH   2   3
BRANCH   2  19
HETATM   19  C8  UNK     1      35.057  -6.622  34.587  1.00  0.00     0.196 C 
BRANCH  19  20
HETATM   20  N1  UNK     1      33.879  -6.704  33.695  1.00  0.00    -0.301 N 
HETATM   21  H12 UNK     1      33.385  -5.829  33.479  1.00  0.00     0.173 HD
BRANCH  20  22
HETATM   22  S1  UNK     1      33.131  -8.204  33.412  1.00  0.00     0.259 S 
HETATM   23  O5  UNK     1      33.778  -9.224  34.215  1.00  0.00    -0.201 OA
HETATM   24  O6  UNK     1      32.978  -8.389  31.982  1.00  0.00    -0.201 OA
BRANCH  22  25
HETATM   25  C19 UNK     1      31.513  -7.934  34.073  1.00  0.00     0.079 A 
HETATM   26  C20 UNK     1      30.722  -9.025  34.390  1.00  0.00     0.026 A 
HETATM   27  C22 UNK     1      29.447  -8.812  34.911  1.00  0.00     0.008 A 
HETATM   28  C24 UNK     1      28.981  -7.512  35.108  1.00  0.00    -0.062 A 
HETATM   29  C23 UNK     1      29.792  -6.424  34.782  1.00  0.00     0.008 A 
HETATM   30  C25 UNK     1      27.617  -7.284  35.665  1.00  0.00     0.048 C 
HETATM   31  C21 UNK     1      31.068  -6.637  34.261  1.00  0.00     0.026 A 
ENDBRANCH  22  25
ENDBRANCH  20  22
ENDBRANCH  19  20
BRANCH  19  32
HETATM   32  C9  UNK     1      36.378  -6.643  33.795  1.00  0.00     0.010 C 
HETATM   33  C16 UNK     1      36.190  -6.465  32.284  1.00  0.00     0.012 C 
HETATM   34  C17 UNK     1      37.177  -7.920  34.075  1.00  0.00     0.012 C 
ENDBRANCH  19  32
ENDBRANCH   2  19
TORSDOF 7
ENDMDL
MODEL 5
REMARK VINA RESULT:      -9.8      1.650      2.363
REMARK  7 active torsions:
REMARK  status: ('A' for Active; 'I' for Inactive)
REMARK    1  A    between atoms: C19_27  and  S1_1 
REMARK    2  A    between atoms: N1_8  and  S1_1 
REMARK    3  A    between atoms: C14_22  and  O2_3 
REMARK    4  A    between atoms: C15_23  and  O2_3 
REMARK    5  A    between atoms: C8_16  and  N1_8 
REMARK    6  A    between atoms: C15_23  and  C8_16 
REMARK    7  A    between atoms: C8_16  and  C9_17 
ROOT
HETATM    1  O4  UNK     1      18.947   5.682  30.302  1.00  0.00    -0.262 OA
HETATM    2  C15 UNK     1      18.274   5.676  31.326  1.00  0.00     0.288 C 
ENDROOT
BRANCH   2   3
HETATM    3  O2  UNK     1      17.407   4.634  31.711  1.00  0.00    -0.277 OA
BRANCH   3   4
HETATM    4  C14 UNK     1      17.972   3.397  31.689  1.00  0.00     0.082 A 
HETATM    5  C13 UNK     1      18.430   2.859  30.493  1.00  0.00     0.075 A 
HETATM    6  C10 UNK     1      19.005   1.586  30.494  1.00  0.00     0.093 A 
HETATM    7  O1  UNK     1      19.439   1.092  29.250  1.00  0.00    -0.274 OA
HETATM    8  C7  UNK     1      19.145   0.828  31.654  1.00  0.00     0.005 A 
HETATM    9  C11 UNK     1      19.996  -0.169  29.117  1.00  0.00     0.295 A 
HETATM   10  O3  UNK     1      20.355  -0.588  28.021  1.00  0.00    -0.259 OA
HETATM   11  C6  UNK     1      20.144  -0.976  30.356  1.00  0.00     0.025 A 
HETATM   12  C3  UNK     1      19.767  -0.502  31.559  1.00  0.00    -0.033 A 
HETATM   13  C5  UNK     1      20.735  -2.353  30.167  1.00  0.00     0.045 C 
HETATM   14  C1  UNK     1      19.964  -1.305  32.826  1.00  0.00     0.040 C 
HETATM   15  C2  UNK     1      20.869  -2.528  32.660  1.00  0.00     0.005 C 
HETATM   16  C4  UNK     1      20.548  -3.271  31.374  1.00  0.00     0.005 C 
HETATM   17  C12 UNK     1      18.669   1.388  32.849  1.00  0.00     0.017 A 
HETATM   18  C18 UNK     1      18.088   2.662  32.866  1.00  0.00     0.038 A 
ENDBRANCH   3   4
ENDBRANCH   2   3
BRANCH   2  19
HETATM   19  C8  UNK     1      18.254   6.776  32.368  1.00  0.00     0.196 C 
BRANCH  19  20
HETATM   20  N1  UNK     1      16.863   6.880  32.864  1.00  0.00    -0.301 N 
HETATM   21  H12 UNK     1      16.549   6.181  33.548  1.00  0.00     0.173 HD
BRANCH  20  22
HETATM   22  S1  UNK     1      15.730   7.824  32.018  1.00  0.00     0.259 S 
HETATM   23  O5  UNK     1      14.489   7.085  31.887  1.00  0.00    -0.201 OA
HETATM   24  O6  UNK     1      16.371   8.388  30.846  1.00  0.00    -0.201 OA
BRANCH  22  25
HETATM   25  C19 UNK     1      15.453   9.157  33.146  1.00  0.00     0.079 A 
HETATM   26  C20 UNK     1      14.156   9.493  33.491  1.00  0.00     0.026 A 
HETATM   27  C22 UNK     1      13.938  10.545  34.380  1.00  0.00     0.008 A 
HETATM   28  C24 UNK     1      15.021  11.244  34.913  1.00  0.00    -0.062 A 
HETATM   29  C23 UNK     1      16.322  10.892  34.554  1.00  0.00     0.008 A 
HETATM   30  C25 UNK     1      14.788  12.368  35.864  1.00  0.00     0.048 C 
HETATM   31  C21 UNK     1      16.540   9.841  33.664  1.00  0.00     0.026 A 
ENDBRANCH  22  25
ENDBRANCH  20  22
ENDBRANCH  19  20
BRANCH  19  32
HETATM   32  C9  UNK     1      19.253   6.523  33.514  1.00  0.00     0.010 C 
HETATM   33  C16 UNK     1      19.158   7.550  34.648  1.00  0.00     0.012 C 
HETATM   34  C17 UNK     1      20.692   6.451  32.994  1.00  0.00     0.012 C 
ENDBRANCH  19  32
ENDBRANCH   2  19
TORSDOF 7
ENDMDL
MODEL 6
REMARK VINA RESULT:      -9.7     17.036     19.346
REMARK  7 active torsions:
REMARK  status: ('A' for Active; 'I' for Inactive)
REMARK    1  A    between atoms: C19_27  and  S1_1 
REMARK    2  A    between atoms: N1_8  and  S1_1 
REMARK    3  A    between atoms: C14_22  and  O2_3 
REMARK    4  A    between atoms: C15_23  and  O2_3 
REMARK    5  A    between atoms: C8_16  and  N1_8 
REMARK    6  A    between atoms: C15_23  and  C8_16 
REMARK    7  A    between atoms: C8_16  and  C9_17 
ROOT
HETATM    1  O4  UNK     1      33.191  -6.417  35.641  1.00  0.00    -0.262 OA
HETATM    2  C15 UNK     1      32.159  -5.818  35.366  1.00  0.00     0.288 C 
ENDROOT
BRANCH   2   3
HETATM    3  O2  UNK     1      31.902  -5.182  34.135  1.00  0.00    -0.277 OA
BRANCH   3   4
HETATM    4  C14 UNK     1      31.386  -5.999  33.178  1.00  0.00     0.082 A 
HETATM    5  C13 UNK     1      32.200  -6.920  32.531  1.00  0.00     0.075 A 
HETATM    6  C10 UNK     1      31.649  -7.748  31.550  1.00  0.00     0.093 A 
HETATM    7  O1  UNK     1      32.528  -8.649  30.924  1.00  0.00    -0.274 OA
HETATM    8  C7  UNK     1      30.303  -7.693  31.194  1.00  0.00     0.005 A 
HETATM    9  C11 UNK     1      32.107  -9.500  29.914  1.00  0.00     0.295 A 
HETATM   10  O3  UNK     1      32.892 -10.270  29.369  1.00  0.00    -0.259 OA
HETATM   11  C6  UNK     1      30.672  -9.440  29.535  1.00  0.00     0.025 A 
HETATM   12  C3  UNK     1      29.811  -8.607  30.151  1.00  0.00    -0.033 A 
HETATM   13  C5  UNK     1      30.256 -10.366  28.416  1.00  0.00     0.045 C 
HETATM   14  C1  UNK     1      28.339  -8.583  29.799  1.00  0.00     0.040 C 
HETATM   15  C2  UNK     1      27.883  -9.754  28.926  1.00  0.00     0.005 C 
HETATM   16  C4  UNK     1      28.889 -10.034  27.822  1.00  0.00     0.005 C 
HETATM   17  C12 UNK     1      29.501  -6.751  31.855  1.00  0.00     0.017 A 
HETATM   18  C18 UNK     1      30.038  -5.913  32.839  1.00  0.00     0.038 A 
ENDBRANCH   3   4
ENDBRANCH   2   3
BRANCH   2  19
HETATM   19  C8  UNK     1      30.967  -5.657  36.288  1.00  0.00     0.196 C 
BRANCH  19  20
HETATM   20  N1  UNK     1      30.631  -7.003  36.804  1.00  0.00    -0.301 N 
HETATM   21  H12 UNK     1      31.405  -7.593  37.130  1.00  0.00     0.173 HD
BRANCH  20  22
HETATM   22  S1  UNK     1      29.114  -7.688  36.460  1.00  0.00     0.259 S 
HETATM   23  O5  UNK     1      28.261  -6.689  35.847  1.00  0.00    -0.201 OA
HETATM   24  O6  UNK     1      28.657  -8.423  37.624  1.00  0.00    -0.201 OA
BRANCH  22  25
HETATM   25  C19 UNK     1      29.527  -8.884  35.225  1.00  0.00     0.079 A 
HETATM   26  C20 UNK     1      28.547  -9.316  34.348  1.00  0.00     0.026 A 
HETATM   27  C22 UNK     1      28.873 -10.259  33.374  1.00  0.00     0.008 A 
HETATM   28  C24 UNK     1      30.174 -10.757  33.292  1.00  0.00    -0.062 A 
HETATM   29  C23 UNK     1      31.148 -10.310  34.185  1.00  0.00     0.008 A 
HETATM   30  C25 UNK     1      30.522 -11.765  32.251  1.00  0.00     0.048 C 
HETATM   31  C21 UNK     1      30.823  -9.367  35.159  1.00  0.00     0.026 A 
ENDBRANCH  22  25
ENDBRANCH  20  22
ENDBRANCH  19  20
BRANCH  19  32
HETATM   32  C9  UNK     1      31.234  -4.656  37.429  1.00  0.00     0.010 C 
HETATM   33  C16 UNK     1      32.077  -5.237  38.570  1.00  0.00     0.012 C 
HETATM   34  C17 UNK     1      29.927  -4.084  37.987  1.00  0.00     0.012 C 
ENDBRANCH  19  32
ENDBRANCH   2  19
TORSDOF 7
ENDMDL
MODEL 7
REMARK VINA RESULT:      -9.7     16.657     18.962
REMARK  7 active torsions:
REMARK  status: ('A' for Active; 'I' for Inactive)
REMARK    1  A    between atoms: C19_27  and  S1_1 
REMARK    2  A    between atoms: N1_8  and  S1_1 
REMARK    3  A    between atoms: C14_22  and  O2_3 
REMARK    4  A    between atoms: C15_23  and  O2_3 
REMARK    5  A    between atoms: C8_16  and  N1_8 
REMARK    6  A    between atoms: C15_23  and  C8_16 
REMARK    7  A    between atoms: C8_16  and  C9_17 
ROOT
HETATM    1  O4  UNK     1      33.217  -6.380  35.687  1.00  0.00    -0.262 OA
HETATM    2  C15 UNK     1      32.184  -5.789  35.398  1.00  0.00     0.288 C 
ENDROOT
BRANCH   2   3
HETATM    3  O2  UNK     1      31.941  -5.149  34.166  1.00  0.00    -0.277 OA
BRANCH   3   4
HETATM    4  C14 UNK     1      31.455  -5.968  33.195  1.00  0.00     0.082 A 
HETATM    5  C13 UNK     1      30.104  -5.943  32.871  1.00  0.00     0.075 A 
HETATM    6  C10 UNK     1      29.627  -6.794  31.871  1.00  0.00     0.093 A 
HETATM    7  O1  UNK     1      28.249  -6.730  31.599  1.00  0.00    -0.274 OA
HETATM    8  C7  UNK     1      30.456  -7.670  31.174  1.00  0.00     0.005 A 
HETATM    9  C11 UNK     1      27.651  -7.546  30.651  1.00  0.00     0.295 A 
HETATM   10  O3  UNK     1      26.445  -7.486  30.438  1.00  0.00    -0.259 OA
HETATM   11  C6  UNK     1      28.537  -8.480  29.909  1.00  0.00     0.025 A 
HETATM   12  C3  UNK     1      29.864  -8.527  30.135  1.00  0.00    -0.033 A 
HETATM   13  C5  UNK     1      27.846  -9.368  28.902  1.00  0.00     0.045 C 
HETATM   14  C1  UNK     1      30.773  -9.442  29.343  1.00  0.00     0.040 C 
HETATM   15  C2  UNK     1      30.116 -10.065  28.109  1.00  0.00     0.005 C 
HETATM   16  C4  UNK     1      28.706 -10.537  28.424  1.00  0.00     0.005 C 
HETATM   17  C12 UNK     1      31.815  -7.683  31.523  1.00  0.00     0.017 A 
HETATM   18  C18 UNK     1      32.310  -6.838  32.523  1.00  0.00     0.038 A 
ENDBRANCH   3   4
ENDBRANCH   2   3
BRANCH   2  19
HETATM   19  C8  UNK     1      30.976  -5.644  36.302  1.00  0.00     0.196 C 
BRANCH  19  20
HETATM   20  N1  UNK     1      30.635  -6.998  36.793  1.00  0.00    -0.301 N 
HETATM   21  H12 UNK     1      31.408  -7.600  37.101  1.00  0.00     0.173 HD
BRANCH  20  22
HETATM   22  S1  UNK     1      29.111  -7.667  36.446  1.00  0.00     0.259 S 
HETATM   23  O5  UNK     1      28.262  -6.652  35.854  1.00  0.00    -0.201 OA
HETATM   24  O6  UNK     1      28.655  -8.417  37.600  1.00  0.00    -0.201 OA
BRANCH  22  25
HETATM   25  C19 UNK     1      29.509  -8.846  35.190  1.00  0.00     0.079 A 
HETATM   26  C20 UNK     1      28.518  -9.268  34.321  1.00  0.00     0.026 A 
HETATM   27  C22 UNK     1      28.832 -10.198  33.331  1.00  0.00     0.008 A 
HETATM   28  C24 UNK     1      30.132 -10.691  33.223  1.00  0.00    -0.062 A 
HETATM   29  C23 UNK     1      31.118 -10.254  34.107  1.00  0.00     0.008 A 
HETATM   30  C25 UNK     1      30.468 -11.685  32.164  1.00  0.00     0.048 C 
HETATM   31  C21 UNK     1      30.805  -9.325  35.099  1.00  0.00     0.026 A 
ENDBRANCH  22  25
ENDBRANCH  20  22
ENDBRANCH  19  20
BRANCH  19  32
HETATM   32  C9  UNK     1      31.219  -4.659  37.461  1.00  0.00     0.010 C 
HETATM   33  C16 UNK     1      32.058  -5.247  38.601  1.00  0.00     0.012 C 
HETATM   34  C17 UNK     1      29.900  -4.110  38.014  1.00  0.00     0.012 C 
ENDBRANCH  19  32
ENDBRANCH   2  19
TORSDOF 7
ENDMDL
MODEL 8
REMARK VINA RESULT:      -9.5      3.021      9.744
REMARK  7 active torsions:
REMARK  status: ('A' for Active; 'I' for Inactive)
REMARK    1  A    between atoms: C19_27  and  S1_1 
REMARK    2  A    between atoms: N1_8  and  S1_1 
REMARK    3  A    between atoms: C14_22  and  O2_3 
REMARK    4  A    between atoms: C15_23  and  O2_3 
REMARK    5  A    between atoms: C8_16  and  N1_8 
REMARK    6  A    between atoms: C15_23  and  C8_16 
REMARK    7  A    between atoms: C8_16  and  C9_17 
ROOT
HETATM    1  O4  UNK     1      17.857   2.360  32.050  1.00  0.00    -0.262 OA
HETATM    2  C15 UNK     1      18.680   2.381  31.144  1.00  0.00     0.288 C 
ENDROOT
BRANCH   2   3
HETATM    3  O2  UNK     1      19.178   3.552  30.538  1.00  0.00    -0.277 OA
BRANCH   3   4
HETATM    4  C14 UNK     1      18.840   4.703  31.179  1.00  0.00     0.082 A 
HETATM    5  C13 UNK     1      17.505   4.999  31.427  1.00  0.00     0.075 A 
HETATM    6  C10 UNK     1      17.180   6.187  32.085  1.00  0.00     0.093 A 
HETATM    7  O1  UNK     1      15.812   6.435  32.295  1.00  0.00    -0.274 OA
HETATM    8  C7  UNK     1      18.147   7.094  32.513  1.00  0.00     0.005 A 
HETATM    9  C11 UNK     1      15.363   7.594  32.908  1.00  0.00     0.295 A 
HETATM   10  O3  UNK     1      14.164   7.798  33.069  1.00  0.00    -0.259 OA
HETATM   11  C6  UNK     1      16.395   8.560  33.363  1.00  0.00     0.025 A 
HETATM   12  C3  UNK     1      17.711   8.320  33.202  1.00  0.00    -0.033 A 
HETATM   13  C5  UNK     1      15.866   9.820  34.007  1.00  0.00     0.045 C 
HETATM   14  C1  UNK     1      18.762   9.281  33.711  1.00  0.00     0.040 C 
HETATM   15  C2  UNK     1      18.223  10.360  34.653  1.00  0.00     0.005 C 
HETATM   16  C4  UNK     1      16.911  10.926  34.137  1.00  0.00     0.005 C 
HETATM   17  C12 UNK     1      19.487   6.779  32.246  1.00  0.00     0.017 A 
HETATM   18  C18 UNK     1      19.831   5.593  31.586  1.00  0.00     0.038 A 
ENDBRANCH   3   4
ENDBRANCH   2   3
BRANCH   2  19
HETATM   19  C8  UNK     1      19.321   1.161  30.513  1.00  0.00     0.196 C 
BRANCH  19  20
HETATM   20  N1  UNK     1      18.743  -0.027  31.179  1.00  0.00    -0.301 N 
HETATM   21  H12 UNK     1      17.772   0.039  31.510  1.00  0.00     0.173 HD
BRANCH  20  22
HETATM   22  S1  UNK     1      19.764  -1.259  31.752  1.00  0.00     0.259 S 
HETATM   23  O5  UNK     1      21.141  -0.814  31.685  1.00  0.00    -0.201 OA
HETATM   24  O6  UNK     1      19.372  -2.515  31.142  1.00  0.00    -0.201 OA
BRANCH  22  25
HETATM   25  C19 UNK     1      19.302  -1.349  33.457  1.00  0.00     0.079 A 
HETATM   26  C20 UNK     1      20.028  -2.160  34.312  1.00  0.00     0.026 A 
HETATM   27  C22 UNK     1      19.664  -2.231  35.656  1.00  0.00     0.008 A 
HETATM   28  C24 UNK     1      18.580  -1.489  36.126  1.00  0.00    -0.062 A 
HETATM   29  C23 UNK     1      17.860  -0.676  35.250  1.00  0.00     0.008 A 
HETATM   30  C25 UNK     1      18.191  -1.564  37.563  1.00  0.00     0.048 C 
HETATM   31  C21 UNK     1      18.223  -0.606  33.905  1.00  0.00     0.026 A 
ENDBRANCH  22  25
ENDBRANCH  20  22
ENDBRANCH  19  20
BRANCH  19  32
HETATM   32  C9  UNK     1      19.127   1.114  28.985  1.00  0.00     0.010 C 
HETATM   33  C16 UNK     1      17.724   1.533  28.532  1.00  0.00     0.012 C 
HETATM   34  C17 UNK     1      19.466  -0.269  28.422  1.00  0.00     0.012 C 
ENDBRANCH  19  32
ENDBRANCH   2  19
TORSDOF 7
ENDMDL
MODEL 9
REMARK VINA RESULT:      -9.5     16.877     18.537
REMARK  7 active torsions:
REMARK  status: ('A' for Active; 'I' for Inactive)
REMARK    1  A    between atoms: C19_27  and  S1_1 
REMARK    2  A    between atoms: N1_8  and  S1_1 
REMARK    3  A    between atoms: C14_22  and  O2_3 
REMARK    4  A    between atoms: C15_23  and  O2_3 
REMARK    5  A    between atoms: C8_16  and  N1_8 
REMARK    6  A    between atoms: C15_23  and  C8_16 
REMARK    7  A    between atoms: C8_16  and  C9_17 
ROOT
HETATM    1  O4  UNK     1      27.311  -6.955  36.604  1.00  0.00    -0.262 OA
HETATM    2  C15 UNK     1      28.500  -7.218  36.729  1.00  0.00     0.288 C 
ENDROOT
BRANCH   2   3
HETATM    3  O2  UNK     1      29.075  -8.480  36.477  1.00  0.00    -0.277 OA
BRANCH   3   4
HETATM    4  C14 UNK     1      29.158  -8.805  35.159  1.00  0.00     0.082 A 
HETATM    5  C13 UNK     1      28.358  -8.156  34.227  1.00  0.00     0.075 A 
HETATM    6  C10 UNK     1      28.458  -8.507  32.879  1.00  0.00     0.093 A 
HETATM    7  O1  UNK     1      27.613  -7.822  31.988  1.00  0.00    -0.274 OA
HETATM    8  C7  UNK     1      29.338  -9.486  32.424  1.00  0.00     0.005 A 
HETATM    9  C11 UNK     1      27.597  -8.104  30.631  1.00  0.00     0.295 A 
HETATM   10  O3  UNK     1      26.842  -7.505  29.871  1.00  0.00    -0.259 OA
HETATM   11  C6  UNK     1      28.536  -9.148  30.147  1.00  0.00     0.025 A 
HETATM   12  C3  UNK     1      29.376  -9.788  30.984  1.00  0.00    -0.033 A 
HETATM   13  C5  UNK     1      28.473  -9.443  28.667  1.00  0.00     0.045 C 
HETATM   14  C1  UNK     1      30.367 -10.816  30.483  1.00  0.00     0.040 C 
HETATM   15  C2  UNK     1      30.528 -10.843  28.961  1.00  0.00     0.005 C 
HETATM   16  C4  UNK     1      29.178 -10.739  28.270  1.00  0.00     0.005 C 
HETATM   17  C12 UNK     1      30.130 -10.134  33.383  1.00  0.00     0.017 A 
HETATM   18  C18 UNK     1      30.042  -9.795  34.738  1.00  0.00     0.038 A 
ENDBRANCH   3   4
ENDBRANCH   2   3
BRANCH   2  19
HETATM   19  C8  UNK     1      29.573  -6.241  37.167  1.00  0.00     0.196 C 
BRANCH  19  20
HETATM   20  N1  UNK     1      30.082  -5.578  35.945  1.00  0.00    -0.301 N 
HETATM   21  H12 UNK     1      29.391  -5.171  35.303  1.00  0.00     0.173 HD
BRANCH  20  22
HETATM   22  S1  UNK     1      31.674  -5.866  35.425  1.00  0.00     0.259 S 
HETATM   23  O5  UNK     1      32.150  -7.110  35.997  1.00  0.00    -0.201 OA
HETATM   24  O6  UNK     1      32.446  -4.649  35.580  1.00  0.00    -0.201 OA
BRANCH  22  25
HETATM   25  C19 UNK     1      31.449  -6.115  33.689  1.00  0.00     0.079 A 
HETATM   26  C20 UNK     1      30.468  -5.399  33.025  1.00  0.00     0.026 A 
HETATM   27  C22 UNK     1      30.291  -5.596  31.656  1.00  0.00     0.008 A 
HETATM   28  C24 UNK     1      31.097  -6.505  30.971  1.00  0.00    -0.062 A 
HETATM   29  C23 UNK     1      32.080  -7.219  31.657  1.00  0.00     0.008 A 
HETATM   30  C25 UNK     1      30.907  -6.716  29.507  1.00  0.00     0.048 C 
HETATM   31  C21 UNK     1      32.257  -7.023  33.026  1.00  0.00     0.026 A 
ENDBRANCH  22  25
ENDBRANCH  20  22
ENDBRANCH  19  20
BRANCH  19  32
HETATM   32  C9  UNK     1      29.057  -5.220  38.200  1.00  0.00     0.010 C 
HETATM   33  C16 UNK     1      30.102  -4.174  38.604  1.00  0.00     0.012 C 
HETATM   34  C17 UNK     1      28.506  -5.918  39.447  1.00  0.00     0.012 C 
ENDBRANCH  19  32
ENDBRANCH   2  19
TORSDOF 7
ENDMDL
MODEL 10
REMARK VINA RESULT:      -9.5     17.458     20.010
REMARK  7 active torsions:
REMARK  status: ('A' for Active; 'I' for Inactive)
REMARK    1  A    between atoms: C19_27  and  S1_1 
REMARK    2  A    between atoms: N1_8  and  S1_1 
REMARK    3  A    between atoms: C14_22  and  O2_3 
REMARK    4  A    between atoms: C15_23  and  O2_3 
REMARK    5  A    between atoms: C8_16  and  N1_8 
REMARK    6  A    between atoms: C15_23  and  C8_16 
REMARK    7  A    between atoms: C8_16  and  C9_17 
ROOT
HETATM    1  O4  UNK     1      27.242  -7.991  30.829  1.00  0.00    -0.262 OA
HETATM    2  C15 UNK     1      28.444  -7.839  30.647  1.00  0.00     0.288 C 
ENDROOT
BRANCH   2   3
HETATM    3  O2  UNK     1      29.144  -6.636  30.863  1.00  0.00    -0.277 OA
BRANCH   3   4
HETATM    4  C14 UNK     1      29.896  -6.620  31.996  1.00  0.00     0.082 A 
HETATM    5  C13 UNK     1      29.324  -6.259  33.210  1.00  0.00     0.075 A 
HETATM    6  C10 UNK     1      30.115  -6.248  34.361  1.00  0.00     0.093 A 
HETATM    7  O1  UNK     1      29.480  -5.862  35.555  1.00  0.00    -0.274 OA
HETATM    8  C7  UNK     1      31.465  -6.593  34.345  1.00  0.00     0.005 A 
HETATM    9  C11 UNK     1      30.166  -5.781  36.756  1.00  0.00     0.295 A 
HETATM   10  O3  UNK     1      29.598  -5.429  37.785  1.00  0.00    -0.259 OA
HETATM   11  C6  UNK     1      31.605  -6.149  36.737  1.00  0.00     0.025 A 
HETATM   12  C3  UNK     1      32.218  -6.555  35.609  1.00  0.00    -0.033 A 
HETATM   13  C5  UNK     1      32.324  -6.027  38.061  1.00  0.00     0.045 C 
HETATM   14  C1  UNK     1      33.672  -6.976  35.601  1.00  0.00     0.040 C 
HETATM   15  C2  UNK     1      34.274  -7.178  36.993  1.00  0.00     0.005 C 
HETATM   16  C4  UNK     1      33.846  -6.066  37.937  1.00  0.00     0.005 C 
HETATM   17  C12 UNK     1      32.023  -6.946  33.108  1.00  0.00     0.017 A 
HETATM   18  C18 UNK     1      31.245  -6.961  31.945  1.00  0.00     0.038 A 
ENDBRANCH   3   4
ENDBRANCH   2   3
BRANCH   2  19
HETATM   19  C8  UNK     1      29.399  -8.913  30.166  1.00  0.00     0.196 C 
BRANCH  19  20
HETATM   20  N1  UNK     1      29.125 -10.129  30.965  1.00  0.00    -0.301 N 
HETATM   21  H12 UNK     1      28.151 -10.308  31.239  1.00  0.00     0.173 HD
BRANCH  20  22
HETATM   22  S1  UNK     1      30.400 -10.931  31.753  1.00  0.00     0.259 S 
HETATM   23  O5  UNK     1      31.665 -10.401  31.285  1.00  0.00    -0.201 OA
HETATM   24  O6  UNK     1      30.148 -12.358  31.718  1.00  0.00    -0.201 OA
BRANCH  22  25
HETATM   25  C19 UNK     1      30.177 -10.409  33.428  1.00  0.00     0.079 A 
HETATM   26  C20 UNK     1      28.939  -9.937  33.830  1.00  0.00     0.026 A 
HETATM   27  C22 UNK     1      28.764  -9.525  35.150  1.00  0.00     0.008 A 
HETATM   28  C24 UNK     1      29.828  -9.593  36.050  1.00  0.00    -0.062 A 
HETATM   29  C23 UNK     1      31.069 -10.071  35.627  1.00  0.00     0.008 A 
HETATM   30  C25 UNK     1      29.640  -9.153  37.462  1.00  0.00     0.048 C 
HETATM   31  C21 UNK     1      31.245 -10.482  34.306  1.00  0.00     0.026 A 
ENDBRANCH  22  25
ENDBRANCH  20  22
ENDBRANCH  19  20
BRANCH  19  32
HETATM   32  C9  UNK     1      29.274  -9.182  28.654  1.00  0.00     0.010 C 
HETATM   33  C16 UNK     1      28.301 -10.315  28.310  1.00  0.00     0.012 C 
HETATM   34  C17 UNK     1      30.642  -9.458  28.021  1.00  0.00     0.012 C 
ENDBRANCH  19  32
ENDBRANCH   2  19
TORSDOF 7
ENDMDL
