MODEL 1
REMARK VINA RESULT:      -9.0      0.000      0.000
REMARK  10 active torsions:
REMARK  status: ('A' for Active; 'I' for Inactive)
REMARK    1  A    between atoms: C15_28  and  O3_8 
REMARK       I    between atoms: C4_17  and  N1_11 
REMARK    2  A    between atoms: C5_18  and  N1_11 
REMARK    3  A    between atoms: C6_19  and  N1_11 
REMARK    4  A    between atoms: C19_32  and  N2_12 
REMARK    5  A    between atoms: C7_20  and  N2_12 
REMARK    6  A    between atoms: C13_26  and  N3_13 
REMARK    7  A    between atoms: C19_32  and  N3_13 
REMARK    8  A    between atoms: C1_14  and  C4_17 
REMARK    9  A    between atoms: C15_28  and  C3_16 
REMARK   10  A    between atoms: C14_27  and  C21_34 
ROOT
HETATM    1  N2  UNK     1      17.822   3.585  31.922  1.00  0.00    -0.326 N 
HETATM    2  H8  UNK     1      16.997   3.615  31.328  1.00  0.00     0.169 HD
ENDROOT
BRANCH   1   3
HETATM    3  C19 UNK     1      18.600   4.710  31.901  1.00  0.00     0.177 C 
HETATM    4  S2  UNK     1      19.534   5.027  30.535  1.00  0.00    -0.040 SA
BRANCH   3   5
HETATM    5  N3  UNK     1      18.657   5.577  32.978  1.00  0.00    -0.333 N 
HETATM    6  H18 UNK     1      19.534   5.517  33.492  1.00  0.00     0.168 HD
BRANCH   5   7
HETATM    7  C13 UNK     1      17.947   6.750  33.233  1.00  0.00     0.036 A 
HETATM    8  C16 UNK     1      18.620   7.960  33.365  1.00  0.00     0.067 A 
HETATM    9  C12 UNK     1      17.890   9.122  33.618  1.00  0.00     0.092 A 
HETATM   10  O1  UNK     1      18.627  10.317  33.742  1.00  0.00    -0.275 OA
HETATM   11  C9  UNK     1      16.500   9.116  33.745  1.00  0.00     0.013 A 
HETATM   12  C22 UNK     1      18.005  11.530  33.993  1.00  0.00     0.289 A 
HETATM   13  C20 UNK     1      16.539  11.507  34.125  1.00  0.00     0.099 A 
HETATM   14  O5  UNK     1      18.638  12.575  34.102  1.00  0.00    -0.260 OA
HETATM   15  C14 UNK     1      15.812  10.386  34.012  1.00  0.00     0.066 A 
HETATM   16  C17 UNK     1      15.840   7.888  33.610  1.00  0.00     0.017 A 
HETATM   17  C18 UNK     1      16.559   6.714  33.355  1.00  0.00     0.030 A 
BRANCH  15  18
HETATM   18  C21 UNK     1      14.318  10.414  34.155  1.00  0.00     0.418 C 
HETATM   19  F1  UNK     1      13.906   9.501  35.057  1.00  0.00    -0.166 F 
HETATM   20  F2  UNK     1      13.896  11.625  34.566  1.00  0.00    -0.166 F 
HETATM   21  F3  UNK     1      13.715  10.140  32.981  1.00  0.00    -0.166 F 
ENDBRANCH  15  18
ENDBRANCH   5   7
ENDBRANCH   3   5
ENDBRANCH   1   3
BRANCH   1  22
HETATM   22  C7  UNK     1      18.190   2.308  32.363  1.00  0.00     0.094 A 
HETATM   23  C3  UNK     1      18.622   1.196  31.675  1.00  0.00     0.080 A 
HETATM   24  C2  UNK     1      18.886   0.098  32.543  1.00  0.00    -0.020 A 
HETATM   25  C1  UNK     1      18.647   0.413  33.863  1.00  0.00     0.082 A 
HETATM   26  C8  UNK     1      19.364  -1.229  32.080  1.00  0.00     0.051 C 
HETATM   27  S1  UNK     1      18.104   2.026  34.050  1.00  0.00    -0.065 SA
BRANCH  23  28
HETATM   28  C15 UNK     1      18.775   1.185  30.241  1.00  0.00     0.296 C 
HETATM   29  O4  UNK     1      19.834   0.901  29.662  1.00  0.00    -0.259 OA
BRANCH  28  30
HETATM   30  O3  UNK     1      17.630   1.523  29.554  1.00  0.00    -0.322 OA
HETATM   31  C23 UNK     1      17.799   2.283  28.351  1.00  0.00     0.213 C 
ENDBRANCH  28  30
ENDBRANCH  23  28
BRANCH  25  32
HETATM   32  C4  UNK     1      18.788  -0.402  35.027  1.00  0.00     0.261 C 
HETATM   33  O2  UNK     1      19.893  -0.545  35.593  1.00  0.00    -0.267 OA
HETATM   34  N1  UNK     1      17.638  -1.063  35.545  1.00  0.00    -0.348 N 
BRANCH  34  35
HETATM   35  C5  UNK     1      16.300  -0.938  34.968  1.00  0.00     0.121 C 
HETATM   36  C10 UNK     1      15.486   0.123  35.681  1.00  0.00     0.026 C 
ENDBRANCH  34  35
BRANCH  34  37
HETATM   37  C6  UNK     1      17.733  -1.906  36.729  1.00  0.00     0.121 C 
HETATM   38  C11 UNK     1      17.909  -1.081  37.986  1.00  0.00     0.026 C 
ENDBRANCH  34  37
ENDBRANCH  25  32
ENDBRANCH   1  22
TORSDOF 10
ENDMDL
MODEL 2
REMARK VINA RESULT:      -8.9      1.800      2.310
REMARK  10 active torsions:
REMARK  status: ('A' for Active; 'I' for Inactive)
REMARK    1  A    between atoms: C15_28  and  O3_8 
REMARK       I    between atoms: C4_17  and  N1_11 
REMARK    2  A    between atoms: C5_18  and  N1_11 
REMARK    3  A    between atoms: C6_19  and  N1_11 
REMARK    4  A    between atoms: C19_32  and  N2_12 
REMARK    5  A    between atoms: C7_20  and  N2_12 
REMARK    6  A    between atoms: C13_26  and  N3_13 
REMARK    7  A    between atoms: C19_32  and  N3_13 
REMARK    8  A    between atoms: C1_14  and  C4_17 
REMARK    9  A    between atoms: C15_28  and  C3_16 
REMARK   10  A    between atoms: C14_27  and  C21_34 
ROOT
HETATM    1  N2  UNK     1      17.854   3.513  31.945  1.00  0.00    -0.326 N 
HETATM    2  H8  UNK     1      17.098   3.541  31.264  1.00  0.00     0.169 HD
ENDROOT
BRANCH   1   3
HETATM    3  C19 UNK     1      18.592   4.660  32.049  1.00  0.00     0.177 C 
HETATM    4  S2  UNK     1      19.513   5.155  30.729  1.00  0.00    -0.040 SA
BRANCH   3   5
HETATM    5  N3  UNK     1      18.620   5.406  33.214  1.00  0.00    -0.333 N 
HETATM    6  H18 UNK     1      19.238   5.016  33.922  1.00  0.00     0.168 HD
BRANCH   5   7
HETATM    7  C13 UNK     1      18.298   6.745  33.437  1.00  0.00     0.036 A 
HETATM    8  C16 UNK     1      16.966   7.137  33.532  1.00  0.00     0.067 A 
HETATM    9  C12 UNK     1      16.667   8.481  33.757  1.00  0.00     0.092 A 
HETATM   10  O1  UNK     1      15.300   8.817  33.842  1.00  0.00    -0.275 OA
HETATM   11  C9  UNK     1      17.659   9.454  33.893  1.00  0.00     0.013 A 
HETATM   12  C22 UNK     1      14.887  10.122  34.064  1.00  0.00     0.289 A 
HETATM   13  C20 UNK     1      15.946  11.136  34.205  1.00  0.00     0.099 A 
HETATM   14  O5  UNK     1      13.702  10.424  34.141  1.00  0.00    -0.260 OA
HETATM   15  C14 UNK     1      17.252  10.846  34.128  1.00  0.00     0.066 A 
HETATM   16  C17 UNK     1      18.993   9.039  33.794  1.00  0.00     0.017 A 
HETATM   17  C18 UNK     1      19.309   7.695  33.569  1.00  0.00     0.030 A 
BRANCH  15  18
HETATM   18  C21 UNK     1      18.294  11.915  34.278  1.00  0.00     0.418 C 
HETATM   19  F1  UNK     1      18.974  12.086  33.127  1.00  0.00    -0.166 F 
HETATM   20  F2  UNK     1      17.730  13.094  34.607  1.00  0.00    -0.166 F 
HETATM   21  F3  UNK     1      19.181  11.595  35.241  1.00  0.00    -0.166 F 
ENDBRANCH  15  18
ENDBRANCH   5   7
ENDBRANCH   3   5
ENDBRANCH   1   3
BRANCH   1  22
HETATM   22  C7  UNK     1      18.213   2.232  32.380  1.00  0.00     0.094 A 
HETATM   23  C3  UNK     1      18.643   1.121  31.688  1.00  0.00     0.080 A 
HETATM   24  C2  UNK     1      18.897   0.017  32.551  1.00  0.00    -0.020 A 
HETATM   25  C1  UNK     1      18.650   0.325  33.871  1.00  0.00     0.082 A 
HETATM   26  C8  UNK     1      19.371  -1.310  32.082  1.00  0.00     0.051 C 
HETATM   27  S1  UNK     1      18.115   1.939  34.064  1.00  0.00    -0.065 SA
BRANCH  23  28
HETATM   28  C15 UNK     1      18.806   1.119  30.255  1.00  0.00     0.296 C 
HETATM   29  O4  UNK     1      19.868   0.836  29.681  1.00  0.00    -0.259 OA
BRANCH  28  30
HETATM   30  O3  UNK     1      17.666   1.463  29.562  1.00  0.00    -0.322 OA
HETATM   31  C23 UNK     1      17.830   2.340  28.441  1.00  0.00     0.213 C 
ENDBRANCH  28  30
ENDBRANCH  23  28
BRANCH  25  32
HETATM   32  C4  UNK     1      18.781  -0.498  35.030  1.00  0.00     0.261 C 
HETATM   33  O2  UNK     1      19.888  -0.679  35.582  1.00  0.00    -0.267 OA
HETATM   34  N1  UNK     1      17.617  -1.124  35.561  1.00  0.00    -0.348 N 
BRANCH  34  35
HETATM   35  C5  UNK     1      16.276  -0.953  35.002  1.00  0.00     0.121 C 
HETATM   36  C10 UNK     1      15.518   0.154  35.706  1.00  0.00     0.026 C 
ENDBRANCH  34  35
BRANCH  34  37
HETATM   37  C6  UNK     1      17.699  -1.973  36.741  1.00  0.00     0.121 C 
HETATM   38  C11 UNK     1      17.945  -1.160  37.995  1.00  0.00     0.026 C 
ENDBRANCH  34  37
ENDBRANCH  25  32
ENDBRANCH   1  22
TORSDOF 10
ENDMDL
MODEL 3
REMARK VINA RESULT:      -8.9     16.707     19.607
REMARK  10 active torsions:
REMARK  status: ('A' for Active; 'I' for Inactive)
REMARK    1  A    between atoms: C15_28  and  O3_8 
REMARK       I    between atoms: C4_17  and  N1_11 
REMARK    2  A    between atoms: C5_18  and  N1_11 
REMARK    3  A    between atoms: C6_19  and  N1_11 
REMARK    4  A    between atoms: C19_32  and  N2_12 
REMARK    5  A    between atoms: C7_20  and  N2_12 
REMARK    6  A    between atoms: C13_26  and  N3_13 
REMARK    7  A    between atoms: C19_32  and  N3_13 
REMARK    8  A    between atoms: C1_14  and  C4_17 
REMARK    9  A    between atoms: C15_28  and  C3_16 
REMARK   10  A    between atoms: C14_27  and  C21_34 
ROOT
HETATM    1  N2  UNK     1      34.593  -8.249  34.562  1.00  0.00    -0.326 N 
HETATM    2  H8  UNK     1      34.854  -9.212  34.758  1.00  0.00     0.169 HD
ENDROOT
BRANCH   1   3
HETATM    3  C19 UNK     1      34.685  -7.389  35.621  1.00  0.00     0.177 C 
HETATM    4  S2  UNK     1      35.485  -5.921  35.408  1.00  0.00    -0.040 SA
BRANCH   3   5
HETATM    5  N3  UNK     1      34.163  -7.703  36.863  1.00  0.00    -0.333 N 
HETATM    6  H18 UNK     1      34.861  -7.690  37.604  1.00  0.00     0.168 HD
BRANCH   5   7
HETATM    7  C13 UNK     1      32.853  -7.632  37.337  1.00  0.00     0.036 A 
HETATM    8  C16 UNK     1      32.333  -6.419  37.775  1.00  0.00     0.067 A 
HETATM    9  C12 UNK     1      31.019  -6.370  38.244  1.00  0.00     0.092 A 
HETATM   10  O1  UNK     1      30.550  -5.113  38.675  1.00  0.00    -0.275 OA
HETATM   11  C9  UNK     1      30.201  -7.500  38.289  1.00  0.00     0.013 A 
HETATM   12  C22 UNK     1      29.261  -4.947  39.160  1.00  0.00     0.289 A 
HETATM   13  C20 UNK     1      28.411  -6.149  39.201  1.00  0.00     0.099 A 
HETATM   14  O5  UNK     1      28.843  -3.859  39.536  1.00  0.00    -0.260 OA
HETATM   15  C14 UNK     1      28.831  -7.357  38.798  1.00  0.00     0.066 A 
HETATM   16  C17 UNK     1      30.743  -8.713  37.843  1.00  0.00     0.017 A 
HETATM   17  C18 UNK     1      32.059  -8.777  37.370  1.00  0.00     0.030 A 
BRANCH  15  18
HETATM   18  C21 UNK     1      27.926  -8.553  38.860  1.00  0.00     0.418 C 
HETATM   19  F1  UNK     1      27.626  -8.991  37.621  1.00  0.00    -0.166 F 
HETATM   20  F2  UNK     1      28.511  -9.564  39.529  1.00  0.00    -0.166 F 
HETATM   21  F3  UNK     1      26.771  -8.253  39.486  1.00  0.00    -0.166 F 
ENDBRANCH  15  18
ENDBRANCH   5   7
ENDBRANCH   3   5
ENDBRANCH   1   3
BRANCH   1  22
HETATM   22  C7  UNK     1      33.871  -8.060  33.377  1.00  0.00     0.094 A 
HETATM   23  C3  UNK     1      34.269  -7.658  32.121  1.00  0.00     0.080 A 
HETATM   24  C2  UNK     1      33.179  -7.604  31.205  1.00  0.00    -0.020 A 
HETATM   25  C1  UNK     1      31.989  -7.967  31.796  1.00  0.00     0.082 A 
HETATM   26  C8  UNK     1      33.311  -7.203  29.782  1.00  0.00     0.051 C 
HETATM   27  S1  UNK     1      32.188  -8.370  33.448  1.00  0.00    -0.065 SA
BRANCH  23  28
HETATM   28  C15 UNK     1      35.640  -7.338  31.810  1.00  0.00     0.296 C 
HETATM   29  O4  UNK     1      36.025  -6.212  31.460  1.00  0.00    -0.259 OA
BRANCH  28  30
HETATM   30  O3  UNK     1      36.505  -8.403  31.934  1.00  0.00    -0.322 OA
HETATM   31  C23 UNK     1      36.383  -9.451  30.965  1.00  0.00     0.213 C 
ENDBRANCH  28  30
ENDBRANCH  23  28
BRANCH  25  32
HETATM   32  C4  UNK     1      30.682  -8.041  31.225  1.00  0.00     0.261 C 
HETATM   33  O2  UNK     1      30.228  -9.114  30.772  1.00  0.00    -0.267 OA
HETATM   34  N1  UNK     1      29.888  -6.860  31.174  1.00  0.00    -0.348 N 
BRANCH  34  35
HETATM   35  C5  UNK     1      30.321  -5.566  31.699  1.00  0.00     0.121 C 
HETATM   36  C10 UNK     1      29.900  -4.429  30.791  1.00  0.00     0.026 C 
ENDBRANCH  34  35
BRANCH  34  37
HETATM   37  C6  UNK     1      28.550  -6.886  30.599  1.00  0.00     0.121 C 
HETATM   38  C11 UNK     1      27.488  -7.016  31.671  1.00  0.00     0.026 C 
ENDBRANCH  34  37
ENDBRANCH  25  32
ENDBRANCH   1  22
TORSDOF 10
ENDMDL
MODEL 4
REMARK VINA RESULT:      -8.8     16.739     18.978
REMARK  10 active torsions:
REMARK  status: ('A' for Active; 'I' for Inactive)
REMARK    1  A    between atoms: C15_28  and  O3_8 
REMARK       I    between atoms: C4_17  and  N1_11 
REMARK    2  A    between atoms: C5_18  and  N1_11 
REMARK    3  A    between atoms: C6_19  and  N1_11 
REMARK    4  A    between atoms: C19_32  and  N2_12 
REMARK    5  A    between atoms: C7_20  and  N2_12 
REMARK    6  A    between atoms: C13_26  and  N3_13 
REMARK    7  A    between atoms: C19_32  and  N3_13 
REMARK    8  A    between atoms: C1_14  and  C4_17 
REMARK    9  A    between atoms: C15_28  and  C3_16 
REMARK   10  A    between atoms: C14_27  and  C21_34 
ROOT
HETATM    1  N2  UNK     1      33.645  -7.574  37.265  1.00  0.00    -0.326 N 
HETATM    2  H8  UNK     1      34.281  -7.681  38.052  1.00  0.00     0.169 HD
ENDROOT
BRANCH   1   3
HETATM    3  C19 UNK     1      34.219  -7.138  36.103  1.00  0.00     0.177 C 
HETATM    4  S2  UNK     1      35.277  -5.828  36.161  1.00  0.00    -0.040 SA
BRANCH   3   5
HETATM    5  N3  UNK     1      33.935  -7.727  34.883  1.00  0.00    -0.333 N 
HETATM    6  H18 UNK     1      34.396  -8.626  34.758  1.00  0.00     0.168 HD
BRANCH   5   7
HETATM    7  C13 UNK     1      32.865  -7.527  34.011  1.00  0.00     0.036 A 
HETATM    8  C16 UNK     1      32.443  -8.557  33.176  1.00  0.00     0.067 A 
HETATM    9  C12 UNK     1      31.369  -8.337  32.312  1.00  0.00     0.092 A 
HETATM   10  O1  UNK     1      30.988  -9.417  31.491  1.00  0.00    -0.275 OA
HETATM   11  C9  UNK     1      30.698  -7.114  32.253  1.00  0.00     0.013 A 
HETATM   12  C22 UNK     1      29.935  -9.311  30.595  1.00  0.00     0.289 A 
HETATM   13  C20 UNK     1      29.238  -8.015  30.545  1.00  0.00     0.099 A 
HETATM   14  O5  UNK     1      29.595 -10.245  29.878  1.00  0.00    -0.260 OA
HETATM   15  C14 UNK     1      29.578  -6.971  31.313  1.00  0.00     0.066 A 
HETATM   16  C17 UNK     1      31.139  -6.090  33.101  1.00  0.00     0.017 A 
HETATM   17  C18 UNK     1      32.213  -6.296  33.973  1.00  0.00     0.030 A 
BRANCH  15  18
HETATM   18  C21 UNK     1      28.836  -5.669  31.225  1.00  0.00     0.418 C 
HETATM   19  F1  UNK     1      27.857  -5.737  30.301  1.00  0.00    -0.166 F 
HETATM   20  F2  UNK     1      28.272  -5.356  32.407  1.00  0.00    -0.166 F 
HETATM   21  F3  UNK     1      29.664  -4.663  30.880  1.00  0.00    -0.166 F 
ENDBRANCH  15  18
ENDBRANCH   5   7
ENDBRANCH   3   5
ENDBRANCH   1   3
BRANCH   1  22
HETATM   22  C7  UNK     1      32.286  -7.552  37.599  1.00  0.00     0.094 A 
HETATM   23  C3  UNK     1      31.473  -6.533  38.043  1.00  0.00     0.080 A 
HETATM   24  C2  UNK     1      30.135  -6.972  38.262  1.00  0.00    -0.020 A 
HETATM   25  C1  UNK     1      29.977  -8.310  37.977  1.00  0.00     0.082 A 
HETATM   26  C8  UNK     1      29.041  -6.090  38.741  1.00  0.00     0.051 C 
HETATM   27  S1  UNK     1      31.436  -9.032  37.449  1.00  0.00    -0.065 SA
BRANCH  23  28
HETATM   28  C15 UNK     1      31.958  -5.191  38.250  1.00  0.00     0.296 C 
HETATM   29  O4  UNK     1      32.854  -4.897  39.055  1.00  0.00    -0.259 OA
BRANCH  28  30
HETATM   30  O3  UNK     1      31.334  -4.244  37.467  1.00  0.00    -0.322 OA
HETATM   31  C23 UNK     1      32.137  -3.596  36.474  1.00  0.00     0.213 C 
ENDBRANCH  28  30
ENDBRANCH  23  28
BRANCH  25  32
HETATM   32  C4  UNK     1      28.804  -9.120  38.066  1.00  0.00     0.261 C 
HETATM   33  O2  UNK     1      28.561  -9.808  39.082  1.00  0.00    -0.267 OA
HETATM   34  N1  UNK     1      27.899  -9.139  36.967  1.00  0.00    -0.348 N 
BRANCH  34  35
HETATM   35  C5  UNK     1      28.083  -8.352  35.749  1.00  0.00     0.121 C 
HETATM   36  C10 UNK     1      28.624  -9.200  34.616  1.00  0.00     0.026 C 
ENDBRANCH  34  35
BRANCH  34  37
HETATM   37  C6  UNK     1      26.689  -9.951  37.011  1.00  0.00     0.121 C 
HETATM   38  C11 UNK     1      25.470  -9.113  37.332  1.00  0.00     0.026 C 
ENDBRANCH  34  37
ENDBRANCH  25  32
ENDBRANCH   1  22
TORSDOF 10
ENDMDL
MODEL 5
REMARK VINA RESULT:      -8.7     16.513     19.385
REMARK  10 active torsions:
REMARK  status: ('A' for Active; 'I' for Inactive)
REMARK    1  A    between atoms: C15_28  and  O3_8 
REMARK       I    between atoms: C4_17  and  N1_11 
REMARK    2  A    between atoms: C5_18  and  N1_11 
REMARK    3  A    between atoms: C6_19  and  N1_11 
REMARK    4  A    between atoms: C19_32  and  N2_12 
REMARK    5  A    between atoms: C7_20  and  N2_12 
REMARK    6  A    between atoms: C13_26  and  N3_13 
REMARK    7  A    between atoms: C19_32  and  N3_13 
REMARK    8  A    between atoms: C1_14  and  C4_17 
REMARK    9  A    between atoms: C15_28  and  C3_16 
REMARK   10  A    between atoms: C14_27  and  C21_34 
ROOT
HETATM    1  N2  UNK     1      33.947  -8.095  35.667  1.00  0.00    -0.326 N 
HETATM    2  H8  UNK     1      34.178  -9.064  35.875  1.00  0.00     0.169 HD
ENDROOT
BRANCH   1   3
HETATM    3  C19 UNK     1      34.012  -7.236  36.729  1.00  0.00     0.177 C 
HETATM    4  S2  UNK     1      34.991  -5.871  36.611  1.00  0.00    -0.040 SA
BRANCH   3   5
HETATM    5  N3  UNK     1      33.316  -7.472  37.901  1.00  0.00    -0.333 N 
HETATM    6  H18 UNK     1      33.850  -7.239  38.736  1.00  0.00     0.168 HD
BRANCH   5   7
HETATM    7  C13 UNK     1      31.944  -7.573  38.133  1.00  0.00     0.036 A 
HETATM    8  C16 UNK     1      31.165  -6.424  38.228  1.00  0.00     0.067 A 
HETATM    9  C12 UNK     1      29.794  -6.547  38.459  1.00  0.00     0.092 A 
HETATM   10  O1  UNK     1      29.059  -5.348  38.546  1.00  0.00    -0.275 OA
HETATM   11  C9  UNK     1      29.170  -7.788  38.599  1.00  0.00     0.013 A 
HETATM   12  C22 UNK     1      27.691  -5.351  38.772  1.00  0.00     0.289 A 
HETATM   13  C20 UNK     1      27.048  -6.668  38.918  1.00  0.00     0.099 A 
HETATM   14  O5  UNK     1      27.043  -4.314  38.848  1.00  0.00    -0.260 OA
HETATM   15  C14 UNK     1      27.722  -7.824  38.840  1.00  0.00     0.066 A 
HETATM   16  C17 UNK     1      29.972  -8.933  38.500  1.00  0.00     0.017 A 
HETATM   17  C18 UNK     1      31.347  -8.825  38.269  1.00  0.00     0.030 A 
BRANCH  15  18
HETATM   18  C21 UNK     1      27.021  -9.142  38.996  1.00  0.00     0.418 C 
HETATM   19  F1  UNK     1      27.128  -9.877  37.871  1.00  0.00    -0.166 F 
HETATM   20  F2  UNK     1      27.552  -9.852  40.009  1.00  0.00    -0.166 F 
HETATM   21  F3  UNK     1      25.710  -8.965  39.254  1.00  0.00    -0.166 F 
ENDBRANCH  15  18
ENDBRANCH   5   7
ENDBRANCH   3   5
ENDBRANCH   1   3
BRANCH   1  22
HETATM   22  C7  UNK     1      33.282  -7.892  34.451  1.00  0.00     0.094 A 
HETATM   23  C3  UNK     1      33.738  -7.890  33.152  1.00  0.00     0.080 A 
HETATM   24  C2  UNK     1      32.693  -7.635  32.217  1.00  0.00    -0.020 A 
HETATM   25  C1  UNK     1      31.478  -7.451  32.839  1.00  0.00     0.082 A 
HETATM   26  C8  UNK     1      32.892  -7.574  30.747  1.00  0.00     0.051 C 
HETATM   27  S1  UNK     1      31.600  -7.586  34.541  1.00  0.00    -0.065 SA
BRANCH  23  28
HETATM   28  C15 UNK     1      35.121  -8.124  32.818  1.00  0.00     0.296 C 
HETATM   29  O4  UNK     1      35.512  -9.065  32.111  1.00  0.00    -0.259 OA
BRANCH  28  30
HETATM   30  O3  UNK     1      35.991  -7.202  33.358  1.00  0.00    -0.322 OA
HETATM   31  C23 UNK     1      37.150  -7.719  34.023  1.00  0.00     0.213 C 
ENDBRANCH  28  30
ENDBRANCH  23  28
BRANCH  25  32
HETATM   32  C4  UNK     1      30.201  -7.176  32.262  1.00  0.00     0.261 C 
HETATM   33  O2  UNK     1      29.817  -6.005  32.055  1.00  0.00    -0.267 OA
HETATM   34  N1  UNK     1      29.353  -8.268  31.921  1.00  0.00    -0.348 N 
BRANCH  34  35
HETATM   35  C5  UNK     1      29.722  -9.671  32.103  1.00  0.00     0.121 C 
HETATM   36  C10 UNK     1      29.026 -10.278  33.303  1.00  0.00     0.026 C 
ENDBRANCH  34  35
BRANCH  34  37
HETATM   37  C6  UNK     1      28.041  -8.038  31.332  1.00  0.00     0.121 C 
HETATM   38  C11 UNK     1      27.894  -8.755  30.006  1.00  0.00     0.026 C 
ENDBRANCH  34  37
ENDBRANCH  25  32
ENDBRANCH   1  22
TORSDOF 10
ENDMDL
MODEL 6
REMARK VINA RESULT:      -8.7     17.003     19.675
REMARK  10 active torsions:
REMARK  status: ('A' for Active; 'I' for Inactive)
REMARK    1  A    between atoms: C15_28  and  O3_8 
REMARK       I    between atoms: C4_17  and  N1_11 
REMARK    2  A    between atoms: C5_18  and  N1_11 
REMARK    3  A    between atoms: C6_19  and  N1_11 
REMARK    4  A    between atoms: C19_32  and  N2_12 
REMARK    5  A    between atoms: C7_20  and  N2_12 
REMARK    6  A    between atoms: C13_26  and  N3_13 
REMARK    7  A    between atoms: C19_32  and  N3_13 
REMARK    8  A    between atoms: C1_14  and  C4_17 
REMARK    9  A    between atoms: C15_28  and  C3_16 
REMARK   10  A    between atoms: C14_27  and  C21_34 
ROOT
HETATM    1  N2  UNK     1      34.402  -8.064  34.937  1.00  0.00    -0.326 N 
HETATM    2  H8  UNK     1      34.792  -8.996  35.057  1.00  0.00     0.169 HD
ENDROOT
BRANCH   1   3
HETATM    3  C19 UNK     1      34.399  -7.280  36.057  1.00  0.00     0.177 C 
HETATM    4  S2  UNK     1      35.140  -5.769  35.992  1.00  0.00    -0.040 SA
BRANCH   3   5
HETATM    5  N3  UNK     1      33.828  -7.706  37.243  1.00  0.00    -0.333 N 
HETATM    6  H18 UNK     1      34.481  -7.701  38.024  1.00  0.00     0.168 HD
BRANCH   5   7
HETATM    7  C13 UNK     1      32.491  -7.742  37.641  1.00  0.00     0.036 A 
HETATM    8  C16 UNK     1      31.798  -6.558  37.869  1.00  0.00     0.067 A 
HETATM    9  C12 UNK     1      30.461  -6.617  38.265  1.00  0.00     0.092 A 
HETATM   10  O1  UNK     1      29.812  -5.385  38.482  1.00  0.00    -0.275 OA
HETATM   11  C9  UNK     1      29.788  -7.828  38.441  1.00  0.00     0.013 A 
HETATM   12  C22 UNK     1      28.484  -5.324  38.877  1.00  0.00     0.289 A 
HETATM   13  C20 UNK     1      27.789  -6.610  39.058  1.00  0.00     0.099 A 
HETATM   14  O5  UNK     1      27.910  -4.258  39.067  1.00  0.00    -0.260 OA
HETATM   15  C14 UNK     1      28.380  -7.796  38.859  1.00  0.00     0.066 A 
HETATM   16  C17 UNK     1      30.504  -9.009  38.206  1.00  0.00     0.017 A 
HETATM   17  C18 UNK     1      31.845  -8.965  37.809  1.00  0.00     0.030 A 
BRANCH  15  18
HETATM   18  C21 UNK     1      27.629  -9.080  39.058  1.00  0.00     0.418 C 
HETATM   19  F1  UNK     1      28.218  -9.838  40.004  1.00  0.00    -0.166 F 
HETATM   20  F2  UNK     1      26.362  -8.841  39.446  1.00  0.00    -0.166 F 
HETATM   21  F3  UNK     1      27.587  -9.797  37.918  1.00  0.00    -0.166 F 
ENDBRANCH  15  18
ENDBRANCH   5   7
ENDBRANCH   3   5
ENDBRANCH   1   3
BRANCH   1  22
HETATM   22  C7  UNK     1      33.638  -7.887  33.776  1.00  0.00     0.094 A 
HETATM   23  C3  UNK     1      34.007  -7.676  32.466  1.00  0.00     0.080 A 
HETATM   24  C2  UNK     1      32.879  -7.550  31.605  1.00  0.00    -0.020 A 
HETATM   25  C1  UNK     1      31.690  -7.669  32.291  1.00  0.00     0.082 A 
HETATM   26  C8  UNK     1      32.974  -7.317  30.142  1.00  0.00     0.051 C 
HETATM   27  S1  UNK     1      31.937  -7.931  33.965  1.00  0.00    -0.065 SA
BRANCH  23  28
HETATM   28  C15 UNK     1      35.387  -7.600  32.054  1.00  0.00     0.296 C 
HETATM   29  O4  UNK     1      35.916  -6.575  31.599  1.00  0.00    -0.259 OA
BRANCH  28  30
HETATM   30  O3  UNK     1      36.083  -8.779  32.208  1.00  0.00    -0.322 OA
HETATM   31  C23 UNK     1      35.939  -9.755  31.169  1.00  0.00     0.213 C 
ENDBRANCH  28  30
ENDBRANCH  23  28
BRANCH  25  32
HETATM   32  C4  UNK     1      30.352  -7.601  31.798  1.00  0.00     0.261 C 
HETATM   33  O2  UNK     1      29.744  -6.513  31.705  1.00  0.00    -0.267 OA
HETATM   34  N1  UNK     1      29.704  -8.807  31.406  1.00  0.00    -0.348 N 
BRANCH  34  35
HETATM   35  C5  UNK     1      30.339 -10.123  31.453  1.00  0.00     0.121 C 
HETATM   36  C10 UNK     1      29.840 -10.939  32.627  1.00  0.00     0.026 C 
ENDBRANCH  34  35
BRANCH  34  37
HETATM   37  C6  UNK     1      28.339  -8.789  30.897  1.00  0.00     0.121 C 
HETATM   38  C11 UNK     1      28.293  -9.115  29.419  1.00  0.00     0.026 C 
ENDBRANCH  34  37
ENDBRANCH  25  32
ENDBRANCH   1  22
TORSDOF 10
ENDMDL
MODEL 7
REMARK VINA RESULT:      -8.6     17.264     19.260
REMARK  10 active torsions:
REMARK  status: ('A' for Active; 'I' for Inactive)
REMARK    1  A    between atoms: C15_28  and  O3_8 
REMARK       I    between atoms: C4_17  and  N1_11 
REMARK    2  A    between atoms: C5_18  and  N1_11 
REMARK    3  A    between atoms: C6_19  and  N1_11 
REMARK    4  A    between atoms: C19_32  and  N2_12 
REMARK    5  A    between atoms: C7_20  and  N2_12 
REMARK    6  A    between atoms: C13_26  and  N3_13 
REMARK    7  A    between atoms: C19_32  and  N3_13 
REMARK    8  A    between atoms: C1_14  and  C4_17 
REMARK    9  A    between atoms: C15_28  and  C3_16 
REMARK   10  A    between atoms: C14_27  and  C21_34 
ROOT
HETATM    1  N2  UNK     1      34.080  -8.111  35.713  1.00  0.00    -0.326 N 
HETATM    2  H8  UNK     1      34.875  -8.285  36.323  1.00  0.00     0.169 HD
ENDROOT
BRANCH   1   3
HETATM    3  C19 UNK     1      34.393  -7.715  34.442  1.00  0.00     0.177 C 
HETATM    4  S2  UNK     1      35.777  -8.339  33.714  1.00  0.00    -0.040 SA
BRANCH   3   5
HETATM    5  N3  UNK     1      33.617  -6.800  33.751  1.00  0.00    -0.333 N 
HETATM    6  H18 UNK     1      34.079  -5.901  33.625  1.00  0.00     0.168 HD
BRANCH   5   7
HETATM    7  C13 UNK     1      32.546  -6.998  32.881  1.00  0.00     0.036 A 
HETATM    8  C16 UNK     1      32.748  -7.626  31.656  1.00  0.00     0.067 A 
HETATM    9  C12 UNK     1      31.662  -7.816  30.800  1.00  0.00     0.092 A 
HETATM   10  O1  UNK     1      31.929  -8.457  29.574  1.00  0.00    -0.275 OA
HETATM   11  C9  UNK     1      30.371  -7.397  31.129  1.00  0.00     0.013 A 
HETATM   12  C22 UNK     1      30.926  -8.697  28.647  1.00  0.00     0.289 A 
HETATM   13  C20 UNK     1      29.571  -8.249  29.009  1.00  0.00     0.099 A 
HETATM   14  O5  UNK     1      31.148  -9.254  27.579  1.00  0.00    -0.260 OA
HETATM   15  C14 UNK     1      29.287  -7.637  30.168  1.00  0.00     0.066 A 
HETATM   16  C17 UNK     1      30.188  -6.766  32.367  1.00  0.00     0.017 A 
HETATM   17  C18 UNK     1      31.268  -6.570  33.235  1.00  0.00     0.030 A 
BRANCH  15  18
HETATM   18  C21 UNK     1      27.888  -7.199  30.491  1.00  0.00     0.418 C 
HETATM   19  F1  UNK     1      27.557  -7.545  31.751  1.00  0.00    -0.166 F 
HETATM   20  F2  UNK     1      27.766  -5.862  30.381  1.00  0.00    -0.166 F 
HETATM   21  F3  UNK     1      26.998  -7.769  29.656  1.00  0.00    -0.166 F 
ENDBRANCH  15  18
ENDBRANCH   5   7
ENDBRANCH   3   5
ENDBRANCH   1   3
BRANCH   1  22
HETATM   22  C7  UNK     1      32.850  -7.967  36.367  1.00  0.00     0.094 A 
HETATM   23  C3  UNK     1      32.314  -6.918  37.081  1.00  0.00     0.080 A 
HETATM   24  C2  UNK     1      31.013  -7.217  37.578  1.00  0.00    -0.020 A 
HETATM   25  C1  UNK     1      30.604  -8.484  37.226  1.00  0.00     0.082 A 
HETATM   26  C8  UNK     1      30.196  -6.274  38.382  1.00  0.00     0.051 C 
HETATM   27  S1  UNK     1      31.786  -9.307  36.300  1.00  0.00    -0.065 SA
BRANCH  23  28
HETATM   28  C15 UNK     1      33.021  -5.677  37.278  1.00  0.00     0.296 C 
HETATM   29  O4  UNK     1      33.400  -5.266  38.385  1.00  0.00    -0.259 OA
BRANCH  28  30
HETATM   30  O3  UNK     1      33.244  -4.969  36.117  1.00  0.00    -0.322 OA
HETATM   31  C23 UNK     1      32.286  -3.958  35.782  1.00  0.00     0.213 C 
ENDBRANCH  28  30
ENDBRANCH  23  28
BRANCH  25  32
HETATM   32  C4  UNK     1      29.379  -9.154  37.526  1.00  0.00     0.261 C 
HETATM   33  O2  UNK     1      29.192  -9.708  38.631  1.00  0.00    -0.267 OA
HETATM   34  N1  UNK     1      28.356  -9.188  36.537  1.00  0.00    -0.348 N 
BRANCH  34  35
HETATM   35  C5  UNK     1      28.471  -8.551  35.226  1.00  0.00     0.121 C 
HETATM   36  C10 UNK     1      28.705  -9.571  34.131  1.00  0.00     0.026 C 
ENDBRANCH  34  35
BRANCH  34  37
HETATM   37  C6  UNK     1      27.090  -9.861  36.796  1.00  0.00     0.121 C 
HETATM   38  C11 UNK     1      26.053  -8.901  37.342  1.00  0.00     0.026 C 
ENDBRANCH  34  37
ENDBRANCH  25  32
ENDBRANCH   1  22
TORSDOF 10
ENDMDL
MODEL 8
REMARK VINA RESULT:      -8.6     16.941     19.519
REMARK  10 active torsions:
REMARK  status: ('A' for Active; 'I' for Inactive)
REMARK    1  A    between atoms: C15_28  and  O3_8 
REMARK       I    between atoms: C4_17  and  N1_11 
REMARK    2  A    between atoms: C5_18  and  N1_11 
REMARK    3  A    between atoms: C6_19  and  N1_11 
REMARK    4  A    between atoms: C19_32  and  N2_12 
REMARK    5  A    between atoms: C7_20  and  N2_12 
REMARK    6  A    between atoms: C13_26  and  N3_13 
REMARK    7  A    between atoms: C19_32  and  N3_13 
REMARK    8  A    between atoms: C1_14  and  C4_17 
REMARK    9  A    between atoms: C15_28  and  C3_16 
REMARK   10  A    between atoms: C14_27  and  C21_34 
ROOT
HETATM    1  N2  UNK     1      34.685  -6.363  33.936  1.00  0.00    -0.326 N 
HETATM    2  H8  UNK     1      34.988  -5.434  33.654  1.00  0.00     0.169 HD
ENDROOT
BRANCH   1   3
HETATM    3  C19 UNK     1      35.423  -6.944  34.930  1.00  0.00     0.177 C 
HETATM    4  S2  UNK     1      37.005  -7.417  34.596  1.00  0.00    -0.040 SA
BRANCH   3   5
HETATM    5  N3  UNK     1      34.897  -7.175  36.189  1.00  0.00    -0.333 N 
HETATM    6  H18 UNK     1      35.612  -7.327  36.898  1.00  0.00     0.168 HD
BRANCH   5   7
HETATM    7  C13 UNK     1      33.651  -6.844  36.722  1.00  0.00     0.036 A 
HETATM    8  C16 UNK     1      32.747  -7.846  37.059  1.00  0.00     0.067 A 
HETATM    9  C12 UNK     1      31.507  -7.493  37.593  1.00  0.00     0.092 A 
HETATM   10  O1  UNK     1      30.634  -8.552  37.914  1.00  0.00    -0.275 OA
HETATM   11  C9  UNK     1      31.136  -6.164  37.803  1.00  0.00     0.013 A 
HETATM   12  C22 UNK     1      29.376  -8.319  38.450  1.00  0.00     0.289 A 
HETATM   13  C20 UNK     1      29.001  -6.911  38.665  1.00  0.00     0.099 A 
HETATM   14  O5  UNK     1      28.610  -9.232  38.733  1.00  0.00    -0.260 OA
HETATM   15  C14 UNK     1      29.810  -5.884  38.369  1.00  0.00     0.066 A 
HETATM   16  C17 UNK     1      32.060  -5.169  37.457  1.00  0.00     0.017 A 
HETATM   17  C18 UNK     1      33.308  -5.508  36.921  1.00  0.00     0.030 A 
BRANCH  15  18
HETATM   18  C21 UNK     1      29.381  -4.466  38.607  1.00  0.00     0.418 C 
HETATM   19  F1  UNK     1      29.900  -3.995  39.758  1.00  0.00    -0.166 F 
HETATM   20  F2  UNK     1      29.794  -3.664  37.606  1.00  0.00    -0.166 F 
HETATM   21  F3  UNK     1      28.039  -4.373  38.687  1.00  0.00    -0.166 F 
ENDBRANCH  15  18
ENDBRANCH   5   7
ENDBRANCH   3   5
ENDBRANCH   1   3
BRANCH   1  22
HETATM   22  C7  UNK     1      33.819  -7.001  33.039  1.00  0.00     0.094 A 
HETATM   23  C3  UNK     1      34.006  -7.442  31.748  1.00  0.00     0.080 A 
HETATM   24  C2  UNK     1      32.831  -8.042  31.211  1.00  0.00    -0.020 A 
HETATM   25  C1  UNK     1      31.790  -8.037  32.113  1.00  0.00     0.082 A 
HETATM   26  C8  UNK     1      32.740  -8.606  29.840  1.00  0.00     0.051 C 
HETATM   27  S1  UNK     1      32.230  -7.311  33.599  1.00  0.00    -0.065 SA
BRANCH  23  28
HETATM   28  C15 UNK     1      35.262  -7.294  31.055  1.00  0.00     0.296 C 
HETATM   29  O4  UNK     1      35.455  -6.481  30.139  1.00  0.00    -0.259 OA
BRANCH  28  30
HETATM   30  O3  UNK     1      36.250  -8.146  31.500  1.00  0.00    -0.322 OA
HETATM   31  C23 UNK     1      36.146  -9.519  31.104  1.00  0.00     0.213 C 
ENDBRANCH  28  30
ENDBRANCH  23  28
BRANCH  25  32
HETATM   32  C4  UNK     1      30.461  -8.538  31.961  1.00  0.00     0.261 C 
HETATM   33  O2  UNK     1      30.151  -9.690  32.334  1.00  0.00    -0.267 OA
HETATM   34  N1  UNK     1      29.475  -7.698  31.369  1.00  0.00    -0.348 N 
BRANCH  34  35
HETATM   35  C5  UNK     1      29.735  -6.329  30.925  1.00  0.00     0.121 C 
HETATM   36  C10 UNK     1      29.290  -5.316  31.960  1.00  0.00     0.026 C 
ENDBRANCH  34  35
BRANCH  34  37
HETATM   37  C6  UNK     1      28.107  -8.164  31.192  1.00  0.00     0.121 C 
HETATM   38  C11 UNK     1      27.894  -8.750  29.812  1.00  0.00     0.026 C 
ENDBRANCH  34  37
ENDBRANCH  25  32
ENDBRANCH   1  22
TORSDOF 10
ENDMDL
MODEL 9
REMARK VINA RESULT:      -8.5     16.792     19.214
REMARK  10 active torsions:
REMARK  status: ('A' for Active; 'I' for Inactive)
REMARK    1  A    between atoms: C15_28  and  O3_8 
REMARK       I    between atoms: C4_17  and  N1_11 
REMARK    2  A    between atoms: C5_18  and  N1_11 
REMARK    3  A    between atoms: C6_19  and  N1_11 
REMARK    4  A    between atoms: C19_32  and  N2_12 
REMARK    5  A    between atoms: C7_20  and  N2_12 
REMARK    6  A    between atoms: C13_26  and  N3_13 
REMARK    7  A    between atoms: C19_32  and  N3_13 
REMARK    8  A    between atoms: C1_14  and  C4_17 
REMARK    9  A    between atoms: C15_28  and  C3_16 
REMARK   10  A    between atoms: C14_27  and  C21_34 
ROOT
HETATM    1  N2  UNK     1      30.783  -8.117  37.954  1.00  0.00    -0.326 N 
HETATM    2  H8  UNK     1      31.117  -8.770  38.659  1.00  0.00     0.169 HD
ENDROOT
BRANCH   1   3
HETATM    3  C19 UNK     1      29.454  -8.217  37.646  1.00  0.00     0.177 C 
HETATM    4  S2  UNK     1      28.537  -9.419  38.389  1.00  0.00    -0.040 SA
BRANCH   3   5
HETATM    5  N3  UNK     1      28.853  -7.376  36.726  1.00  0.00    -0.333 N 
HETATM    6  H18 UNK     1      28.654  -6.452  37.102  1.00  0.00     0.168 HD
BRANCH   5   7
HETATM    7  C13 UNK     1      28.847  -7.419  35.332  1.00  0.00     0.036 A 
HETATM    8  C16 UNK     1      29.213  -6.296  34.597  1.00  0.00     0.067 A 
HETATM    9  C12 UNK     1      29.201  -6.362  33.203  1.00  0.00     0.092 A 
HETATM   10  O1  UNK     1      29.580  -5.192  32.513  1.00  0.00    -0.275 OA
HETATM   11  C9  UNK     1      28.834  -7.519  32.513  1.00  0.00     0.013 A 
HETATM   12  C22 UNK     1      29.606  -5.143  31.127  1.00  0.00     0.289 A 
HETATM   13  C20 UNK     1      29.215  -6.372  30.415  1.00  0.00     0.099 A 
HETATM   14  O5  UNK     1      29.935  -4.132  30.519  1.00  0.00    -0.260 OA
HETATM   15  C14 UNK     1      28.850  -7.498  31.045  1.00  0.00     0.066 A 
HETATM   16  C17 UNK     1      28.469  -8.639  33.272  1.00  0.00     0.017 A 
HETATM   17  C18 UNK     1      28.476  -8.589  34.670  1.00  0.00     0.030 A 
BRANCH  15  18
HETATM   18  C21 UNK     1      28.461  -8.725  30.273  1.00  0.00     0.418 C 
HETATM   19  F1  UNK     1      27.146  -8.985  30.419  1.00  0.00    -0.166 F 
HETATM   20  F2  UNK     1      28.711  -8.567  28.959  1.00  0.00    -0.166 F 
HETATM   21  F3  UNK     1      29.147  -9.803  30.701  1.00  0.00    -0.166 F 
ENDBRANCH  15  18
ENDBRANCH   5   7
ENDBRANCH   3   5
ENDBRANCH   1   3
BRANCH   1  22
HETATM   22  C7  UNK     1      31.784  -7.498  37.197  1.00  0.00     0.094 A 
HETATM   23  C3  UNK     1      32.217  -6.191  37.153  1.00  0.00     0.080 A 
HETATM   24  C2  UNK     1      33.278  -6.009  36.219  1.00  0.00    -0.020 A 
HETATM   25  C1  UNK     1      33.616  -7.184  35.586  1.00  0.00     0.082 A 
HETATM   26  C8  UNK     1      33.941  -4.706  35.961  1.00  0.00     0.051 C 
HETATM   27  S1  UNK     1      32.656  -8.499  36.115  1.00  0.00    -0.065 SA
BRANCH  23  28
HETATM   28  C15 UNK     1      31.637  -5.156  37.972  1.00  0.00     0.296 C 
HETATM   29  O4  UNK     1      32.214  -4.634  38.938  1.00  0.00    -0.259 OA
BRANCH  28  30
HETATM   30  O3  UNK     1      30.365  -4.788  37.591  1.00  0.00    -0.322 OA
HETATM   31  C23 UNK     1      29.486  -4.331  38.626  1.00  0.00     0.213 C 
ENDBRANCH  28  30
ENDBRANCH  23  28
BRANCH  25  32
HETATM   32  C4  UNK     1      34.617  -7.421  34.595  1.00  0.00     0.261 C 
HETATM   33  O2  UNK     1      35.800  -7.675  34.908  1.00  0.00    -0.267 OA
HETATM   34  N1  UNK     1      34.248  -7.362  33.221  1.00  0.00    -0.348 N 
BRANCH  34  35
HETATM   35  C5  UNK     1      32.887  -7.096  32.755  1.00  0.00     0.121 C 
HETATM   36  C10 UNK     1      32.276  -8.318  32.100  1.00  0.00     0.026 C 
ENDBRANCH  34  35
BRANCH  34  37
HETATM   37  C6  UNK     1      35.233  -7.595  32.173  1.00  0.00     0.121 C 
HETATM   38  C11 UNK     1      35.884  -6.303  31.725  1.00  0.00     0.026 C 
ENDBRANCH  34  37
ENDBRANCH  25  32
ENDBRANCH   1  22
TORSDOF 10
ENDMDL
MODEL 10
REMARK VINA RESULT:      -8.5     16.118     18.785
REMARK  10 active torsions:
REMARK  status: ('A' for Active; 'I' for Inactive)
REMARK    1  A    between atoms: C15_28  and  O3_8 
REMARK       I    between atoms: C4_17  and  N1_11 
REMARK    2  A    between atoms: C5_18  and  N1_11 
REMARK    3  A    between atoms: C6_19  and  N1_11 
REMARK    4  A    between atoms: C19_32  and  N2_12 
REMARK    5  A    between atoms: C7_20  and  N2_12 
REMARK    6  A    between atoms: C13_26  and  N3_13 
REMARK    7  A    between atoms: C19_32  and  N3_13 
REMARK    8  A    between atoms: C1_14  and  C4_17 
REMARK    9  A    between atoms: C15_28  and  C3_16 
REMARK   10  A    between atoms: C14_27  and  C21_34 
ROOT
HETATM    1  N2  UNK     1      33.146  -5.320  34.584  1.00  0.00    -0.326 N 
HETATM    2  H8  UNK     1      33.634  -4.640  34.005  1.00  0.00     0.169 HD
ENDROOT
BRANCH   1   3
HETATM    3  C19 UNK     1      33.524  -5.352  35.897  1.00  0.00     0.177 C 
HETATM    4  S2  UNK     1      35.121  -5.735  36.273  1.00  0.00    -0.040 SA
BRANCH   3   5
HETATM    5  N3  UNK     1      32.627  -5.102  36.921  1.00  0.00    -0.333 N 
HETATM    6  H18 UNK     1      32.634  -4.132  37.229  1.00  0.00     0.168 HD
BRANCH   5   7
HETATM    7  C13 UNK     1      31.481  -5.796  37.307  1.00  0.00     0.036 A 
HETATM    8  C16 UNK     1      30.313  -5.104  37.609  1.00  0.00     0.067 A 
HETATM    9  C12 UNK     1      29.177  -5.818  37.992  1.00  0.00     0.092 A 
HETATM   10  O1  UNK     1      28.024  -5.062  38.286  1.00  0.00    -0.275 OA
HETATM   11  C9  UNK     1      29.168  -7.211  38.085  1.00  0.00     0.013 A 
HETATM   12  C22 UNK     1      26.839  -5.667  38.676  1.00  0.00     0.289 A 
HETATM   13  C20 UNK     1      26.847  -7.136  38.769  1.00  0.00     0.099 A 
HETATM   14  O5  UNK     1      25.832  -5.018  38.932  1.00  0.00    -0.260 OA
HETATM   15  C14 UNK     1      27.927  -7.881  38.496  1.00  0.00     0.066 A 
HETATM   16  C17 UNK     1      30.354  -7.890  37.777  1.00  0.00     0.017 A 
HETATM   17  C18 UNK     1      31.501  -7.188  37.391  1.00  0.00     0.030 A 
BRANCH  15  18
HETATM   18  C21 UNK     1      27.885  -9.378  38.606  1.00  0.00     0.418 C 
HETATM   19  F1  UNK     1      27.942  -9.949  37.387  1.00  0.00    -0.166 F 
HETATM   20  F2  UNK     1      28.925  -9.836  39.329  1.00  0.00    -0.166 F 
HETATM   21  F3  UNK     1      26.749  -9.787  39.205  1.00  0.00    -0.166 F 
ENDBRANCH  15  18
ENDBRANCH   5   7
ENDBRANCH   3   5
ENDBRANCH   1   3
BRANCH   1  22
HETATM   22  C7  UNK     1      32.453  -6.311  33.877  1.00  0.00     0.094 A 
HETATM   23  C3  UNK     1      32.883  -7.478  33.286  1.00  0.00     0.080 A 
HETATM   24  C2  UNK     1      31.816  -8.190  32.666  1.00  0.00    -0.020 A 
HETATM   25  C1  UNK     1      30.610  -7.539  32.808  1.00  0.00     0.082 A 
HETATM   26  C8  UNK     1      31.984  -9.481  31.953  1.00  0.00     0.051 C 
HETATM   27  S1  UNK     1      30.768  -6.076  33.683  1.00  0.00    -0.065 SA
BRANCH  23  28
HETATM   28  C15 UNK     1      34.263  -7.896  33.313  1.00  0.00     0.296 C 
HETATM   29  O4  UNK     1      34.668  -8.902  33.914  1.00  0.00    -0.259 OA
BRANCH  28  30
HETATM   30  O3  UNK     1      35.111  -7.072  32.606  1.00  0.00    -0.322 OA
HETATM   31  C23 UNK     1      35.080  -7.184  31.178  1.00  0.00     0.213 C 
ENDBRANCH  28  30
ENDBRANCH  23  28
BRANCH  25  32
HETATM   32  C4  UNK     1      29.317  -7.920  32.335  1.00  0.00     0.261 C 
HETATM   33  O2  UNK     1      28.515  -8.547  33.061  1.00  0.00    -0.267 OA
HETATM   34  N1  UNK     1      28.944  -7.573  31.006  1.00  0.00    -0.348 N 
BRANCH  34  35
HETATM   35  C5  UNK     1      29.801  -6.821  30.091  1.00  0.00     0.121 C 
HETATM   36  C10 UNK     1      30.384  -7.714  29.015  1.00  0.00     0.026 C 
ENDBRANCH  34  35
BRANCH  34  37
HETATM   37  C6  UNK     1      27.636  -7.941  30.478  1.00  0.00     0.121 C 
HETATM   38  C11 UNK     1      26.648  -6.800  30.599  1.00  0.00     0.026 C 
ENDBRANCH  34  37
ENDBRANCH  25  32
ENDBRANCH   1  22
TORSDOF 10
ENDMDL
