MODEL 1
REMARK VINA RESULT:      -9.8      0.000      0.000
REMARK  6 active torsions:
REMARK  status: ('A' for Active; 'I' for Inactive)
REMARK    1  A    between atoms: C5_12  and  N1_4 
REMARK    2  A    between atoms: C6_13  and  N2_5 
REMARK    3  A    between atoms: C18_25  and  N3_6 
REMARK       I    between atoms: C9_16  and  N3_6 
REMARK    4  A    between atoms: C5_12  and  C7_14 
REMARK    5  A    between atoms: C6_13  and  C9_16 
REMARK    6  A    between atoms: C13_20  and  C17_24 
ROOT
HETATM    1  N4  UNK     1      18.295   2.352  28.540  1.00  0.00    -0.191 NA
HETATM    2  C18 UNK     1      18.082   2.663  33.361  1.00  0.00     0.036 A 
HETATM    3  C20 UNK     1      18.072   2.235  32.033  1.00  0.00     0.052 A 
HETATM    4  C21 UNK     1      18.332   4.002  33.660  1.00  0.00     0.029 A 
HETATM    5  C22 UNK     1      18.313   3.145  31.005  1.00  0.00     0.046 A 
HETATM    6  C23 UNK     1      18.573   4.914  32.632  1.00  0.00     0.004 A 
HETATM    7  C24 UNK     1      18.563   4.486  31.304  1.00  0.00     0.023 A 
HETATM    8  C25 UNK     1      18.303   2.709  29.645  1.00  0.00     0.099 C 
ENDROOT
BRANCH   2   9
HETATM    9  N3  UNK     1      17.838   1.739  34.405  1.00  0.00    -0.326 N 
HETATM   10  C9  UNK     1      18.645   1.472  35.509  1.00  0.00     0.250 C 
HETATM   11  O2  UNK     1      19.724   1.989  35.782  1.00  0.00    -0.271 OA
HETATM   12  H16 UNK     1      16.964   1.225  34.322  1.00  0.00     0.169 HD
BRANCH  10  13
HETATM   13  C6  UNK     1      18.004   0.407  36.383  1.00  0.00     0.375 C 
BRANCH  13  14
HETATM   14  N2  UNK     1      18.907  -0.737  36.496  1.00  0.00     0.100 N 
HETATM   15  C3  UNK     1      18.463  -1.647  37.559  1.00  0.00     0.303 C 
HETATM   16  C1  UNK     1      19.409  -2.847  37.679  1.00  0.00     0.303 C 
HETATM   17  N1  UNK     1      19.511  -3.562  36.400  1.00  0.00     0.096 N 
HETATM   18  C2  UNK     1      19.953  -2.651  35.338  1.00  0.00     0.303 C 
HETATM   19  C4  UNK     1      19.007  -1.452  35.219  1.00  0.00     0.303 C 
BRANCH  17  20
HETATM   20  C5  UNK     1      20.416  -4.704  36.516  1.00  0.00     0.312 C 
BRANCH  20  21
HETATM   21  C7  UNK     1      19.689  -6.004  36.468  1.00  0.00    -0.011 A 
HETATM   22  C10 UNK     1      18.635  -6.179  35.659  1.00  0.00     0.092 A 
HETATM   23  C14 UNK     1      17.885  -7.443  35.577  1.00  0.00     0.288 A 
HETATM   24  O1  UNK     1      18.321  -8.479  36.389  1.00  0.00    -0.275 OA
HETATM   25  O3  UNK     1      16.927  -7.566  34.822  1.00  0.00    -0.260 OA
HETATM   26  C11 UNK     1      19.426  -8.325  37.250  1.00  0.00     0.090 A 
HETATM   27  C8  UNK     1      20.126  -7.120  37.318  1.00  0.00     0.007 A 
HETATM   28  C15 UNK     1      19.774  -9.434  38.023  1.00  0.00     0.039 A 
HETATM   29  C12 UNK     1      21.212  -7.048  38.200  1.00  0.00     0.022 A 
HETATM   30  C13 UNK     1      21.575  -8.151  38.980  1.00  0.00    -0.058 A 
HETATM   31  C16 UNK     1      20.856  -9.343  38.892  1.00  0.00     0.010 A 
BRANCH  30  32
HETATM   32  C17 UNK     1      22.735  -8.052  39.913  1.00  0.00     0.034 C 
HETATM   33  C19 UNK     1      24.053  -7.831  39.177  1.00  0.00     0.010 C 
ENDBRANCH  30  32
ENDBRANCH  20  21
ENDBRANCH  17  20
ENDBRANCH  13  14
ENDBRANCH  10  13
ENDBRANCH   2   9
TORSDOF 6
ENDMDL
MODEL 2
REMARK VINA RESULT:      -9.7      1.563      2.157
REMARK  6 active torsions:
REMARK  status: ('A' for Active; 'I' for Inactive)
REMARK    1  A    between atoms: C5_12  and  N1_4 
REMARK    2  A    between atoms: C6_13  and  N2_5 
REMARK    3  A    between atoms: C18_25  and  N3_6 
REMARK       I    between atoms: C9_16  and  N3_6 
REMARK    4  A    between atoms: C5_12  and  C7_14 
REMARK    5  A    between atoms: C6_13  and  C9_16 
REMARK    6  A    between atoms: C13_20  and  C17_24 
ROOT
HETATM    1  N4  UNK     1      18.228   8.015  33.357  1.00  0.00    -0.191 NA
HETATM    2  C18 UNK     1      18.079   3.301  32.291  1.00  0.00     0.036 A 
HETATM    3  C20 UNK     1      17.978   4.552  32.900  1.00  0.00     0.052 A 
HETATM    4  C21 UNK     1      18.615   3.191  31.009  1.00  0.00     0.029 A 
HETATM    5  C22 UNK     1      18.414   5.692  32.227  1.00  0.00     0.046 A 
HETATM    6  C23 UNK     1      19.052   4.331  30.334  1.00  0.00     0.004 A 
HETATM    7  C24 UNK     1      18.951   5.582  30.944  1.00  0.00     0.023 A 
HETATM    8  C25 UNK     1      18.312   6.974  32.850  1.00  0.00     0.099 C 
ENDROOT
BRANCH   2   9
HETATM    9  N3  UNK     1      17.636   2.143  32.975  1.00  0.00    -0.326 N 
HETATM   10  C9  UNK     1      18.109   1.638  34.184  1.00  0.00     0.250 C 
HETATM   11  O2  UNK     1      19.005   2.102  34.883  1.00  0.00    -0.271 OA
HETATM   12  H16 UNK     1      16.881   1.641  32.515  1.00  0.00     0.169 HD
BRANCH  10  13
HETATM   13  C6  UNK     1      17.353   0.374  34.557  1.00  0.00     0.375 C 
BRANCH  13  14
HETATM   14  N2  UNK     1      18.229  -0.507  35.327  1.00  0.00     0.100 N 
HETATM   15  C3  UNK     1      17.453  -1.307  36.283  1.00  0.00     0.303 C 
HETATM   16  C1  UNK     1      18.370  -2.232  37.091  1.00  0.00     0.303 C 
HETATM   17  N1  UNK     1      19.145  -3.106  36.201  1.00  0.00     0.096 N 
HETATM   18  C2  UNK     1      19.920  -2.306  35.244  1.00  0.00     0.303 C 
HETATM   19  C4  UNK     1      19.002  -1.382  34.438  1.00  0.00     0.303 C 
BRANCH  17  20
HETATM   20  C5  UNK     1      20.021  -3.985  36.973  1.00  0.00     0.312 C 
BRANCH  20  21
HETATM   21  C7  UNK     1      19.703  -5.424  36.759  1.00  0.00    -0.011 A 
HETATM   22  C10 UNK     1      18.596  -5.799  36.103  1.00  0.00     0.092 A 
HETATM   23  C14 UNK     1      18.239  -7.208  35.867  1.00  0.00     0.288 A 
HETATM   24  O1  UNK     1      19.114  -8.163  36.361  1.00  0.00    -0.275 OA
HETATM   25  O3  UNK     1      17.217  -7.511  35.260  1.00  0.00    -0.260 OA
HETATM   26  C11 UNK     1      20.286  -7.800  37.054  1.00  0.00     0.090 A 
HETATM   27  C8  UNK     1      20.611  -6.461  37.271  1.00  0.00     0.007 A 
HETATM   28  C15 UNK     1      21.093  -8.846  37.507  1.00  0.00     0.039 A 
HETATM   29  C12 UNK     1      21.793  -6.183  37.970  1.00  0.00     0.022 A 
HETATM   30  C13 UNK     1      22.612  -7.220  38.429  1.00  0.00    -0.058 A 
HETATM   31  C16 UNK     1      22.262  -8.550  38.198  1.00  0.00     0.010 A 
BRANCH  30  32
HETATM   32  C17 UNK     1      23.867  -6.901  39.172  1.00  0.00     0.034 C 
HETATM   33  C19 UNK     1      24.898  -8.021  39.075  1.00  0.00     0.010 C 
ENDBRANCH  30  32
ENDBRANCH  20  21
ENDBRANCH  17  20
ENDBRANCH  13  14
ENDBRANCH  10  13
ENDBRANCH   2   9
TORSDOF 6
ENDMDL
MODEL 3
REMARK VINA RESULT:      -9.5      1.857      2.377
REMARK  6 active torsions:
REMARK  status: ('A' for Active; 'I' for Inactive)
REMARK    1  A    between atoms: C5_12  and  N1_4 
REMARK    2  A    between atoms: C6_13  and  N2_5 
REMARK    3  A    between atoms: C18_25  and  N3_6 
REMARK       I    between atoms: C9_16  and  N3_6 
REMARK    4  A    between atoms: C5_12  and  C7_14 
REMARK    5  A    between atoms: C6_13  and  C9_16 
REMARK    6  A    between atoms: C13_20  and  C17_24 
ROOT
HETATM    1  N4  UNK     1      17.808   2.425  27.903  1.00  0.00    -0.191 NA
HETATM    2  C18 UNK     1      19.355   0.042  31.816  1.00  0.00     0.036 A 
HETATM    3  C20 UNK     1      18.742   0.925  30.927  1.00  0.00     0.052 A 
HETATM    4  C21 UNK     1      20.172  -0.979  31.333  1.00  0.00     0.029 A 
HETATM    5  C22 UNK     1      18.946   0.787  29.555  1.00  0.00     0.046 A 
HETATM    6  C23 UNK     1      20.377  -1.118  29.960  1.00  0.00     0.004 A 
HETATM    7  C24 UNK     1      19.764  -0.235  29.071  1.00  0.00     0.023 A 
HETATM    8  C25 UNK     1      18.319   1.690  28.643  1.00  0.00     0.099 C 
ENDROOT
BRANCH   2   9
HETATM    9  N3  UNK     1      19.148   0.183  33.210  1.00  0.00    -0.326 N 
HETATM   10  C9  UNK     1      18.057  -0.259  33.955  1.00  0.00     0.250 C 
HETATM   11  O2  UNK     1      17.066  -0.852  33.540  1.00  0.00    -0.271 OA
HETATM   12  H16 UNK     1      19.897   0.660  33.704  1.00  0.00     0.169 HD
BRANCH  10  13
HETATM   13  C6  UNK     1      18.241   0.101  35.419  1.00  0.00     0.375 C 
BRANCH  13  14
HETATM   14  N2  UNK     1      18.806  -1.042  36.134  1.00  0.00     0.100 N 
HETATM   15  C3  UNK     1      17.756  -2.004  36.490  1.00  0.00     0.303 C 
HETATM   16  C1  UNK     1      18.346  -3.204  37.239  1.00  0.00     0.303 C 
HETATM   17  N1  UNK     1      19.391  -3.856  36.440  1.00  0.00     0.096 N 
HETATM   18  C2  UNK     1      20.440  -2.893  36.084  1.00  0.00     0.303 C 
HETATM   19  C4  UNK     1      19.848  -1.695  35.334  1.00  0.00     0.303 C 
BRANCH  17  20
HETATM   20  C5  UNK     1      19.956  -4.998  37.157  1.00  0.00     0.312 C 
BRANCH  20  21
HETATM   21  C7  UNK     1      19.266  -6.272  36.817  1.00  0.00    -0.011 A 
HETATM   22  C10 UNK     1      18.299  -6.311  35.890  1.00  0.00     0.092 A 
HETATM   23  C14 UNK     1      17.588  -7.546  35.520  1.00  0.00     0.288 A 
HETATM   24  O1  UNK     1      17.964  -8.704  36.183  1.00  0.00    -0.275 OA
HETATM   25  O3  UNK     1      16.710  -7.541  34.664  1.00  0.00    -0.260 OA
HETATM   26  C11 UNK     1      18.977  -8.695  37.163  1.00  0.00     0.090 A 
HETATM   27  C8  UNK     1      19.641  -7.516  37.504  1.00  0.00     0.007 A 
HETATM   28  C15 UNK     1      19.272  -9.919  37.766  1.00  0.00     0.039 A 
HETATM   29  C12 UNK     1      20.635  -7.592  38.488  1.00  0.00     0.022 A 
HETATM   30  C13 UNK     1      20.943  -8.811  39.102  1.00  0.00    -0.058 A 
HETATM   31  C16 UNK     1      20.263  -9.973  38.741  1.00  0.00     0.010 A 
BRANCH  30  32
HETATM   32  C17 UNK     1      22.006  -8.868  40.148  1.00  0.00     0.034 C 
HETATM   33  C19 UNK     1      22.898  -7.631  40.136  1.00  0.00     0.010 C 
ENDBRANCH  30  32
ENDBRANCH  20  21
ENDBRANCH  17  20
ENDBRANCH  13  14
ENDBRANCH  10  13
ENDBRANCH   2   9
TORSDOF 6
ENDMDL
MODEL 4
REMARK VINA RESULT:      -9.4      6.034     13.453
REMARK  6 active torsions:
REMARK  status: ('A' for Active; 'I' for Inactive)
REMARK    1  A    between atoms: C5_12  and  N1_4 
REMARK    2  A    between atoms: C6_13  and  N2_5 
REMARK    3  A    between atoms: C18_25  and  N3_6 
REMARK       I    between atoms: C9_16  and  N3_6 
REMARK    4  A    between atoms: C5_12  and  C7_14 
REMARK    5  A    between atoms: C6_13  and  C9_16 
REMARK    6  A    between atoms: C13_20  and  C17_24 
ROOT
HETATM    1  N4  UNK     1      20.174  -2.447  34.027  1.00  0.00    -0.191 NA
HETATM    2  C18 UNK     1      19.915   0.439  30.155  1.00  0.00     0.036 A 
HETATM    3  C20 UNK     1      19.949  -0.091  31.445  1.00  0.00     0.052 A 
HETATM    4  C21 UNK     1      20.044  -0.404  29.052  1.00  0.00     0.029 A 
HETATM    5  C22 UNK     1      20.112  -1.462  31.632  1.00  0.00     0.046 A 
HETATM    6  C23 UNK     1      20.207  -1.777  29.238  1.00  0.00     0.004 A 
HETATM    7  C24 UNK     1      20.241  -2.307  30.528  1.00  0.00     0.023 A 
HETATM    8  C25 UNK     1      20.146  -2.006  32.953  1.00  0.00     0.099 C 
ENDROOT
BRANCH   2   9
HETATM    9  N3  UNK     1      19.750   1.832  29.965  1.00  0.00    -0.326 N 
HETATM   10  C9  UNK     1      18.563   2.561  30.014  1.00  0.00     0.250 C 
HETATM   11  O2  UNK     1      17.435   2.128  30.228  1.00  0.00    -0.271 OA
HETATM   12  H16 UNK     1      20.610   2.341  29.779  1.00  0.00     0.169 HD
BRANCH  10  13
HETATM   13  C6  UNK     1      18.839   4.032  29.753  1.00  0.00     0.375 C 
BRANCH  13  14
HETATM   14  N2  UNK     1      18.252   4.834  30.824  1.00  0.00     0.100 N 
HETATM   15  C3  UNK     1      18.677   4.340  32.139  1.00  0.00     0.303 C 
HETATM   16  C1  UNK     1      18.062   5.182  33.263  1.00  0.00     0.303 C 
HETATM   17  N1  UNK     1      18.416   6.599  33.108  1.00  0.00     0.096 N 
HETATM   18  C2  UNK     1      17.991   7.092  31.792  1.00  0.00     0.303 C 
HETATM   19  C4  UNK     1      18.607   6.250  30.670  1.00  0.00     0.303 C 
BRANCH  17  20
HETATM   20  C5  UNK     1      17.826   7.400  34.179  1.00  0.00     0.312 C 
BRANCH  20  21
HETATM   21  C7  UNK     1      16.508   7.975  33.789  1.00  0.00    -0.011 A 
HETATM   22  C10 UNK     1      15.498   7.187  33.396  1.00  0.00     0.092 A 
HETATM   23  C14 UNK     1      14.178   7.708  33.002  1.00  0.00     0.288 A 
HETATM   24  O1  UNK     1      14.011   9.084  33.053  1.00  0.00    -0.275 OA
HETATM   25  O3  UNK     1      13.277   6.955  32.650  1.00  0.00    -0.260 OA
HETATM   26  C11 UNK     1      15.055   9.937  33.462  1.00  0.00     0.090 A 
HETATM   27  C8  UNK     1      16.301   9.429  33.832  1.00  0.00     0.007 A 
HETATM   28  C15 UNK     1      14.774  11.305  33.475  1.00  0.00     0.039 A 
HETATM   29  C12 UNK     1      17.286  10.344  34.226  1.00  0.00     0.022 A 
HETATM   30  C13 UNK     1      17.020  11.718  34.244  1.00  0.00    -0.058 A 
HETATM   31  C16 UNK     1      15.766  12.198  33.869  1.00  0.00     0.010 A 
BRANCH  30  32
HETATM   32  C17 UNK     1      18.084  12.675  34.667  1.00  0.00     0.034 C 
HETATM   33  C19 UNK     1      18.269  13.814  33.669  1.00  0.00     0.010 C 
ENDBRANCH  30  32
ENDBRANCH  20  21
ENDBRANCH  17  20
ENDBRANCH  13  14
ENDBRANCH  10  13
ENDBRANCH   2   9
TORSDOF 6
ENDMDL
MODEL 5
REMARK VINA RESULT:      -8.9      3.588     10.761
REMARK  6 active torsions:
REMARK  status: ('A' for Active; 'I' for Inactive)
REMARK    1  A    between atoms: C5_12  and  N1_4 
REMARK    2  A    between atoms: C6_13  and  N2_5 
REMARK    3  A    between atoms: C18_25  and  N3_6 
REMARK       I    between atoms: C9_16  and  N3_6 
REMARK    4  A    between atoms: C5_12  and  C7_14 
REMARK    5  A    between atoms: C6_13  and  C9_16 
REMARK    6  A    between atoms: C13_20  and  C17_24 
ROOT
HETATM    1  N4  UNK     1      27.320  -9.175  37.444  1.00  0.00    -0.191 NA
HETATM    2  C18 UNK     1      22.741 -10.120  36.208  1.00  0.00     0.036 A 
HETATM    3  C20 UNK     1      23.926  -9.537  36.659  1.00  0.00     0.052 A 
HETATM    4  C21 UNK     1      22.750 -11.421  35.706  1.00  0.00     0.029 A 
HETATM    5  C22 UNK     1      25.119 -10.255  36.607  1.00  0.00     0.046 A 
HETATM    6  C23 UNK     1      23.945 -12.140  35.654  1.00  0.00     0.004 A 
HETATM    7  C24 UNK     1      25.129 -11.557  36.105  1.00  0.00     0.023 A 
HETATM    8  C25 UNK     1      26.333  -9.660  37.068  1.00  0.00     0.099 C 
ENDROOT
BRANCH   2   9
HETATM    9  N3  UNK     1      21.528  -9.390  36.261  1.00  0.00    -0.326 N 
HETATM   10  C9  UNK     1      20.338  -9.766  36.880  1.00  0.00     0.250 C 
HETATM   11  O2  UNK     1      20.116 -10.805  37.494  1.00  0.00    -0.271 OA
HETATM   12  H16 UNK     1      21.554  -8.489  35.792  1.00  0.00     0.169 HD
BRANCH  10  13
HETATM   13  C6  UNK     1      19.286  -8.686  36.694  1.00  0.00     0.375 C 
BRANCH  13  14
HETATM   14  N2  UNK     1      19.941  -7.388  36.547  1.00  0.00     0.100 N 
HETATM   15  C3  UNK     1      19.519  -6.728  35.307  1.00  0.00     0.303 C 
HETATM   16  C1  UNK     1      20.205  -5.366  35.152  1.00  0.00     0.303 C 
HETATM   17  N1  UNK     1      19.929  -4.507  36.310  1.00  0.00     0.096 N 
HETATM   18  C2  UNK     1      20.350  -5.169  37.551  1.00  0.00     0.303 C 
HETATM   19  C4  UNK     1      19.663  -6.529  37.704  1.00  0.00     0.303 C 
BRANCH  17  20
HETATM   20  C5  UNK     1      20.587  -3.210  36.163  1.00  0.00     0.312 C 
BRANCH  20  21
HETATM   21  C7  UNK     1      20.131  -2.484  34.946  1.00  0.00    -0.011 A 
HETATM   22  C10 UNK     1      20.655  -2.751  33.742  1.00  0.00     0.092 A 
HETATM   23  C14 UNK     1      20.237  -2.060  32.511  1.00  0.00     0.288 A 
HETATM   24  O1  UNK     1      19.252  -1.094  32.643  1.00  0.00    -0.275 OA
HETATM   25  O3  UNK     1      20.740  -2.334  31.426  1.00  0.00    -0.260 OA
HETATM   26  C11 UNK     1      18.682  -0.791  33.895  1.00  0.00     0.090 A 
HETATM   27  C8  UNK     1      19.088  -1.453  35.054  1.00  0.00     0.007 A 
HETATM   28  C15 UNK     1      17.698   0.201  33.910  1.00  0.00     0.039 A 
HETATM   29  C12 UNK     1      18.473  -1.093  36.259  1.00  0.00     0.022 A 
HETATM   30  C13 UNK     1      17.485  -0.102  36.290  1.00  0.00    -0.058 A 
HETATM   31  C16 UNK     1      17.099   0.544  35.117  1.00  0.00     0.010 A 
BRANCH  30  32
HETATM   32  C17 UNK     1      16.843   0.266  37.586  1.00  0.00     0.034 C 
HETATM   33  C19 UNK     1      17.619   1.346  38.332  1.00  0.00     0.010 C 
ENDBRANCH  30  32
ENDBRANCH  20  21
ENDBRANCH  17  20
ENDBRANCH  13  14
ENDBRANCH  10  13
ENDBRANCH   2   9
TORSDOF 6
ENDMDL
MODEL 6
REMARK VINA RESULT:      -8.8      2.479     11.370
REMARK  6 active torsions:
REMARK  status: ('A' for Active; 'I' for Inactive)
REMARK    1  A    between atoms: C5_12  and  N1_4 
REMARK    2  A    between atoms: C6_13  and  N2_5 
REMARK    3  A    between atoms: C18_25  and  N3_6 
REMARK       I    between atoms: C9_16  and  N3_6 
REMARK    4  A    between atoms: C5_12  and  C7_14 
REMARK    5  A    between atoms: C6_13  and  C9_16 
REMARK    6  A    between atoms: C13_20  and  C17_24 
ROOT
HETATM    1  N4  UNK     1      20.858  -9.232  39.469  1.00  0.00    -0.191 NA
HETATM    2  C18 UNK     1      19.329  -5.779  36.450  1.00  0.00     0.036 A 
HETATM    3  C20 UNK     1      19.599  -6.581  37.558  1.00  0.00     0.052 A 
HETATM    4  C21 UNK     1      19.817  -6.138  35.194  1.00  0.00     0.029 A 
HETATM    5  C22 UNK     1      20.357  -7.742  37.411  1.00  0.00     0.046 A 
HETATM    6  C23 UNK     1      20.576  -7.299  35.046  1.00  0.00     0.004 A 
HETATM    7  C24 UNK     1      20.845  -8.102  36.155  1.00  0.00     0.023 A 
HETATM    8  C25 UNK     1      20.634  -8.565  38.546  1.00  0.00     0.099 C 
ENDROOT
BRANCH   2   9
HETATM    9  N3  UNK     1      18.559  -4.600  36.599  1.00  0.00    -0.326 N 
HETATM   10  C9  UNK     1      19.024  -3.297  36.764  1.00  0.00     0.250 C 
HETATM   11  O2  UNK     1      20.193  -2.927  36.816  1.00  0.00    -0.271 OA
HETATM   12  H16 UNK     1      17.553  -4.744  36.574  1.00  0.00     0.169 HD
BRANCH  10  13
HETATM   13  C6  UNK     1      17.856  -2.334  36.886  1.00  0.00     0.375 C 
BRANCH  13  14
HETATM   14  N2  UNK     1      18.286  -0.994  36.493  1.00  0.00     0.100 N 
HETATM   15  C3  UNK     1      18.262  -0.846  35.033  1.00  0.00     0.303 C 
HETATM   16  C1  UNK     1      18.713   0.559  34.619  1.00  0.00     0.303 C 
HETATM   17  N1  UNK     1      17.874   1.585  35.253  1.00  0.00     0.096 N 
HETATM   18  C2  UNK     1      17.898   1.435  36.713  1.00  0.00     0.303 C 
HETATM   19  C4  UNK     1      17.447   0.031  37.125  1.00  0.00     0.303 C 
BRANCH  17  20
HETATM   20  C5  UNK     1      18.308   2.924  34.860  1.00  0.00     0.312 C 
BRANCH  20  21
HETATM   21  C7  UNK     1      18.356   3.087  33.380  1.00  0.00    -0.011 A 
HETATM   22  C10 UNK     1      18.361   2.023  32.565  1.00  0.00     0.092 A 
HETATM   23  C14 UNK     1      18.408   2.134  31.098  1.00  0.00     0.288 A 
HETATM   24  O1  UNK     1      18.448   3.416  30.571  1.00  0.00    -0.275 OA
HETATM   25  O3  UNK     1      18.409   1.136  30.385  1.00  0.00    -0.260 OA
HETATM   26  C11 UNK     1      18.444   4.554  31.402  1.00  0.00     0.090 A 
HETATM   27  C8  UNK     1      18.400   4.433  32.792  1.00  0.00     0.007 A 
HETATM   28  C15 UNK     1      18.487   5.794  30.763  1.00  0.00     0.039 A 
HETATM   29  C12 UNK     1      18.400   5.613  33.547  1.00  0.00     0.022 A 
HETATM   30  C13 UNK     1      18.442   6.864  32.921  1.00  0.00    -0.058 A 
HETATM   31  C16 UNK     1      18.486   6.954  31.530  1.00  0.00     0.010 A 
BRANCH  30  32
HETATM   32  C17 UNK     1      18.441   8.107  33.746  1.00  0.00     0.034 C 
HETATM   33  C19 UNK     1      19.394   8.016  34.933  1.00  0.00     0.010 C 
ENDBRANCH  30  32
ENDBRANCH  20  21
ENDBRANCH  17  20
ENDBRANCH  13  14
ENDBRANCH  10  13
ENDBRANCH   2   9
TORSDOF 6
ENDMDL
MODEL 7
REMARK VINA RESULT:      -8.8     27.638     30.554
REMARK  6 active torsions:
REMARK  status: ('A' for Active; 'I' for Inactive)
REMARK    1  A    between atoms: C5_12  and  N1_4 
REMARK    2  A    between atoms: C6_13  and  N2_5 
REMARK    3  A    between atoms: C18_25  and  N3_6 
REMARK       I    between atoms: C9_16  and  N3_6 
REMARK    4  A    between atoms: C5_12  and  C7_14 
REMARK    5  A    between atoms: C6_13  and  C9_16 
REMARK    6  A    between atoms: C13_20  and  C17_24 
ROOT
HETATM    1  N4  UNK     1       7.059   5.189   9.261  1.00  0.00    -0.191 NA
HETATM    2  C18 UNK     1      11.460   6.106   7.481  1.00  0.00     0.036 A 
HETATM    3  C20 UNK     1      10.373   5.766   8.285  1.00  0.00     0.052 A 
HETATM    4  C21 UNK     1      11.254   6.505   6.160  1.00  0.00     0.029 A 
HETATM    5  C22 UNK     1       9.079   5.822   7.769  1.00  0.00     0.046 A 
HETATM    6  C23 UNK     1       9.959   6.562   5.643  1.00  0.00     0.004 A 
HETATM    7  C24 UNK     1       8.872   6.221   6.448  1.00  0.00     0.023 A 
HETATM    8  C25 UNK     1       7.964   5.473   8.592  1.00  0.00     0.099 C 
ENDROOT
BRANCH   2   9
HETATM    9  N3  UNK     1      12.775   6.049   8.005  1.00  0.00    -0.326 N 
HETATM   10  C9  UNK     1      13.154   6.032   9.345  1.00  0.00     0.250 C 
HETATM   11  O2  UNK     1      12.417   6.068  10.326  1.00  0.00    -0.271 OA
HETATM   12  H16 UNK     1      13.510   6.010   7.304  1.00  0.00     0.169 HD
BRANCH  10  13
HETATM   13  C6  UNK     1      14.667   5.965   9.462  1.00  0.00     0.375 C 
BRANCH  13  14
HETATM   14  N2  UNK     1      15.180   7.265   9.890  1.00  0.00     0.100 N 
HETATM   15  C3  UNK     1      16.645   7.246   9.972  1.00  0.00     0.303 C 
HETATM   16  C1  UNK     1      17.185   8.609  10.421  1.00  0.00     0.303 C 
HETATM   17  N1  UNK     1      16.735   9.672   9.513  1.00  0.00     0.096 N 
HETATM   18  C2  UNK     1      15.270   9.690   9.430  1.00  0.00     0.303 C 
HETATM   19  C4  UNK     1      14.733   8.328   8.982  1.00  0.00     0.303 C 
BRANCH  17  20
HETATM   20  C5  UNK     1      17.248  10.972   9.944  1.00  0.00     0.312 C 
BRANCH  20  21
HETATM   21  C7  UNK     1      18.279  11.506   9.013  1.00  0.00    -0.011 A 
HETATM   22  C10 UNK     1      18.045  11.596   7.696  1.00  0.00     0.092 A 
HETATM   23  C14 UNK     1      19.033  12.117   6.737  1.00  0.00     0.288 A 
HETATM   24  O1  UNK     1      20.251  12.524   7.258  1.00  0.00    -0.275 OA
HETATM   25  O3  UNK     1      18.780  12.186   5.539  1.00  0.00    -0.260 OA
HETATM   26  C11 UNK     1      20.527  12.442   8.637  1.00  0.00     0.090 A 
HETATM   27  C8  UNK     1      19.582  11.945   9.534  1.00  0.00     0.007 A 
HETATM   28  C15 UNK     1      21.788  12.879   9.049  1.00  0.00     0.039 A 
HETATM   29  C12 UNK     1      19.934  11.895  10.889  1.00  0.00     0.022 A 
HETATM   30  C13 UNK     1      21.193  12.331  11.318  1.00  0.00    -0.058 A 
HETATM   31  C16 UNK     1      22.119  12.822  10.398  1.00  0.00     0.010 A 
BRANCH  30  32
HETATM   32  C17 UNK     1      21.547  12.268  12.766  1.00  0.00     0.034 C 
HETATM   33  C19 UNK     1      20.606  13.102  13.629  1.00  0.00     0.010 C 
ENDBRANCH  30  32
ENDBRANCH  20  21
ENDBRANCH  17  20
ENDBRANCH  13  14
ENDBRANCH  10  13
ENDBRANCH   2   9
TORSDOF 6
ENDMDL
MODEL 8
REMARK VINA RESULT:      -8.8      7.848     12.478
REMARK  6 active torsions:
REMARK  status: ('A' for Active; 'I' for Inactive)
REMARK    1  A    between atoms: C5_12  and  N1_4 
REMARK    2  A    between atoms: C6_13  and  N2_5 
REMARK    3  A    between atoms: C18_25  and  N3_6 
REMARK       I    between atoms: C9_16  and  N3_6 
REMARK    4  A    between atoms: C5_12  and  C7_14 
REMARK    5  A    between atoms: C6_13  and  C9_16 
REMARK    6  A    between atoms: C13_20  and  C17_24 
ROOT
HETATM    1  N4  UNK     1      18.985  -7.288  34.719  1.00  0.00    -0.191 NA
HETATM    2  C18 UNK     1      21.999  -8.462  38.313  1.00  0.00     0.036 A 
HETATM    3  C20 UNK     1      21.428  -8.104  37.092  1.00  0.00     0.052 A 
HETATM    4  C21 UNK     1      21.187  -8.671  39.428  1.00  0.00     0.029 A 
HETATM    5  C22 UNK     1      20.046  -7.953  36.986  1.00  0.00     0.046 A 
HETATM    6  C23 UNK     1      19.804  -8.520  39.322  1.00  0.00     0.004 A 
HETATM    7  C24 UNK     1      19.233  -8.162  38.101  1.00  0.00     0.023 A 
HETATM    8  C25 UNK     1      19.460  -7.586  35.735  1.00  0.00     0.099 C 
ENDROOT
BRANCH   2   9
HETATM    9  N3  UNK     1      23.402  -8.615  38.421  1.00  0.00    -0.326 N 
HETATM   10  C9  UNK     1      24.336  -7.648  38.789  1.00  0.00     0.250 C 
HETATM   11  O2  UNK     1      24.115  -6.478  39.085  1.00  0.00    -0.271 OA
HETATM   12  H16 UNK     1      23.746  -9.548  38.206  1.00  0.00     0.169 HD
BRANCH  10  13
HETATM   13  C6  UNK     1      25.736  -8.239  38.775  1.00  0.00     0.375 C 
BRANCH  13  14
HETATM   14  N2  UNK     1      26.672  -7.258  38.231  1.00  0.00     0.100 N 
HETATM   15  C3  UNK     1      27.722  -6.943  39.207  1.00  0.00     0.303 C 
HETATM   16  C1  UNK     1      28.706  -5.914  38.638  1.00  0.00     0.303 C 
HETATM   17  N1  UNK     1      29.299  -6.397  37.384  1.00  0.00     0.096 N 
HETATM   18  C2  UNK     1      28.248  -6.713  36.408  1.00  0.00     0.303 C 
HETATM   19  C4  UNK     1      27.266  -7.741  36.979  1.00  0.00     0.303 C 
BRANCH  17  20
HETATM   20  C5  UNK     1      30.233  -5.413  36.840  1.00  0.00     0.312 C 
BRANCH  20  21
HETATM   21  C7  UNK     1      31.529  -6.030  36.441  1.00  0.00    -0.011 A 
HETATM   22  C10 UNK     1      32.478  -6.297  37.348  1.00  0.00     0.092 A 
HETATM   23  C14 UNK     1      33.774  -6.905  37.002  1.00  0.00     0.288 A 
HETATM   24  O1  UNK     1      33.984  -7.202  35.664  1.00  0.00    -0.275 OA
HETATM   25  O3  UNK     1      34.617  -7.136  37.862  1.00  0.00    -0.260 OA
HETATM   26  C11 UNK     1      33.005  -6.934  34.687  1.00  0.00     0.090 A 
HETATM   27  C8  UNK     1      31.782  -6.356  35.030  1.00  0.00     0.007 A 
HETATM   28  C15 UNK     1      33.326  -7.274  33.372  1.00  0.00     0.039 A 
HETATM   29  C12 UNK     1      30.863  -6.120  34.000  1.00  0.00     0.022 A 
HETATM   30  C13 UNK     1      31.169  -6.456  32.677  1.00  0.00    -0.058 A 
HETATM   31  C16 UNK     1      32.400  -7.032  32.363  1.00  0.00     0.010 A 
BRANCH  30  32
HETATM   32  C17 UNK     1      30.175  -6.195  31.595  1.00  0.00     0.034 C 
HETATM   33  C19 UNK     1      29.775  -4.726  31.517  1.00  0.00     0.010 C 
ENDBRANCH  30  32
ENDBRANCH  20  21
ENDBRANCH  17  20
ENDBRANCH  13  14
ENDBRANCH  10  13
ENDBRANCH   2   9
TORSDOF 6
ENDMDL
MODEL 9
REMARK VINA RESULT:      -8.8      5.703      9.081
REMARK  6 active torsions:
REMARK  status: ('A' for Active; 'I' for Inactive)
REMARK    1  A    between atoms: C5_12  and  N1_4 
REMARK    2  A    between atoms: C6_13  and  N2_5 
REMARK    3  A    between atoms: C18_25  and  N3_6 
REMARK       I    between atoms: C9_16  and  N3_6 
REMARK    4  A    between atoms: C5_12  and  C7_14 
REMARK    5  A    between atoms: C6_13  and  C9_16 
REMARK    6  A    between atoms: C13_20  and  C17_24 
ROOT
HETATM    1  N4  UNK     1      13.255  11.546  34.841  1.00  0.00    -0.191 NA
HETATM    2  C18 UNK     1      17.859  10.284  34.071  1.00  0.00     0.036 A 
HETATM    3  C20 UNK     1      16.476  10.304  34.250  1.00  0.00     0.052 A 
HETATM    4  C21 UNK     1      18.590  11.469  34.155  1.00  0.00     0.029 A 
HETATM    5  C22 UNK     1      15.823  11.507  34.510  1.00  0.00     0.046 A 
HETATM    6  C23 UNK     1      17.938  12.674  34.415  1.00  0.00     0.004 A 
HETATM    7  C24 UNK     1      16.554  12.694  34.593  1.00  0.00     0.023 A 
HETATM    8  C25 UNK     1      14.407  11.529  34.693  1.00  0.00     0.099 C 
ENDROOT
BRANCH   2   9
HETATM    9  N3  UNK     1      18.522   9.061  33.807  1.00  0.00    -0.326 N 
HETATM   10  C9  UNK     1      18.221   8.129  32.816  1.00  0.00     0.250 C 
HETATM   11  O2  UNK     1      17.318   8.193  31.987  1.00  0.00    -0.271 OA
HETATM   12  H16 UNK     1      19.309   8.863  34.419  1.00  0.00     0.169 HD
BRANCH  10  13
HETATM   13  C6  UNK     1      19.185   6.958  32.886  1.00  0.00     0.375 C 
BRANCH  13  14
HETATM   14  N2  UNK     1      18.634   5.827  32.142  1.00  0.00     0.100 N 
HETATM   15  C3  UNK     1      19.548   5.411  31.072  1.00  0.00     0.303 C 
HETATM   16  C1  UNK     1      18.971   4.225  30.291  1.00  0.00     0.303 C 
HETATM   17  N1  UNK     1      18.685   3.099  31.188  1.00  0.00     0.096 N 
HETATM   18  C2  UNK     1      17.771   3.516  32.259  1.00  0.00     0.303 C 
HETATM   19  C4  UNK     1      18.350   4.700  33.039  1.00  0.00     0.303 C 
BRANCH  17  20
HETATM   20  C5  UNK     1      18.131   1.970  30.443  1.00  0.00     0.312 C 
BRANCH  20  21
HETATM   21  C7  UNK     1      19.065   0.811  30.403  1.00  0.00    -0.011 A 
HETATM   22  C10 UNK     1      19.805   0.554  29.315  1.00  0.00     0.092 A 
HETATM   23  C14 UNK     1      20.741  -0.579  29.228  1.00  0.00     0.288 A 
HETATM   24  O1  UNK     1      20.834  -1.397  30.343  1.00  0.00    -0.275 OA
HETATM   25  O3  UNK     1      21.403  -0.780  28.215  1.00  0.00    -0.260 OA
HETATM   26  C11 UNK     1      20.069  -1.152  31.501  1.00  0.00     0.090 A 
HETATM   27  C8  UNK     1      19.185  -0.075  31.569  1.00  0.00     0.007 A 
HETATM   28  C15 UNK     1      20.244  -2.042  32.564  1.00  0.00     0.039 A 
HETATM   29  C12 UNK     1      18.461   0.098  32.755  1.00  0.00     0.022 A 
HETATM   30  C13 UNK     1      18.625  -0.784  33.829  1.00  0.00    -0.058 A 
HETATM   31  C16 UNK     1      19.515  -1.853  33.733  1.00  0.00     0.010 A 
BRANCH  30  32
HETATM   32  C17 UNK     1      17.842  -0.581  35.083  1.00  0.00     0.034 C 
HETATM   33  C19 UNK     1      16.355  -0.857  34.890  1.00  0.00     0.010 C 
ENDBRANCH  30  32
ENDBRANCH  20  21
ENDBRANCH  17  20
ENDBRANCH  13  14
ENDBRANCH  10  13
ENDBRANCH   2   9
TORSDOF 6
ENDMDL
MODEL 10
REMARK VINA RESULT:      -8.7     18.402     23.573
REMARK  6 active torsions:
REMARK  status: ('A' for Active; 'I' for Inactive)
REMARK    1  A    between atoms: C5_12  and  N1_4 
REMARK    2  A    between atoms: C6_13  and  N2_5 
REMARK    3  A    between atoms: C18_25  and  N3_6 
REMARK       I    between atoms: C9_16  and  N3_6 
REMARK    4  A    between atoms: C5_12  and  C7_14 
REMARK    5  A    between atoms: C6_13  and  C9_16 
REMARK    6  A    between atoms: C13_20  and  C17_24 
ROOT
HETATM    1  N4  UNK     1      20.822   4.926  18.458  1.00  0.00    -0.191 NA
HETATM    2  C18 UNK     1      18.743   0.563  18.606  1.00  0.00     0.036 A 
HETATM    3  C20 UNK     1      19.297   1.782  18.217  1.00  0.00     0.052 A 
HETATM    4  C21 UNK     1      18.681   0.224  19.957  1.00  0.00     0.029 A 
HETATM    5  C22 UNK     1      19.791   2.661  19.178  1.00  0.00     0.046 A 
HETATM    6  C23 UNK     1      19.175   1.103  20.920  1.00  0.00     0.004 A 
HETATM    7  C24 UNK     1      19.730   2.323  20.531  1.00  0.00     0.023 A 
HETATM    8  C25 UNK     1      20.360   3.911  18.782  1.00  0.00     0.099 C 
ENDROOT
BRANCH   2   9
HETATM    9  N3  UNK     1      18.241  -0.331  17.628  1.00  0.00    -0.326 N 
HETATM   10  C9  UNK     1      18.913  -1.389  17.020  1.00  0.00     0.250 C 
HETATM   11  O2  UNK     1      20.072  -1.742  17.215  1.00  0.00    -0.271 OA
HETATM   12  H16 UNK     1      17.274  -0.167  17.359  1.00  0.00     0.169 HD
BRANCH  10  13
HETATM   13  C6  UNK     1      18.001  -2.090  16.028  1.00  0.00     0.375 C 
BRANCH  13  14
HETATM   14  N2  UNK     1      18.809  -2.763  15.014  1.00  0.00     0.100 N 
HETATM   15  C3  UNK     1      18.322  -4.127  14.779  1.00  0.00     0.303 C 
HETATM   16  C1  UNK     1      19.169  -4.834  13.715  1.00  0.00     0.303 C 
HETATM   17  N1  UNK     1      19.177  -4.069  12.461  1.00  0.00     0.096 N 
HETATM   18  C2  UNK     1      19.664  -2.704  12.697  1.00  0.00     0.303 C 
HETATM   19  C4  UNK     1      18.816  -1.999  13.760  1.00  0.00     0.303 C 
BRANCH  17  20
HETATM   20  C5  UNK     1      19.988  -4.742  11.449  1.00  0.00     0.312 C 
BRANCH  20  21
HETATM   21  C7  UNK     1      19.427  -4.578  10.079  1.00  0.00    -0.011 A 
HETATM   22  C10 UNK     1      18.199  -5.022   9.775  1.00  0.00     0.092 A 
HETATM   23  C14 UNK     1      17.602  -4.883   8.437  1.00  0.00     0.288 A 
HETATM   24  O1  UNK     1      18.376  -4.258   7.471  1.00  0.00    -0.275 OA
HETATM   25  O3  UNK     1      16.474  -5.300   8.198  1.00  0.00    -0.260 OA
HETATM   26  C11 UNK     1      19.670  -3.782   7.760  1.00  0.00     0.090 A 
HETATM   27  C8  UNK     1      20.224  -3.921   9.033  1.00  0.00     0.007 A 
HETATM   28  C15 UNK     1      20.359  -3.170   6.711  1.00  0.00     0.039 A 
HETATM   29  C12 UNK     1      21.516  -3.422   9.239  1.00  0.00     0.022 A 
HETATM   30  C13 UNK     1      22.219  -2.806   8.198  1.00  0.00    -0.058 A 
HETATM   31  C16 UNK     1      21.642  -2.680   6.935  1.00  0.00     0.010 A 
BRANCH  30  32
HETATM   32  C17 UNK     1      23.595  -2.281   8.439  1.00  0.00     0.034 C 
HETATM   33  C19 UNK     1      24.625  -2.900   7.500  1.00  0.00     0.010 C 
ENDBRANCH  30  32
ENDBRANCH  20  21
ENDBRANCH  17  20
ENDBRANCH  13  14
ENDBRANCH  10  13
ENDBRANCH   2   9
TORSDOF 6
ENDMDL
