MODEL 1
REMARK VINA RESULT:      -8.9      0.000      0.000
REMARK  6 active torsions:
REMARK  status: ('A' for Active; 'I' for Inactive)
REMARK    1  A    between atoms: C1_9  and  O1_2 
REMARK    2  A    between atoms: C13_21  and  O1_2 
REMARK    3  A    between atoms: C16_24  and  N1_6 
REMARK    4  A    between atoms: C8_16  and  N1_6 
REMARK       I    between atoms: C13_21  and  N2_7 
REMARK    5  A    between atoms: N2_7  and  N3_8 
REMARK    6  A    between atoms: C16_24  and  N3_8 
ROOT
HETATM    1  N1  UNK     1      19.403   3.865  30.038  1.00  0.00    -0.332 N 
HETATM    2  H17 UNK     1      20.044   4.138  29.297  1.00  0.00     0.168 HD
ENDROOT
BRANCH   1   3
HETATM    3  C16 UNK     1      18.927   2.549  29.897  1.00  0.00     0.191 C 
HETATM    4  S1  UNK     1      17.905   1.923  28.724  1.00  0.00    -0.039 SA
BRANCH   3   5
HETATM    5  N3  UNK     1      19.404   1.661  30.855  1.00  0.00    -0.272 N 
HETATM    6  H19 UNK     1      20.399   1.526  31.002  1.00  0.00     0.189 HD
BRANCH   5   7
HETATM    7  N2  UNK     1      18.558   0.904  31.630  1.00  0.00    -0.243 N 
HETATM    8  C13 UNK     1      19.027  -0.254  32.206  1.00  0.00     0.380 C 
HETATM    9  O3  UNK     1      20.165  -0.699  32.094  1.00  0.00    -0.237 OA
HETATM   10  H18 UNK     1      17.586   1.187  31.691  1.00  0.00     0.192 HD
BRANCH   8  11
HETATM   11  O1  UNK     1      18.031  -0.844  32.931  1.00  0.00    -0.293 OA
BRANCH  11  12
HETATM   12  C1  UNK     1      17.965  -0.479  34.315  1.00  0.00     0.061 C 
HETATM   13  C2  UNK     1      18.244   1.018  34.436  1.00  0.00     0.046 C 
HETATM   14  C3  UNK     1      16.558  -0.804  34.810  1.00  0.00     0.046 C 
HETATM   15  C4  UNK     1      19.007  -1.292  35.083  1.00  0.00     0.046 C 
ENDBRANCH  11  12
ENDBRANCH   8  11
ENDBRANCH   5   7
ENDBRANCH   3   5
ENDBRANCH   1   3
BRANCH   1  16
HETATM   16  C8  UNK     1      19.245   4.852  31.011  1.00  0.00     0.037 A 
HETATM   17  C10 UNK     1      17.991   5.099  31.559  1.00  0.00     0.067 A 
HETATM   18  C6  UNK     1      17.857   6.090  32.532  1.00  0.00     0.092 A 
HETATM   19  C5  UNK     1      18.940   6.848  32.979  1.00  0.00     0.004 A 
HETATM   20  O2  UNK     1      16.562   6.295  33.050  1.00  0.00    -0.275 OA
HETATM   21  C7  UNK     1      18.707   7.872  34.007  1.00  0.00    -0.043 A 
HETATM   22  C9  UNK     1      20.195   6.585  32.414  1.00  0.00     0.017 A 
HETATM   23  C12 UNK     1      17.465   8.043  34.482  1.00  0.00     0.090 A 
HETATM   24  C14 UNK     1      19.851   8.704  34.508  1.00  0.00     0.049 C 
HETATM   25  C15 UNK     1      16.312   7.251  34.021  1.00  0.00     0.288 A 
HETATM   26  O4  UNK     1      15.190   7.437  34.478  1.00  0.00    -0.260 OA
HETATM   27  C11 UNK     1      20.345   5.593  31.438  1.00  0.00     0.030 A 
ENDBRANCH   1  16
TORSDOF 6
ENDMDL
MODEL 2
REMARK VINA RESULT:      -8.7      1.379      1.820
REMARK  6 active torsions:
REMARK  status: ('A' for Active; 'I' for Inactive)
REMARK    1  A    between atoms: C1_9  and  O1_2 
REMARK    2  A    between atoms: C13_21  and  O1_2 
REMARK    3  A    between atoms: C16_24  and  N1_6 
REMARK    4  A    between atoms: C8_16  and  N1_6 
REMARK       I    between atoms: C13_21  and  N2_7 
REMARK    5  A    between atoms: N2_7  and  N3_8 
REMARK    6  A    between atoms: C16_24  and  N3_8 
ROOT
HETATM    1  N1  UNK     1      19.062   3.923  30.473  1.00  0.00    -0.332 N 
HETATM    2  H17 UNK     1      19.566   4.124  29.612  1.00  0.00     0.168 HD
ENDROOT
BRANCH   1   3
HETATM    3  C16 UNK     1      18.621   2.591  30.555  1.00  0.00     0.191 C 
HETATM    4  S1  UNK     1      18.951   1.312  29.522  1.00  0.00    -0.039 SA
BRANCH   3   5
HETATM    5  N3  UNK     1      17.829   2.316  31.665  1.00  0.00    -0.272 N 
HETATM    6  H19 UNK     1      16.930   2.766  31.797  1.00  0.00     0.189 HD
BRANCH   5   7
HETATM    7  N2  UNK     1      18.234   1.445  32.648  1.00  0.00    -0.243 N 
HETATM    8  C13 UNK     1      18.404   1.910  33.932  1.00  0.00     0.380 C 
HETATM    9  O3  UNK     1      18.226   3.066  34.303  1.00  0.00    -0.237 OA
HETATM   10  H18 UNK     1      18.469   0.496  32.378  1.00  0.00     0.192 HD
BRANCH   8  11
HETATM   11  O1  UNK     1      18.804   0.887  34.744  1.00  0.00    -0.293 OA
BRANCH  11  12
HETATM   12  C1  UNK     1      17.826   0.415  35.679  1.00  0.00     0.061 C 
HETATM   13  C2  UNK     1      18.233  -0.983  36.143  1.00  0.00     0.046 C 
HETATM   14  C3  UNK     1      17.809   1.387  36.856  1.00  0.00     0.046 C 
HETATM   15  C4  UNK     1      16.465   0.385  34.985  1.00  0.00     0.046 C 
ENDBRANCH  11  12
ENDBRANCH   8  11
ENDBRANCH   5   7
ENDBRANCH   3   5
ENDBRANCH   1   3
BRANCH   1  16
HETATM   16  C8  UNK     1      19.024   5.010  31.347  1.00  0.00     0.037 A 
HETATM   17  C10 UNK     1      17.804   5.494  31.807  1.00  0.00     0.067 A 
HETATM   18  C6  UNK     1      17.790   6.582  32.682  1.00  0.00     0.092 A 
HETATM   19  C5  UNK     1      18.960   7.207  33.113  1.00  0.00     0.004 A 
HETATM   20  O2  UNK     1      16.524   7.027  33.115  1.00  0.00    -0.275 OA
HETATM   21  C7  UNK     1      18.851   8.347  34.035  1.00  0.00    -0.043 A 
HETATM   22  C9  UNK     1      20.178   6.706  32.637  1.00  0.00     0.017 A 
HETATM   23  C12 UNK     1      17.634   8.747  34.430  1.00  0.00     0.090 A 
HETATM   24  C14 UNK     1      20.091   9.041  34.517  1.00  0.00     0.049 C 
HETATM   25  C15 UNK     1      16.390   8.097  33.984  1.00  0.00     0.288 A 
HETATM   26  O4  UNK     1      15.294   8.492  34.366  1.00  0.00    -0.260 OA
HETATM   27  C11 UNK     1      20.209   5.615  31.761  1.00  0.00     0.030 A 
ENDBRANCH   1  16
TORSDOF 6
ENDMDL
MODEL 3
REMARK VINA RESULT:      -8.6      2.472      3.650
REMARK  6 active torsions:
REMARK  status: ('A' for Active; 'I' for Inactive)
REMARK    1  A    between atoms: C1_9  and  O1_2 
REMARK    2  A    between atoms: C13_21  and  O1_2 
REMARK    3  A    between atoms: C16_24  and  N1_6 
REMARK    4  A    between atoms: C8_16  and  N1_6 
REMARK       I    between atoms: C13_21  and  N2_7 
REMARK    5  A    between atoms: N2_7  and  N3_8 
REMARK    6  A    between atoms: C16_24  and  N3_8 
ROOT
HETATM    1  N1  UNK     1      18.604  -0.328  31.451  1.00  0.00    -0.332 N 
HETATM    2  H17 UNK     1      17.680  -0.728  31.300  1.00  0.00     0.168 HD
ENDROOT
BRANCH   1   3
HETATM    3  C16 UNK     1      19.595  -1.300  31.677  1.00  0.00     0.191 C 
HETATM    4  S1  UNK     1      20.481  -2.174  30.554  1.00  0.00    -0.039 SA
BRANCH   3   5
HETATM    5  N3  UNK     1      19.878  -1.529  33.019  1.00  0.00    -0.272 N 
HETATM    6  H19 UNK     1      20.802  -1.820  33.322  1.00  0.00     0.189 HD
BRANCH   5   7
HETATM    7  N2  UNK     1      18.921  -1.399  33.996  1.00  0.00    -0.243 N 
HETATM    8  C13 UNK     1      19.308  -1.327  35.314  1.00  0.00     0.380 C 
HETATM    9  O3  UNK     1      20.464  -1.369  35.723  1.00  0.00    -0.237 OA
HETATM   10  H18 UNK     1      17.946  -1.438  33.717  1.00  0.00     0.192 HD
BRANCH   8  11
HETATM   11  O1  UNK     1      18.207  -1.199  36.112  1.00  0.00    -0.293 OA
BRANCH  11  12
HETATM   12  C1  UNK     1      17.794   0.143  36.396  1.00  0.00     0.061 C 
HETATM   13  C2  UNK     1      16.452   0.394  35.711  1.00  0.00     0.046 C 
HETATM   14  C3  UNK     1      17.656   0.271  37.911  1.00  0.00     0.046 C 
HETATM   15  C4  UNK     1      18.863   1.101  35.870  1.00  0.00     0.046 C 
ENDBRANCH  11  12
ENDBRANCH   8  11
ENDBRANCH   5   7
ENDBRANCH   3   5
ENDBRANCH   1   3
BRANCH   1  16
HETATM   16  C8  UNK     1      18.623   1.060  31.315  1.00  0.00     0.037 A 
HETATM   17  C10 UNK     1      18.263   1.872  32.385  1.00  0.00     0.067 A 
HETATM   18  C6  UNK     1      18.291   3.259  32.226  1.00  0.00     0.092 A 
HETATM   19  C5  UNK     1      18.669   3.865  31.028  1.00  0.00     0.004 A 
HETATM   20  O2  UNK     1      17.915   4.030  33.345  1.00  0.00    -0.275 OA
HETATM   21  C7  UNK     1      18.669   5.333  30.950  1.00  0.00    -0.043 A 
HETATM   22  C9  UNK     1      19.028   3.030  29.962  1.00  0.00     0.017 A 
HETATM   23  C12 UNK     1      18.307   6.040  32.031  1.00  0.00     0.090 A 
HETATM   24  C14 UNK     1      19.070   6.015  29.675  1.00  0.00     0.049 C 
HETATM   25  C15 UNK     1      17.907   5.414  33.303  1.00  0.00     0.288 A 
HETATM   26  O4  UNK     1      17.582   6.094  34.270  1.00  0.00    -0.260 OA
HETATM   27  C11 UNK     1      19.005   1.638  30.105  1.00  0.00     0.030 A 
ENDBRANCH   1  16
TORSDOF 6
ENDMDL
MODEL 4
REMARK VINA RESULT:      -8.5      1.945      2.397
REMARK  6 active torsions:
REMARK  status: ('A' for Active; 'I' for Inactive)
REMARK    1  A    between atoms: C1_9  and  O1_2 
REMARK    2  A    between atoms: C13_21  and  O1_2 
REMARK    3  A    between atoms: C16_24  and  N1_6 
REMARK    4  A    between atoms: C8_16  and  N1_6 
REMARK       I    between atoms: C13_21  and  N2_7 
REMARK    5  A    between atoms: N2_7  and  N3_8 
REMARK    6  A    between atoms: C16_24  and  N3_8 
ROOT
HETATM    1  N1  UNK     1      17.398   4.437  32.048  1.00  0.00    -0.332 N 
HETATM    2  H17 UNK     1      16.389   4.336  32.133  1.00  0.00     0.168 HD
ENDROOT
BRANCH   1   3
HETATM    3  C16 UNK     1      18.004   3.359  31.379  1.00  0.00     0.191 C 
HETATM    4  S1  UNK     1      18.815   3.358  29.912  1.00  0.00    -0.039 SA
BRANCH   3   5
HETATM    5  N3  UNK     1      17.932   2.148  32.059  1.00  0.00    -0.272 N 
HETATM    6  H19 UNK     1      17.904   1.263  31.563  1.00  0.00     0.189 HD
BRANCH   5   7
HETATM    7  N2  UNK     1      17.867   2.087  33.431  1.00  0.00    -0.243 N 
HETATM    8  C13 UNK     1      18.335   0.968  34.080  1.00  0.00     0.380 C 
HETATM    9  O3  UNK     1      18.822  -0.020  33.539  1.00  0.00    -0.237 OA
HETATM   10  H18 UNK     1      17.403   2.845  33.920  1.00  0.00     0.192 HD
BRANCH   8  11
HETATM   11  O1  UNK     1      18.179   1.117  35.428  1.00  0.00    -0.293 OA
BRANCH  11  12
HETATM   12  C1  UNK     1      17.168   0.303  36.034  1.00  0.00     0.061 C 
HETATM   13  C2  UNK     1      16.008   0.156  35.050  1.00  0.00     0.046 C 
HETATM   14  C3  UNK     1      17.792  -1.057  36.335  1.00  0.00     0.046 C 
HETATM   15  C4  UNK     1      16.706   0.981  37.324  1.00  0.00     0.046 C 
ENDBRANCH  11  12
ENDBRANCH   8  11
ENDBRANCH   5   7
ENDBRANCH   3   5
ENDBRANCH   1   3
BRANCH   1  16
HETATM   16  C8  UNK     1      17.867   5.648  32.556  1.00  0.00     0.037 A 
HETATM   17  C10 UNK     1      17.002   6.727  32.700  1.00  0.00     0.067 A 
HETATM   18  C6  UNK     1      17.493   7.930  33.211  1.00  0.00     0.092 A 
HETATM   19  C5  UNK     1      18.827   8.092  33.584  1.00  0.00     0.004 A 
HETATM   20  O2  UNK     1      16.568   8.987  33.334  1.00  0.00    -0.275 OA
HETATM   21  C7  UNK     1      19.258   9.395  34.112  1.00  0.00    -0.043 A 
HETATM   22  C9  UNK     1      19.683   6.994  33.431  1.00  0.00     0.017 A 
HETATM   23  C12 UNK     1      18.356  10.381  34.219  1.00  0.00     0.090 A 
HETATM   24  C14 UNK     1      20.686   9.601  34.523  1.00  0.00     0.049 C 
HETATM   25  C15 UNK     1      16.944  10.225  33.829  1.00  0.00     0.288 A 
HETATM   26  O4  UNK     1      16.149  11.151  33.940  1.00  0.00    -0.260 OA
HETATM   27  C11 UNK     1      19.206   5.781  32.921  1.00  0.00     0.030 A 
ENDBRANCH   1  16
TORSDOF 6
ENDMDL
MODEL 5
REMARK VINA RESULT:      -8.5      5.196      8.047
REMARK  6 active torsions:
REMARK  status: ('A' for Active; 'I' for Inactive)
REMARK    1  A    between atoms: C1_9  and  O1_2 
REMARK    2  A    between atoms: C13_21  and  O1_2 
REMARK    3  A    between atoms: C16_24  and  N1_6 
REMARK    4  A    between atoms: C8_16  and  N1_6 
REMARK       I    between atoms: C13_21  and  N2_7 
REMARK    5  A    between atoms: N2_7  and  N3_8 
REMARK    6  A    between atoms: C16_24  and  N3_8 
ROOT
HETATM    1  N1  UNK     1      19.622  -2.598  35.290  1.00  0.00    -0.332 N 
HETATM    2  H17 UNK     1      20.450  -3.140  35.530  1.00  0.00     0.168 HD
ENDROOT
BRANCH   1   3
HETATM    3  C16 UNK     1      18.679  -2.544  36.332  1.00  0.00     0.191 C 
HETATM    4  S1  UNK     1      17.987  -1.197  37.051  1.00  0.00    -0.039 SA
BRANCH   3   5
HETATM    5  N3  UNK     1      18.261  -3.788  36.792  1.00  0.00    -0.272 N 
HETATM    6  H19 UNK     1      17.465  -3.882  37.414  1.00  0.00     0.189 HD
BRANCH   5   7
HETATM    7  N2  UNK     1      18.918  -4.947  36.451  1.00  0.00    -0.243 N 
HETATM    8  C13 UNK     1      18.250  -6.147  36.526  1.00  0.00     0.380 C 
HETATM    9  O3  UNK     1      17.084  -6.296  36.881  1.00  0.00    -0.237 OA
HETATM   10  H18 UNK     1      19.905  -4.887  36.225  1.00  0.00     0.192 HD
BRANCH   8  11
HETATM   11  O1  UNK     1      19.080  -7.162  36.143  1.00  0.00    -0.293 OA
BRANCH  11  12
HETATM   12  C1  UNK     1      19.702  -7.894  37.206  1.00  0.00     0.061 C 
HETATM   13  C2  UNK     1      19.009  -9.249  37.333  1.00  0.00     0.046 C 
HETATM   14  C3  UNK     1      21.173  -8.076  36.838  1.00  0.00     0.046 C 
HETATM   15  C4  UNK     1      19.566  -7.088  38.497  1.00  0.00     0.046 C 
ENDBRANCH  11  12
ENDBRANCH   8  11
ENDBRANCH   5   7
ENDBRANCH   3   5
ENDBRANCH   1   3
BRANCH   1  16
HETATM   16  C8  UNK     1      19.705  -2.009  34.028  1.00  0.00     0.037 A 
HETATM   17  C10 UNK     1      18.995  -0.845  33.753  1.00  0.00     0.067 A 
HETATM   18  C6  UNK     1      19.094  -0.273  32.484  1.00  0.00     0.092 A 
HETATM   19  C5  UNK     1      19.881  -0.828  31.474  1.00  0.00     0.004 A 
HETATM   20  O2  UNK     1      18.352   0.906  32.264  1.00  0.00    -0.275 OA
HETATM   21  C7  UNK     1      19.925  -0.158  30.166  1.00  0.00    -0.043 A 
HETATM   22  C9  UNK     1      20.587  -2.001  31.771  1.00  0.00     0.017 A 
HETATM   23  C12 UNK     1      19.210   0.962  29.987  1.00  0.00     0.090 A 
HETATM   24  C14 UNK     1      20.762  -0.730  29.060  1.00  0.00     0.049 C 
HETATM   25  C15 UNK     1      18.375   1.560  31.043  1.00  0.00     0.288 A 
HETATM   26  O4  UNK     1      17.734   2.585  30.841  1.00  0.00    -0.260 OA
HETATM   27  C11 UNK     1      20.499  -2.586  33.039  1.00  0.00     0.030 A 
ENDBRANCH   1  16
TORSDOF 6
ENDMDL
MODEL 6
REMARK VINA RESULT:      -8.3      2.823      8.213
REMARK  6 active torsions:
REMARK  status: ('A' for Active; 'I' for Inactive)
REMARK    1  A    between atoms: C1_9  and  O1_2 
REMARK    2  A    between atoms: C13_21  and  O1_2 
REMARK    3  A    between atoms: C16_24  and  N1_6 
REMARK    4  A    between atoms: C8_16  and  N1_6 
REMARK       I    between atoms: C13_21  and  N2_7 
REMARK    5  A    between atoms: N2_7  and  N3_8 
REMARK    6  A    between atoms: C16_24  and  N3_8 
ROOT
HETATM    1  N1  UNK     1      17.572   4.130  31.817  1.00  0.00    -0.332 N 
HETATM    2  H17 UNK     1      16.563   4.123  31.678  1.00  0.00     0.168 HD
ENDROOT
BRANCH   1   3
HETATM    3  C16 UNK     1      18.031   5.294  32.460  1.00  0.00     0.191 C 
HETATM    4  S1  UNK     1      19.016   5.427  33.810  1.00  0.00    -0.039 SA
BRANCH   3   5
HETATM    5  N3  UNK     1      17.622   6.480  31.859  1.00  0.00    -0.272 N 
HETATM    6  H19 UNK     1      17.585   6.576  30.849  1.00  0.00     0.189 HD
BRANCH   5   7
HETATM    7  N2  UNK     1      17.275   7.586  32.597  1.00  0.00    -0.243 N 
HETATM    8  C13 UNK     1      16.423   8.519  32.052  1.00  0.00     0.380 C 
HETATM    9  O3  UNK     1      15.922   8.464  30.933  1.00  0.00    -0.237 OA
HETATM   10  H18 UNK     1      17.722   7.718  33.498  1.00  0.00     0.192 HD
BRANCH   8  11
HETATM   11  O1  UNK     1      16.209   9.527  32.949  1.00  0.00    -0.293 OA
BRANCH  11  12
HETATM   12  C1  UNK     1      14.966   9.479  33.659  1.00  0.00     0.061 C 
HETATM   13  C2  UNK     1      14.445   8.043  33.629  1.00  0.00     0.046 C 
HETATM   14  C3  UNK     1      15.240   9.920  35.095  1.00  0.00     0.046 C 
HETATM   15  C4  UNK     1      13.982  10.432  32.982  1.00  0.00     0.046 C 
ENDBRANCH  11  12
ENDBRANCH   8  11
ENDBRANCH   5   7
ENDBRANCH   3   5
ENDBRANCH   1   3
BRANCH   1  16
HETATM   16  C8  UNK     1      18.186   2.951  31.396  1.00  0.00     0.037 A 
HETATM   17  C10 UNK     1      18.400   1.914  32.297  1.00  0.00     0.067 A 
HETATM   18  C6  UNK     1      19.015   0.742  31.853  1.00  0.00     0.092 A 
HETATM   19  C5  UNK     1      19.426   0.571  30.531  1.00  0.00     0.004 A 
HETATM   20  O2  UNK     1      19.205  -0.273  32.813  1.00  0.00    -0.275 OA
HETATM   21  C7  UNK     1      20.067  -0.697  30.152  1.00  0.00    -0.043 A 
HETATM   22  C9  UNK     1      19.203   1.627  29.639  1.00  0.00     0.017 A 
HETATM   23  C12 UNK     1      20.233  -1.644  31.085  1.00  0.00     0.090 A 
HETATM   24  C14 UNK     1      20.521  -0.911  28.738  1.00  0.00     0.049 C 
HETATM   25  C15 UNK     1      19.804  -1.479  32.484  1.00  0.00     0.288 A 
HETATM   26  O4  UNK     1      19.974  -2.368  33.310  1.00  0.00    -0.260 OA
HETATM   27  C11 UNK     1      18.587   2.808  30.068  1.00  0.00     0.030 A 
ENDBRANCH   1  16
TORSDOF 6
ENDMDL
MODEL 7
REMARK VINA RESULT:      -8.3      5.045      7.585
REMARK  6 active torsions:
REMARK  status: ('A' for Active; 'I' for Inactive)
REMARK    1  A    between atoms: C1_9  and  O1_2 
REMARK    2  A    between atoms: C13_21  and  O1_2 
REMARK    3  A    between atoms: C16_24  and  N1_6 
REMARK    4  A    between atoms: C8_16  and  N1_6 
REMARK       I    between atoms: C13_21  and  N2_7 
REMARK    5  A    between atoms: N2_7  and  N3_8 
REMARK    6  A    between atoms: C16_24  and  N3_8 
ROOT
HETATM    1  N1  UNK     1      18.394  -1.708  35.054  1.00  0.00    -0.332 N 
HETATM    2  H17 UNK     1      18.062  -2.633  34.791  1.00  0.00     0.168 HD
ENDROOT
BRANCH   1   3
HETATM    3  C16 UNK     1      18.669  -1.592  36.428  1.00  0.00     0.191 C 
HETATM    4  S1  UNK     1      17.858  -0.694  37.588  1.00  0.00    -0.039 SA
BRANCH   3   5
HETATM    5  N3  UNK     1      19.747  -2.356  36.863  1.00  0.00    -0.272 N 
HETATM    6  H19 UNK     1      20.703  -2.032  36.754  1.00  0.00     0.189 HD
BRANCH   5   7
HETATM    7  N2  UNK     1      19.577  -3.593  37.435  1.00  0.00    -0.243 N 
HETATM    8  C13 UNK     1      19.875  -4.721  36.705  1.00  0.00     0.380 C 
HETATM    9  O3  UNK     1      20.292  -4.735  35.551  1.00  0.00    -0.237 OA
HETATM   10  H18 UNK     1      19.161  -3.639  38.360  1.00  0.00     0.192 HD
BRANCH   8  11
HETATM   11  O1  UNK     1      19.638  -5.835  37.459  1.00  0.00    -0.293 OA
BRANCH  11  12
HETATM   12  C1  UNK     1      20.799  -6.539  37.914  1.00  0.00     0.061 C 
HETATM   13  C2  UNK     1      21.902  -5.522  38.203  1.00  0.00     0.046 C 
HETATM   14  C3  UNK     1      20.413  -7.288  39.187  1.00  0.00     0.046 C 
HETATM   15  C4  UNK     1      21.232  -7.519  36.824  1.00  0.00     0.046 C 
ENDBRANCH  11  12
ENDBRANCH   8  11
ENDBRANCH   5   7
ENDBRANCH   3   5
ENDBRANCH   1   3
BRANCH   1  16
HETATM   16  C8  UNK     1      18.546  -0.854  33.961  1.00  0.00     0.037 A 
HETATM   17  C10 UNK     1      19.069  -1.337  32.766  1.00  0.00     0.067 A 
HETATM   18  C6  UNK     1      19.211  -0.465  31.685  1.00  0.00     0.092 A 
HETATM   19  C5  UNK     1      18.848   0.880  31.758  1.00  0.00     0.004 A 
HETATM   20  O2  UNK     1      19.745  -1.012  30.500  1.00  0.00    -0.275 OA
HETATM   21  C7  UNK     1      19.033   1.726  30.570  1.00  0.00    -0.043 A 
HETATM   22  C9  UNK     1      18.325   1.347  32.971  1.00  0.00     0.017 A 
HETATM   23  C12 UNK     1      19.543   1.178  29.458  1.00  0.00     0.090 A 
HETATM   24  C14 UNK     1      18.653   3.176  30.618  1.00  0.00     0.049 C 
HETATM   25  C15 UNK     1      19.930  -0.240  29.364  1.00  0.00     0.288 A 
HETATM   26  O4  UNK     1      20.394  -0.705  28.330  1.00  0.00    -0.260 OA
HETATM   27  C11 UNK     1      18.175   0.485  34.064  1.00  0.00     0.030 A 
ENDBRANCH   1  16
TORSDOF 6
ENDMDL
MODEL 8
REMARK VINA RESULT:      -8.3      1.952      2.553
REMARK  6 active torsions:
REMARK  status: ('A' for Active; 'I' for Inactive)
REMARK    1  A    between atoms: C1_9  and  O1_2 
REMARK    2  A    between atoms: C13_21  and  O1_2 
REMARK    3  A    between atoms: C16_24  and  N1_6 
REMARK    4  A    between atoms: C8_16  and  N1_6 
REMARK       I    between atoms: C13_21  and  N2_7 
REMARK    5  A    between atoms: N2_7  and  N3_8 
REMARK    6  A    between atoms: C16_24  and  N3_8 
ROOT
HETATM    1  N1  UNK     1      17.928   3.986  32.038  1.00  0.00    -0.332 N 
HETATM    2  H17 UNK     1      17.362   3.420  32.667  1.00  0.00     0.168 HD
ENDROOT
BRANCH   1   3
HETATM    3  C16 UNK     1      18.233   3.330  30.832  1.00  0.00     0.191 C 
HETATM    4  S1  UNK     1      18.794   3.985  29.395  1.00  0.00    -0.039 SA
BRANCH   3   5
HETATM    5  N3  UNK     1      18.063   1.950  30.871  1.00  0.00    -0.272 N 
HETATM    6  H19 UNK     1      17.225   1.510  30.505  1.00  0.00     0.189 HD
BRANCH   5   7
HETATM    7  N2  UNK     1      19.003   1.118  31.429  1.00  0.00    -0.243 N 
HETATM    8  C13 UNK     1      19.912   0.484  30.613  1.00  0.00     0.380 C 
HETATM    9  O3  UNK     1      19.971   0.588  29.392  1.00  0.00    -0.237 OA
HETATM   10  H18 UNK     1      18.949   0.937  32.426  1.00  0.00     0.192 HD
BRANCH   8  11
HETATM   11  O1  UNK     1      20.751  -0.286  31.368  1.00  0.00    -0.293 OA
BRANCH  11  12
HETATM   12  C1  UNK     1      20.310  -1.625  31.621  1.00  0.00     0.061 C 
HETATM   13  C2  UNK     1      18.895  -1.571  32.193  1.00  0.00     0.046 C 
HETATM   14  C3  UNK     1      20.323  -2.373  30.290  1.00  0.00     0.046 C 
HETATM   15  C4  UNK     1      21.275  -2.276  32.612  1.00  0.00     0.046 C 
ENDBRANCH  11  12
ENDBRANCH   8  11
ENDBRANCH   5   7
ENDBRANCH   3   5
ENDBRANCH   1   3
BRANCH   1  16
HETATM   16  C8  UNK     1      18.169   5.269  32.530  1.00  0.00     0.037 A 
HETATM   17  C10 UNK     1      17.130   6.190  32.617  1.00  0.00     0.067 A 
HETATM   18  C6  UNK     1      17.394   7.467  33.113  1.00  0.00     0.092 A 
HETATM   19  C5  UNK     1      18.667   7.859  33.527  1.00  0.00     0.004 A 
HETATM   20  O2  UNK     1      16.302   8.357  33.178  1.00  0.00    -0.275 OA
HETATM   21  C7  UNK     1      18.854   9.225  34.036  1.00  0.00    -0.043 A 
HETATM   22  C9  UNK     1      19.700   6.917  33.430  1.00  0.00     0.017 A 
HETATM   23  C12 UNK     1      17.797  10.048  34.086  1.00  0.00     0.090 A 
HETATM   24  C14 UNK     1      20.212   9.676  34.488  1.00  0.00     0.049 C 
HETATM   25  C15 UNK     1      16.447   9.650  33.654  1.00  0.00     0.288 A 
HETATM   26  O4  UNK     1      15.504  10.431  33.714  1.00  0.00    -0.260 OA
HETATM   27  C11 UNK     1      19.452   5.632  32.936  1.00  0.00     0.030 A 
ENDBRANCH   1  16
TORSDOF 6
ENDMDL
MODEL 9
REMARK VINA RESULT:      -8.3      6.873     12.672
REMARK  6 active torsions:
REMARK  status: ('A' for Active; 'I' for Inactive)
REMARK    1  A    between atoms: C1_9  and  O1_2 
REMARK    2  A    between atoms: C13_21  and  O1_2 
REMARK    3  A    between atoms: C16_24  and  N1_6 
REMARK    4  A    between atoms: C8_16  and  N1_6 
REMARK       I    between atoms: C13_21  and  N2_7 
REMARK    5  A    between atoms: N2_7  and  N3_8 
REMARK    6  A    between atoms: C16_24  and  N3_8 
ROOT
HETATM    1  N1  UNK     1      19.319  -5.024  35.696  1.00  0.00    -0.332 N 
HETATM    2  H17 UNK     1      18.581  -4.949  34.999  1.00  0.00     0.168 HD
ENDROOT
BRANCH   1   3
HETATM    3  C16 UNK     1      19.849  -3.777  36.073  1.00  0.00     0.191 C 
HETATM    4  S1  UNK     1      20.599  -3.348  37.509  1.00  0.00    -0.039 SA
BRANCH   3   5
HETATM    5  N3  UNK     1      19.750  -2.793  35.096  1.00  0.00    -0.272 N 
HETATM    6  H19 UNK     1      20.484  -2.652  34.410  1.00  0.00     0.189 HD
BRANCH   5   7
HETATM    7  N2  UNK     1      18.669  -1.946  35.025  1.00  0.00    -0.243 N 
HETATM    8  C13 UNK     1      18.827  -0.622  35.366  1.00  0.00     0.380 C 
HETATM    9  O3  UNK     1      19.872  -0.101  35.741  1.00  0.00    -0.237 OA
HETATM   10  H18 UNK     1      17.765  -2.345  34.794  1.00  0.00     0.192 HD
BRANCH   8  11
HETATM   11  O1  UNK     1      17.638   0.035  35.222  1.00  0.00    -0.293 OA
BRANCH  11  12
HETATM   12  C1  UNK     1      17.010   0.462  36.436  1.00  0.00     0.061 C 
HETATM   13  C2  UNK     1      17.364  -0.531  37.542  1.00  0.00     0.046 C 
HETATM   14  C3  UNK     1      17.550   1.851  36.769  1.00  0.00     0.046 C 
HETATM   15  C4  UNK     1      15.500   0.513  36.211  1.00  0.00     0.046 C 
ENDBRANCH  11  12
ENDBRANCH   8  11
ENDBRANCH   5   7
ENDBRANCH   3   5
ENDBRANCH   1   3
BRANCH   1  16
HETATM   16  C8  UNK     1      19.533  -6.335  36.122  1.00  0.00     0.037 A 
HETATM   17  C10 UNK     1      20.479  -7.132  35.485  1.00  0.00     0.067 A 
HETATM   18  C6  UNK     1      20.677  -8.440  35.929  1.00  0.00     0.092 A 
HETATM   19  C5  UNK     1      19.957  -8.983  36.994  1.00  0.00     0.004 A 
HETATM   20  O2  UNK     1      21.649  -9.198  35.245  1.00  0.00    -0.275 OA
HETATM   21  C7  UNK     1      20.230 -10.371  37.393  1.00  0.00    -0.043 A 
HETATM   22  C9  UNK     1      19.008  -8.166  37.621  1.00  0.00     0.017 A 
HETATM   23  C12 UNK     1      21.161 -11.067  36.725  1.00  0.00     0.090 A 
HETATM   24  C14 UNK     1      19.473 -10.984  38.534  1.00  0.00     0.049 C 
HETATM   25  C15 UNK     1      21.929 -10.508  35.600  1.00  0.00     0.288 A 
HETATM   26  O4  UNK     1      22.772 -11.175  35.012  1.00  0.00    -0.260 OA
HETATM   27  C11 UNK     1      18.799  -6.852  37.189  1.00  0.00     0.030 A 
ENDBRANCH   1  16
TORSDOF 6
ENDMDL
MODEL 10
REMARK VINA RESULT:      -8.3      6.621     12.491
REMARK  6 active torsions:
REMARK  status: ('A' for Active; 'I' for Inactive)
REMARK    1  A    between atoms: C1_9  and  O1_2 
REMARK    2  A    between atoms: C13_21  and  O1_2 
REMARK    3  A    between atoms: C16_24  and  N1_6 
REMARK    4  A    between atoms: C8_16  and  N1_6 
REMARK       I    between atoms: C13_21  and  N2_7 
REMARK    5  A    between atoms: N2_7  and  N3_8 
REMARK    6  A    between atoms: C16_24  and  N3_8 
ROOT
HETATM    1  N1  UNK     1      20.431  -4.359  37.185  1.00  0.00    -0.332 N 
HETATM    2  H17 UNK     1      21.166  -3.967  37.769  1.00  0.00     0.168 HD
ENDROOT
BRANCH   1   3
HETATM    3  C16 UNK     1      19.766  -3.389  36.412  1.00  0.00     0.191 C 
HETATM    4  S1  UNK     1      18.860  -2.077  36.930  1.00  0.00    -0.039 SA
BRANCH   3   5
HETATM    5  N3  UNK     1      19.919  -3.547  35.039  1.00  0.00    -0.272 N 
HETATM    6  H19 UNK     1      19.844  -4.459  34.600  1.00  0.00     0.189 HD
BRANCH   5   7
HETATM    7  N2  UNK     1      20.206  -2.486  34.214  1.00  0.00    -0.243 N 
HETATM    8  C13 UNK     1      20.905  -2.708  33.049  1.00  0.00     0.380 C 
HETATM    9  O3  UNK     1      21.314  -3.796  32.657  1.00  0.00    -0.237 OA
HETATM   10  H18 UNK     1      19.957  -1.555  34.529  1.00  0.00     0.192 HD
BRANCH   8  11
HETATM   11  O1  UNK     1      21.077  -1.528  32.383  1.00  0.00    -0.293 OA
BRANCH  11  12
HETATM   12  C1  UNK     1      20.141  -1.262  31.332  1.00  0.00     0.061 C 
HETATM   13  C2  UNK     1      18.728  -1.340  31.907  1.00  0.00     0.046 C 
HETATM   14  C3  UNK     1      20.429   0.141  30.804  1.00  0.00     0.046 C 
HETATM   15  C4  UNK     1      20.339  -2.302  30.229  1.00  0.00     0.046 C 
ENDBRANCH  11  12
ENDBRANCH   8  11
ENDBRANCH   5   7
ENDBRANCH   3   5
ENDBRANCH   1   3
BRANCH   1  16
HETATM   16  C8  UNK     1      20.352  -5.749  37.270  1.00  0.00     0.037 A 
HETATM   17  C10 UNK     1      20.899  -6.542  36.266  1.00  0.00     0.067 A 
HETATM   18  C6  UNK     1      20.810  -7.931  36.372  1.00  0.00     0.092 A 
HETATM   19  C5  UNK     1      20.190  -8.558  37.453  1.00  0.00     0.004 A 
HETATM   20  O2  UNK     1      21.382  -8.681  35.325  1.00  0.00    -0.275 OA
HETATM   21  C7  UNK     1      20.142 -10.027  37.483  1.00  0.00    -0.043 A 
HETATM   22  C9  UNK     1      19.645  -7.742  38.453  1.00  0.00     0.017 A 
HETATM   23  C12 UNK     1      20.695 -10.714  36.473  1.00  0.00     0.090 A 
HETATM   24  C14 UNK     1      19.482 -10.731  38.631  1.00  0.00     0.049 C 
HETATM   25  C15 UNK     1      21.354 -10.066  35.326  1.00  0.00     0.288 A 
HETATM   26  O4  UNK     1      21.848 -10.729  34.421  1.00  0.00    -0.260 OA
HETATM   27  C11 UNK     1      19.727  -6.348  38.361  1.00  0.00     0.030 A 
ENDBRANCH   1  16
TORSDOF 6
ENDMDL
