MODEL 1
REMARK VINA RESULT:      -9.8      0.000      0.000
REMARK  3 active torsions:
REMARK  status: ('A' for Active; 'I' for Inactive)
REMARK       I    between atoms: C16_25  and  N1_7 
REMARK    1  A    between atoms: C7_16  and  N1_7 
REMARK    2  A    between atoms: C21_30  and  N2_8 
REMARK    3  A    between atoms: C12_21  and  C16_25 
ROOT
HETATM    1  S1  UNK     1      17.976  -0.707  36.930  1.00  0.00    -0.082 SA
HETATM    2  N3  UNK     1      20.761  -2.828  33.232  1.00  0.00    -0.191 NA
HETATM    3  C1  UNK     1      19.510  -4.329  36.639  1.00  0.00    -0.017 A 
HETATM    4  C2  UNK     1      19.101  -2.963  36.431  1.00  0.00     0.005 A 
HETATM    5  C3  UNK     1      20.713  -4.629  37.277  1.00  0.00    -0.051 A 
HETATM    6  C4  UNK     1      18.680  -5.354  36.191  1.00  0.00     0.019 A 
HETATM    7  C5  UNK     1      19.382  -2.126  35.313  1.00  0.00     0.090 A 
HETATM    8  C6  UNK     1      19.053  -6.685  36.381  1.00  0.00    -0.061 A 
HETATM    9  C7  UNK     1      18.828  -0.895  35.470  1.00  0.00     0.098 A 
HETATM   10  C8  UNK     1      21.086  -5.960  37.466  1.00  0.00     0.008 A 
HETATM   11  C9  UNK     1      18.346  -2.316  37.384  1.00  0.00     0.065 A 
HETATM   12  C11 UNK     1      20.256  -6.988  37.018  1.00  0.00     0.007 A 
HETATM   13  C14 UNK     1      21.627  -3.554  37.771  1.00  0.00     0.049 C 
HETATM   14  C18 UNK     1      18.167  -7.785  35.901  1.00  0.00     0.048 C 
HETATM   15  C23 UNK     1      20.144  -2.514  34.164  1.00  0.00     0.103 C 
ENDROOT
BRANCH   9  16
HETATM   16  N1  UNK     1      18.848   0.226  34.635  1.00  0.00    -0.316 N 
HETATM   17  C16 UNK     1      17.739   0.898  34.142  1.00  0.00     0.262 C 
HETATM   18  O2  UNK     1      16.549   0.656  34.331  1.00  0.00    -0.267 OA
HETATM   19  H9  UNK     1      19.755   0.403  34.209  1.00  0.00     0.170 HD
BRANCH  17  20
HETATM   20  C12 UNK     1      18.121   2.033  33.292  1.00  0.00     0.108 A 
HETATM   21  C15 UNK     1      18.047   3.245  33.855  1.00  0.00     0.037 A 
HETATM   22  C10 UNK     1      18.406   4.430  33.092  1.00  0.00     0.001 A 
HETATM   23  C13 UNK     1      18.826   4.281  31.774  1.00  0.00     0.089 A 
HETATM   24  C17 UNK     1      18.344   5.714  33.640  1.00  0.00     0.050 A 
HETATM   25  O1  UNK     1      18.902   3.003  31.188  1.00  0.00    -0.274 OA
HETATM   26  C20 UNK     1      19.184   5.376  30.990  1.00  0.00     0.041 A 
HETATM   27  C19 UNK     1      18.565   1.850  31.892  1.00  0.00     0.304 A 
HETATM   28  O3  UNK     1      18.635   0.742  31.373  1.00  0.00    -0.259 OA
HETATM   29  C22 UNK     1      19.119   6.653  31.543  1.00  0.00     0.039 A 
HETATM   30  C21 UNK     1      18.700   6.822  32.865  1.00  0.00     0.103 A 
BRANCH  30  31
HETATM   31  N2  UNK     1      18.636   8.126  33.424  1.00  0.00    -0.116 N 
HETATM   32  O4  UNK     1      17.796   8.942  32.971  1.00  0.00    -0.532 OA
HETATM   33  O5  UNK     1      19.421   8.427  34.355  1.00  0.00    -0.532 OA
ENDBRANCH  30  31
ENDBRANCH  17  20
ENDBRANCH   9  16
TORSDOF 3
ENDMDL
MODEL 2
REMARK VINA RESULT:      -9.8     10.358     14.039
REMARK  3 active torsions:
REMARK  status: ('A' for Active; 'I' for Inactive)
REMARK       I    between atoms: C16_25  and  N1_7 
REMARK    1  A    between atoms: C7_16  and  N1_7 
REMARK    2  A    between atoms: C21_30  and  N2_8 
REMARK    3  A    between atoms: C12_21  and  C16_25 
ROOT
HETATM    1  S1  UNK     1      28.710  -8.373  35.685  1.00  0.00    -0.082 SA
HETATM    2  N3  UNK     1      29.648  -4.514  38.871  1.00  0.00    -0.191 NA
HETATM    3  C1  UNK     1      32.082  -6.505  36.519  1.00  0.00    -0.017 A 
HETATM    4  C2  UNK     1      30.717  -6.961  36.447  1.00  0.00     0.005 A 
HETATM    5  C3  UNK     1      32.975  -7.058  37.436  1.00  0.00    -0.051 A 
HETATM    6  C4  UNK     1      32.501  -5.497  35.653  1.00  0.00     0.019 A 
HETATM    7  C5  UNK     1      29.589  -6.463  37.162  1.00  0.00     0.090 A 
HETATM    8  C6  UNK     1      33.817  -5.040  35.703  1.00  0.00    -0.061 A 
HETATM    9  C7  UNK     1      28.460  -7.143  36.833  1.00  0.00     0.098 A 
HETATM   10  C8  UNK     1      34.292  -6.599  37.486  1.00  0.00     0.008 A 
HETATM   11  C9  UNK     1      30.380  -8.001  35.609  1.00  0.00     0.065 A 
HETATM   12  C11 UNK     1      34.713  -5.590  36.619  1.00  0.00     0.007 A 
HETATM   13  C14 UNK     1      32.561  -8.140  38.380  1.00  0.00     0.049 C 
HETATM   14  C18 UNK     1      34.268  -3.960  34.777  1.00  0.00     0.048 C 
HETATM   15  C23 UNK     1      29.621  -5.386  38.106  1.00  0.00     0.103 C 
ENDROOT
BRANCH   9  16
HETATM   16  N1  UNK     1      27.144  -6.996  37.282  1.00  0.00    -0.316 N 
HETATM   17  C16 UNK     1      26.571  -7.648  38.364  1.00  0.00     0.262 C 
HETATM   18  O2  UNK     1      27.085  -8.465  39.127  1.00  0.00    -0.267 OA
HETATM   19  H9  UNK     1      26.534  -6.529  36.616  1.00  0.00     0.170 HD
BRANCH  17  20
HETATM   20  C12 UNK     1      25.169  -7.261  38.556  1.00  0.00     0.108 A 
HETATM   21  C15 UNK     1      24.262  -8.237  38.422  1.00  0.00     0.037 A 
HETATM   22  C10 UNK     1      22.846  -7.951  38.595  1.00  0.00     0.001 A 
HETATM   23  C13 UNK     1      22.455  -6.651  38.902  1.00  0.00     0.089 A 
HETATM   24  C17 UNK     1      21.866  -8.938  38.466  1.00  0.00     0.050 A 
HETATM   25  O1  UNK     1      23.414  -5.629  39.041  1.00  0.00    -0.274 OA
HETATM   26  C20 UNK     1      21.115  -6.312  39.080  1.00  0.00     0.041 A 
HETATM   27  C19 UNK     1      24.776  -5.872  38.881  1.00  0.00     0.304 A 
HETATM   28  O3  UNK     1      25.603  -4.976  39.006  1.00  0.00    -0.259 OA
HETATM   29  C22 UNK     1      20.144  -7.302  38.949  1.00  0.00     0.039 A 
HETATM   30  C21 UNK     1      20.519  -8.612  38.642  1.00  0.00     0.103 A 
BRANCH  30  31
HETATM   31  N2  UNK     1      19.525  -9.618  38.509  1.00  0.00    -0.116 N 
HETATM   32  O4  UNK     1      19.461 -10.528  39.371  1.00  0.00    -0.532 OA
HETATM   33  O5  UNK     1      18.737  -9.568  37.534  1.00  0.00    -0.532 OA
ENDBRANCH  30  31
ENDBRANCH  17  20
ENDBRANCH   9  16
TORSDOF 3
ENDMDL
MODEL 3
REMARK VINA RESULT:      -9.7     18.901     20.961
REMARK  3 active torsions:
REMARK  status: ('A' for Active; 'I' for Inactive)
REMARK       I    between atoms: C16_25  and  N1_7 
REMARK    1  A    between atoms: C7_16  and  N1_7 
REMARK    2  A    between atoms: C21_30  and  N2_8 
REMARK    3  A    between atoms: C12_21  and  C16_25 
ROOT
HETATM    1  S1  UNK     1      19.271  -5.656  14.916  1.00  0.00    -0.082 SA
HETATM    2  N3  UNK     1      18.936  -3.011  10.578  1.00  0.00    -0.191 NA
HETATM    3  C1  UNK     1      18.984  -6.892  11.182  1.00  0.00    -0.017 A 
HETATM    4  C2  UNK     1      19.077  -6.122  12.396  1.00  0.00     0.005 A 
HETATM    5  C3  UNK     1      20.130  -7.274  10.485  1.00  0.00    -0.051 A 
HETATM    6  C4  UNK     1      17.724  -7.252  10.709  1.00  0.00     0.019 A 
HETATM    7  C5  UNK     1      19.088  -4.704  12.536  1.00  0.00     0.090 A 
HETATM    8  C6  UNK     1      17.607  -7.996   9.536  1.00  0.00    -0.061 A 
HETATM    9  C7  UNK     1      19.188  -4.341  13.841  1.00  0.00     0.098 A 
HETATM   10  C8  UNK     1      20.012  -8.019   9.311  1.00  0.00     0.008 A 
HETATM   11  C9  UNK     1      19.172  -6.762  13.613  1.00  0.00     0.065 A 
HETATM   12  C11 UNK     1      18.751  -8.380   8.836  1.00  0.00     0.007 A 
HETATM   13  C14 UNK     1      21.497  -6.906  10.962  1.00  0.00     0.049 C 
HETATM   14  C18 UNK     1      16.259  -8.383   9.027  1.00  0.00     0.048 C 
HETATM   15  C23 UNK     1      19.004  -3.769  11.454  1.00  0.00     0.103 C 
ENDROOT
BRANCH   9  16
HETATM   16  N1  UNK     1      19.232  -3.075  14.433  1.00  0.00    -0.316 N 
HETATM   17  C16 UNK     1      18.390  -2.609  15.432  1.00  0.00     0.262 C 
HETATM   18  O2  UNK     1      17.460  -3.193  15.985  1.00  0.00    -0.267 OA
HETATM   19  H9  UNK     1      19.800  -2.404  13.921  1.00  0.00     0.170 HD
BRANCH  17  20
HETATM   20  C12 UNK     1      18.714  -1.232  15.822  1.00  0.00     0.108 A 
HETATM   21  C15 UNK     1      18.696  -0.969  17.135  1.00  0.00     0.037 A 
HETATM   22  C10 UNK     1      19.005   0.367  17.619  1.00  0.00     0.001 A 
HETATM   23  C13 UNK     1      19.320   1.361  16.698  1.00  0.00     0.089 A 
HETATM   24  C17 UNK     1      18.998   0.686  18.980  1.00  0.00     0.050 A 
HETATM   25  O1  UNK     1      19.338   1.078  15.319  1.00  0.00    -0.274 OA
HETATM   26  C20 UNK     1      19.626   2.661  17.097  1.00  0.00     0.041 A 
HETATM   27  C19 UNK     1      19.047  -0.191  14.824  1.00  0.00     0.304 A 
HETATM   28  O3  UNK     1      19.066  -0.427  13.622  1.00  0.00    -0.259 OA
HETATM   29  C22 UNK     1      19.616   2.971  18.455  1.00  0.00     0.039 A 
HETATM   30  C21 UNK     1      19.302   1.985  19.395  1.00  0.00     0.103 A 
BRANCH  30  31
HETATM   31  N2  UNK     1      19.293   2.306  20.778  1.00  0.00    -0.116 N 
HETATM   32  O4  UNK     1      20.388   2.462  21.373  1.00  0.00    -0.532 OA
HETATM   33  O5  UNK     1      18.192   2.425  21.367  1.00  0.00    -0.532 OA
ENDBRANCH  30  31
ENDBRANCH  17  20
ENDBRANCH   9  16
TORSDOF 3
ENDMDL
MODEL 4
REMARK VINA RESULT:      -9.7      4.104     10.220
REMARK  3 active torsions:
REMARK  status: ('A' for Active; 'I' for Inactive)
REMARK       I    between atoms: C16_25  and  N1_7 
REMARK    1  A    between atoms: C7_16  and  N1_7 
REMARK    2  A    between atoms: C21_30  and  N2_8 
REMARK    3  A    between atoms: C12_21  and  C16_25 
ROOT
HETATM    1  S1  UNK     1      19.059   5.157  29.763  1.00  0.00    -0.082 SA
HETATM    2  N3  UNK     1      17.904   3.945  34.571  1.00  0.00    -0.191 NA
HETATM    3  C1  UNK     1      17.667   7.390  32.700  1.00  0.00    -0.017 A 
HETATM    4  C2  UNK     1      18.162   6.321  31.870  1.00  0.00     0.005 A 
HETATM    5  C3  UNK     1      18.540   8.180  33.447  1.00  0.00    -0.051 A 
HETATM    6  C4  UNK     1      16.295   7.625  32.746  1.00  0.00     0.019 A 
HETATM    7  C5  UNK     1      18.370   4.958  32.230  1.00  0.00     0.090 A 
HETATM    8  C6  UNK     1      15.792   8.654  33.542  1.00  0.00    -0.061 A 
HETATM    9  C7  UNK     1      18.848   4.241  31.180  1.00  0.00     0.098 A 
HETATM   10  C8  UNK     1      18.036   9.209  34.244  1.00  0.00     0.008 A 
HETATM   11  C9  UNK     1      18.498   6.566  30.557  1.00  0.00     0.065 A 
HETATM   12  C11 UNK     1      16.662   9.446  34.291  1.00  0.00     0.007 A 
HETATM   13  C14 UNK     1      20.018   7.956  33.422  1.00  0.00     0.049 C 
HETATM   14  C18 UNK     1      14.323   8.909  33.594  1.00  0.00     0.048 C 
HETATM   15  C23 UNK     1      18.113   4.398  33.523  1.00  0.00     0.103 C 
ENDROOT
BRANCH   9  16
HETATM   16  N1  UNK     1      19.189   2.889  31.080  1.00  0.00    -0.316 N 
HETATM   17  C16 UNK     1      18.527   1.931  30.325  1.00  0.00     0.262 C 
HETATM   18  O2  UNK     1      17.536   2.069  29.610  1.00  0.00    -0.267 OA
HETATM   19  H9  UNK     1      19.847   2.579  31.791  1.00  0.00     0.170 HD
BRANCH  17  20
HETATM   20  C12 UNK     1      19.151   0.609  30.449  1.00  0.00     0.108 A 
HETATM   21  C15 UNK     1      19.219   0.101  31.686  1.00  0.00     0.037 A 
HETATM   22  C10 UNK     1      19.819  -1.206  31.910  1.00  0.00     0.001 A 
HETATM   23  C13 UNK     1      20.318  -1.913  30.820  1.00  0.00     0.089 A 
HETATM   24  C17 UNK     1      19.910  -1.775  33.182  1.00  0.00     0.050 A 
HETATM   25  O1  UNK     1      20.243  -1.373  29.522  1.00  0.00    -0.274 OA
HETATM   26  C20 UNK     1      20.904  -3.168  30.967  1.00  0.00     0.041 A 
HETATM   27  C19 UNK     1      19.675  -0.125  29.276  1.00  0.00     0.304 A 
HETATM   28  O3  UNK     1      19.614   0.336  28.142  1.00  0.00    -0.259 OA
HETATM   29  C22 UNK     1      20.992  -3.728  32.240  1.00  0.00     0.039 A 
HETATM   30  C21 UNK     1      20.496  -3.033  33.345  1.00  0.00     0.103 A 
BRANCH  30  31
HETATM   31  N2  UNK     1      20.588  -3.608  34.640  1.00  0.00    -0.116 N 
HETATM   32  O4  UNK     1      21.017  -2.907  35.589  1.00  0.00    -0.532 OA
HETATM   33  O5  UNK     1      20.237  -4.802  34.801  1.00  0.00    -0.532 OA
ENDBRANCH  30  31
ENDBRANCH  17  20
ENDBRANCH   9  16
TORSDOF 3
ENDMDL
MODEL 5
REMARK VINA RESULT:      -9.7     18.766     20.631
REMARK  3 active torsions:
REMARK  status: ('A' for Active; 'I' for Inactive)
REMARK       I    between atoms: C16_25  and  N1_7 
REMARK    1  A    between atoms: C7_16  and  N1_7 
REMARK    2  A    between atoms: C21_30  and  N2_8 
REMARK    3  A    between atoms: C12_21  and  C16_25 
ROOT
HETATM    1  S1  UNK     1      19.476  -4.304  11.343  1.00  0.00    -0.082 SA
HETATM    2  N3  UNK     1      21.609  -6.070  15.616  1.00  0.00    -0.191 NA
HETATM    3  C1  UNK     1      21.087  -7.815  12.136  1.00  0.00    -0.017 A 
HETATM    4  C2  UNK     1      20.587  -6.465  12.180  1.00  0.00     0.005 A 
HETATM    5  C3  UNK     1      20.272  -8.894  12.478  1.00  0.00    -0.051 A 
HETATM    6  C4  UNK     1      22.407  -8.031  11.744  1.00  0.00     0.019 A 
HETATM    7  C5  UNK     1      20.614  -5.556  13.277  1.00  0.00     0.090 A 
HETATM    8  C6  UNK     1      22.914  -9.328  11.694  1.00  0.00    -0.061 A 
HETATM    9  C7  UNK     1      20.047  -4.367  12.944  1.00  0.00     0.098 A 
HETATM   10  C8  UNK     1      20.781 -10.192  12.428  1.00  0.00     0.008 A 
HETATM   11  C9  UNK     1      19.995  -5.912  11.065  1.00  0.00     0.065 A 
HETATM   12  C11 UNK     1      22.102 -10.409  12.036  1.00  0.00     0.007 A 
HETATM   13  C14 UNK     1      18.852  -8.700  12.903  1.00  0.00     0.049 C 
HETATM   14  C18 UNK     1      24.327  -9.562  11.275  1.00  0.00     0.048 C 
HETATM   15  C23 UNK     1      21.164  -5.840  14.569  1.00  0.00     0.103 C 
ENDROOT
BRANCH   9  16
HETATM   16  N1  UNK     1      19.861  -3.204  13.697  1.00  0.00    -0.316 N 
HETATM   17  C16 UNK     1      18.951  -3.036  14.731  1.00  0.00     0.262 C 
HETATM   18  O2  UNK     1      18.146  -3.848  15.184  1.00  0.00    -0.267 OA
HETATM   19  H9  UNK     1      20.293  -2.379  13.289  1.00  0.00     0.170 HD
BRANCH  17  20
HETATM   20  C12 UNK     1      19.019  -1.687  15.305  1.00  0.00     0.108 A 
HETATM   21  C15 UNK     1      19.003  -1.611  16.641  1.00  0.00     0.037 A 
HETATM   22  C10 UNK     1      19.068  -0.317  17.303  1.00  0.00     0.001 A 
HETATM   23  C13 UNK     1      19.147   0.833  16.525  1.00  0.00     0.089 A 
HETATM   24  C17 UNK     1      19.054  -0.191  18.694  1.00  0.00     0.050 A 
HETATM   25  O1  UNK     1      19.163   0.747  15.119  1.00  0.00    -0.274 OA
HETATM   26  C20 UNK     1      19.211   2.102  17.097  1.00  0.00     0.041 A 
HETATM   27  C19 UNK     1      19.103  -0.477  14.457  1.00  0.00     0.304 A 
HETATM   28  O3  UNK     1      19.119  -0.542  13.233  1.00  0.00    -0.259 OA
HETATM   29  C22 UNK     1      19.197   2.219  18.485  1.00  0.00     0.039 A 
HETATM   30  C21 UNK     1      19.118   1.075  19.282  1.00  0.00     0.103 A 
BRANCH  30  31
HETATM   31  N2  UNK     1      19.104   1.200  20.696  1.00  0.00    -0.116 N 
HETATM   32  O4  UNK     1      19.492   0.233  21.397  1.00  0.00    -0.532 OA
HETATM   33  O5  UNK     1      18.705   2.273  21.208  1.00  0.00    -0.532 OA
ENDBRANCH  30  31
ENDBRANCH  17  20
ENDBRANCH   9  16
TORSDOF 3
ENDMDL
MODEL 6
REMARK VINA RESULT:      -9.5      3.152      5.440
REMARK  3 active torsions:
REMARK  status: ('A' for Active; 'I' for Inactive)
REMARK       I    between atoms: C16_25  and  N1_7 
REMARK    1  A    between atoms: C7_16  and  N1_7 
REMARK    2  A    between atoms: C21_30  and  N2_8 
REMARK    3  A    between atoms: C12_21  and  C16_25 
ROOT
HETATM    1  S1  UNK     1      21.933  -5.163  38.090  1.00  0.00    -0.082 SA
HETATM    2  N3  UNK     1      17.279  -6.618  36.624  1.00  0.00    -0.191 NA
HETATM    3  C1  UNK     1      20.330  -8.759  37.861  1.00  0.00    -0.017 A 
HETATM    4  C2  UNK     1      20.600  -7.344  37.827  1.00  0.00     0.005 A 
HETATM    5  C3  UNK     1      20.582  -9.564  36.750  1.00  0.00    -0.051 A 
HETATM    6  C4  UNK     1      19.811  -9.317  39.027  1.00  0.00     0.019 A 
HETATM    7  C5  UNK     1      19.722  -6.295  37.432  1.00  0.00     0.090 A 
HETATM    8  C6  UNK     1      19.541 -10.684  39.083  1.00  0.00    -0.061 A 
HETATM    9  C7  UNK     1      20.328  -5.083  37.533  1.00  0.00     0.098 A 
HETATM   10  C8  UNK     1      20.311 -10.932  36.807  1.00  0.00     0.008 A 
HETATM   11  C9  UNK     1      21.836  -6.869  38.208  1.00  0.00     0.065 A 
HETATM   12  C11 UNK     1      19.791 -11.492  37.974  1.00  0.00     0.007 A 
HETATM   13  C14 UNK     1      21.139  -9.000  35.483  1.00  0.00     0.049 C 
HETATM   14  C18 UNK     1      18.984 -11.285  40.331  1.00  0.00     0.048 C 
HETATM   15  C23 UNK     1      18.372  -6.473  36.986  1.00  0.00     0.103 C 
ENDROOT
BRANCH   9  16
HETATM   16  N1  UNK     1      19.850  -3.799  37.255  1.00  0.00    -0.316 N 
HETATM   17  C16 UNK     1      19.818  -3.190  36.009  1.00  0.00     0.262 C 
HETATM   18  O2  UNK     1      20.192  -3.638  34.927  1.00  0.00    -0.267 OA
HETATM   19  H9  UNK     1      19.719  -3.223  38.083  1.00  0.00     0.170 HD
BRANCH  17  20
HETATM   20  C12 UNK     1      19.252  -1.837  36.076  1.00  0.00     0.108 A 
HETATM   21  C15 UNK     1      19.186  -1.166  34.920  1.00  0.00     0.037 A 
HETATM   22  C10 UNK     1      18.639   0.182  34.885  1.00  0.00     0.001 A 
HETATM   23  C13 UNK     1      18.188   0.756  36.070  1.00  0.00     0.089 A 
HETATM   24  C17 UNK     1      18.550   0.919  33.702  1.00  0.00     0.050 A 
HETATM   25  O1  UNK     1      18.260   0.044  37.283  1.00  0.00    -0.274 OA
HETATM   26  C20 UNK     1      17.654   2.042  36.104  1.00  0.00     0.041 A 
HETATM   27  C19 UNK     1      18.778  -1.247  37.348  1.00  0.00     0.304 A 
HETATM   28  O3  UNK     1      18.836  -1.859  38.409  1.00  0.00    -0.259 OA
HETATM   29  C22 UNK     1      17.569   2.771  34.920  1.00  0.00     0.039 A 
HETATM   30  C21 UNK     1      18.017   2.210  33.721  1.00  0.00     0.103 A 
BRANCH  30  31
HETATM   31  N2  UNK     1      17.928   2.957  32.517  1.00  0.00    -0.116 N 
HETATM   32  O4  UNK     1      17.876   2.344  31.423  1.00  0.00    -0.532 OA
HETATM   33  O5  UNK     1      17.905   4.210  32.579  1.00  0.00    -0.532 OA
ENDBRANCH  30  31
ENDBRANCH  17  20
ENDBRANCH   9  16
TORSDOF 3
ENDMDL
MODEL 7
REMARK VINA RESULT:      -9.3      5.020     11.064
REMARK  3 active torsions:
REMARK  status: ('A' for Active; 'I' for Inactive)
REMARK       I    between atoms: C16_25  and  N1_7 
REMARK    1  A    between atoms: C7_16  and  N1_7 
REMARK    2  A    between atoms: C21_30  and  N2_8 
REMARK    3  A    between atoms: C12_21  and  C16_25 
ROOT
HETATM    1  S1  UNK     1      19.399   6.119  34.583  1.00  0.00    -0.082 SA
HETATM    2  N3  UNK     1      16.732   7.886  30.622  1.00  0.00    -0.191 NA
HETATM    3  C1  UNK     1      17.548   9.564  34.077  1.00  0.00    -0.017 A 
HETATM    4  C2  UNK     1      18.103   8.242  33.938  1.00  0.00     0.005 A 
HETATM    5  C3  UNK     1      16.273   9.754  34.610  1.00  0.00    -0.051 A 
HETATM    6  C4  UNK     1      18.307  10.659  33.671  1.00  0.00     0.019 A 
HETATM    7  C5  UNK     1      17.999   7.361  32.823  1.00  0.00     0.090 A 
HETATM    8  C6  UNK     1      17.791  11.948  33.796  1.00  0.00    -0.061 A 
HETATM    9  C7  UNK     1      18.655   6.195  33.056  1.00  0.00     0.098 A 
HETATM   10  C8  UNK     1      15.757  11.044  34.734  1.00  0.00     0.008 A 
HETATM   11  C9  UNK     1      18.838   7.691  34.965  1.00  0.00     0.065 A 
HETATM   12  C11 UNK     1      16.516  12.141  34.327  1.00  0.00     0.007 A 
HETATM   13  C14 UNK     1      15.430   8.603  35.056  1.00  0.00     0.049 C 
HETATM   14  C18 UNK     1      18.602  13.123  33.360  1.00  0.00     0.048 C 
HETATM   15  C23 UNK     1      17.299   7.651  31.607  1.00  0.00     0.103 C 
ENDROOT
BRANCH   9  16
HETATM   16  N1  UNK     1      18.814   5.063  32.250  1.00  0.00    -0.316 N 
HETATM   17  C16 UNK     1      18.253   3.814  32.476  1.00  0.00     0.262 C 
HETATM   18  O2  UNK     1      17.525   3.456  33.400  1.00  0.00    -0.267 OA
HETATM   19  H9  UNK     1      19.570   5.143  31.576  1.00  0.00     0.170 HD
BRANCH  17  20
HETATM   20  C12 UNK     1      18.626   2.851  31.433  1.00  0.00     0.108 A 
HETATM   21  C15 UNK     1      19.087   1.668  31.857  1.00  0.00     0.037 A 
HETATM   22  C10 UNK     1      19.480   0.648  30.898  1.00  0.00     0.001 A 
HETATM   23  C13 UNK     1      19.369   0.923  29.539  1.00  0.00     0.089 A 
HETATM   24  C17 UNK     1      19.966  -0.601  31.296  1.00  0.00     0.050 A 
HETATM   25  O1  UNK     1      18.883   2.169  29.099  1.00  0.00    -0.274 OA
HETATM   26  C20 UNK     1      19.729  -0.011  28.570  1.00  0.00     0.041 A 
HETATM   27  C19 UNK     1      18.499   3.166  29.992  1.00  0.00     0.304 A 
HETATM   28  O3  UNK     1      18.077   4.247  29.599  1.00  0.00    -0.259 OA
HETATM   29  C22 UNK     1      20.213  -1.253  28.975  1.00  0.00     0.039 A 
HETATM   30  C21 UNK     1      20.331  -1.547  30.336  1.00  0.00     0.103 A 
BRANCH  30  31
HETATM   31  N2  UNK     1      20.824  -2.815  30.743  1.00  0.00    -0.116 N 
HETATM   32  O4  UNK     1      21.240  -3.616  29.871  1.00  0.00    -0.532 OA
HETATM   33  O5  UNK     1      20.831  -3.100  31.965  1.00  0.00    -0.532 OA
ENDBRANCH  30  31
ENDBRANCH  17  20
ENDBRANCH   9  16
TORSDOF 3
ENDMDL
MODEL 8
REMARK VINA RESULT:      -9.2      2.044      3.247
REMARK  3 active torsions:
REMARK  status: ('A' for Active; 'I' for Inactive)
REMARK       I    between atoms: C16_25  and  N1_7 
REMARK    1  A    between atoms: C7_16  and  N1_7 
REMARK    2  A    between atoms: C21_30  and  N2_8 
REMARK    3  A    between atoms: C12_21  and  C16_25 
ROOT
HETATM    1  S1  UNK     1      20.324  -2.800  33.823  1.00  0.00    -0.082 SA
HETATM    2  N3  UNK     1      18.697  -1.816  38.547  1.00  0.00    -0.191 NA
HETATM    3  C1  UNK     1      20.066  -5.148  36.982  1.00  0.00    -0.017 A 
HETATM    4  C2  UNK     1      20.030  -4.050  36.049  1.00  0.00     0.005 A 
HETATM    5  C3  UNK     1      18.972  -6.001  37.127  1.00  0.00    -0.051 A 
HETATM    6  C4  UNK     1      21.216  -5.347  37.742  1.00  0.00     0.019 A 
HETATM    7  C5  UNK     1      19.594  -2.714  36.285  1.00  0.00     0.090 A 
HETATM    8  C6  UNK     1      21.275  -6.403  38.651  1.00  0.00    -0.061 A 
HETATM    9  C7  UNK     1      19.707  -1.956  35.164  1.00  0.00     0.098 A 
HETATM   10  C8  UNK     1      19.031  -7.056  38.037  1.00  0.00     0.008 A 
HETATM   11  C9  UNK     1      20.453  -4.233  34.751  1.00  0.00     0.065 A 
HETATM   12  C11 UNK     1      20.183  -7.258  38.799  1.00  0.00     0.007 A 
HETATM   13  C14 UNK     1      17.722  -5.817  36.328  1.00  0.00     0.049 C 
HETATM   14  C18 UNK     1      22.505  -6.619  39.466  1.00  0.00     0.048 C 
HETATM   15  C23 UNK     1      19.099  -2.218  37.534  1.00  0.00     0.103 C 
ENDROOT
BRANCH   9  16
HETATM   16  N1  UNK     1      19.400  -0.610  34.940  1.00  0.00    -0.316 N 
HETATM   17  C16 UNK     1      18.319  -0.127  34.217  1.00  0.00     0.262 C 
HETATM   18  O2  UNK     1      17.436  -0.760  33.642  1.00  0.00    -0.267 OA
HETATM   19  H9  UNK     1      20.163   0.026  35.160  1.00  0.00     0.170 HD
BRANCH  17  20
HETATM   20  C12 UNK     1      18.299   1.341  34.179  1.00  0.00     0.108 A 
HETATM   21  C15 UNK     1      18.335   1.901  32.964  1.00  0.00     0.037 A 
HETATM   22  C10 UNK     1      18.317   3.349  32.825  1.00  0.00     0.001 A 
HETATM   23  C13 UNK     1      18.261   4.136  33.971  1.00  0.00     0.089 A 
HETATM   24  C17 UNK     1      18.353   3.977  31.577  1.00  0.00     0.050 A 
HETATM   25  O1  UNK     1      18.223   3.539  35.246  1.00  0.00    -0.274 OA
HETATM   26  C20 UNK     1      18.241   5.527  33.906  1.00  0.00     0.041 A 
HETATM   27  C19 UNK     1      18.239   2.157  35.412  1.00  0.00     0.304 A 
HETATM   28  O3  UNK     1      18.205   1.647  36.527  1.00  0.00    -0.259 OA
HETATM   29  C22 UNK     1      18.278   6.146  32.658  1.00  0.00     0.039 A 
HETATM   30  C21 UNK     1      18.333   5.372  31.496  1.00  0.00     0.103 A 
BRANCH  30  31
HETATM   31  N2  UNK     1      18.370   6.007  30.226  1.00  0.00    -0.116 N 
HETATM   32  O4  UNK     1      19.175   5.589  29.359  1.00  0.00    -0.532 OA
HETATM   33  O5  UNK     1      17.596   6.970  30.006  1.00  0.00    -0.532 OA
ENDBRANCH  30  31
ENDBRANCH  17  20
ENDBRANCH   9  16
TORSDOF 3
ENDMDL
MODEL 9
REMARK VINA RESULT:      -9.2     25.918     28.613
REMARK  3 active torsions:
REMARK  status: ('A' for Active; 'I' for Inactive)
REMARK       I    between atoms: C16_25  and  N1_7 
REMARK    1  A    between atoms: C7_16  and  N1_7 
REMARK    2  A    between atoms: C21_30  and  N2_8 
REMARK    3  A    between atoms: C12_21  and  C16_25 
ROOT
HETATM    1  S1  UNK     1      15.128  12.388   8.177  1.00  0.00    -0.082 SA
HETATM    2  N3  UNK     1      17.550   8.229   9.839  1.00  0.00    -0.191 NA
HETATM    3  C1  UNK     1      18.763  11.959   9.646  1.00  0.00    -0.017 A 
HETATM    4  C2  UNK     1      17.419  11.769   9.164  1.00  0.00     0.005 A 
HETATM    5  C3  UNK     1      19.855  11.860   8.784  1.00  0.00    -0.051 A 
HETATM    6  C4  UNK     1      18.960  12.247  10.995  1.00  0.00     0.019 A 
HETATM    7  C5  UNK     1      16.678  10.554   9.094  1.00  0.00     0.090 A 
HETATM    8  C6  UNK     1      20.252  12.435  11.485  1.00  0.00    -0.061 A 
HETATM    9  C7  UNK     1      15.437  10.766   8.582  1.00  0.00     0.098 A 
HETATM   10  C8  UNK     1      21.147  12.048   9.275  1.00  0.00     0.008 A 
HETATM   11  C9  UNK     1      16.695  12.844   8.696  1.00  0.00     0.065 A 
HETATM   12  C11 UNK     1      21.345  12.336  10.625  1.00  0.00     0.007 A 
HETATM   13  C14 UNK     1      19.682  11.553   7.331  1.00  0.00     0.049 C 
HETATM   14  C18 UNK     1      20.465  12.743  12.929  1.00  0.00     0.048 C 
HETATM   15  C23 UNK     1      17.160   9.270   9.505  1.00  0.00     0.103 C 
ENDROOT
BRANCH   9  16
HETATM   16  N1  UNK     1      14.389   9.873   8.338  1.00  0.00    -0.316 N 
HETATM   17  C16 UNK     1      13.709   9.129   9.292  1.00  0.00     0.262 C 
HETATM   18  O2  UNK     1      13.883   9.101  10.509  1.00  0.00    -0.267 OA
HETATM   19  H9  UNK     1      14.286   9.620   7.358  1.00  0.00     0.170 HD
BRANCH  17  20
HETATM   20  C12 UNK     1      12.665   8.292   8.690  1.00  0.00     0.108 A 
HETATM   21  C15 UNK     1      11.467   8.319   9.287  1.00  0.00     0.037 A 
HETATM   22  C10 UNK     1      10.368   7.524   8.763  1.00  0.00     0.001 A 
HETATM   23  C13 UNK     1      10.583   6.739   7.635  1.00  0.00     0.089 A 
HETATM   24  C17 UNK     1       9.102   7.522   9.354  1.00  0.00     0.050 A 
HETATM   25  O1  UNK     1      11.846   6.715   7.010  1.00  0.00    -0.274 OA
HETATM   26  C20 UNK     1       9.573   5.954   7.083  1.00  0.00     0.041 A 
HETATM   27  C19 UNK     1      12.917   7.465   7.489  1.00  0.00     0.304 A 
HETATM   28  O3  UNK     1      14.011   7.438   6.938  1.00  0.00    -0.259 OA
HETATM   29  C22 UNK     1       8.313   5.958   7.679  1.00  0.00     0.039 A 
HETATM   30  C21 UNK     1       8.078   6.740   8.813  1.00  0.00     0.103 A 
BRANCH  30  31
HETATM   31  N2  UNK     1       6.793   6.741   9.416  1.00  0.00    -0.116 N 
HETATM   32  O4  UNK     1       6.155   7.820   9.489  1.00  0.00    -0.532 OA
HETATM   33  O5  UNK     1       6.330   5.663   9.859  1.00  0.00    -0.532 OA
ENDBRANCH  30  31
ENDBRANCH  17  20
ENDBRANCH   9  16
TORSDOF 3
ENDMDL
MODEL 10
REMARK VINA RESULT:      -9.0      6.238     10.518
REMARK  3 active torsions:
REMARK  status: ('A' for Active; 'I' for Inactive)
REMARK       I    between atoms: C16_25  and  N1_7 
REMARK    1  A    between atoms: C7_16  and  N1_7 
REMARK    2  A    between atoms: C21_30  and  N2_8 
REMARK    3  A    between atoms: C12_21  and  C16_25 
ROOT
HETATM    1  S1  UNK     1      19.172   8.636  33.832  1.00  0.00    -0.082 SA
HETATM    2  N3  UNK     1      14.899   6.709  31.846  1.00  0.00    -0.191 NA
HETATM    3  C1  UNK     1      18.451   5.088  32.271  1.00  0.00    -0.017 A 
HETATM    4  C2  UNK     1      18.376   6.440  32.763  1.00  0.00     0.005 A 
HETATM    5  C3  UNK     1      18.804   4.825  30.948  1.00  0.00    -0.051 A 
HETATM    6  C4  UNK     1      18.164   4.038  33.141  1.00  0.00     0.019 A 
HETATM    7  C5  UNK     1      17.249   7.311  32.763  1.00  0.00     0.090 A 
HETATM    8  C6  UNK     1      18.229   2.721  32.688  1.00  0.00    -0.061 A 
HETATM    9  C7  UNK     1      17.558   8.514  33.313  1.00  0.00     0.098 A 
HETATM   10  C8  UNK     1      18.868   3.507  30.495  1.00  0.00     0.008 A 
HETATM   11  C9  UNK     1      19.489   7.035  33.315  1.00  0.00     0.065 A 
HETATM   12  C11 UNK     1      18.581   2.455  31.366  1.00  0.00     0.007 A 
HETATM   13  C14 UNK     1      19.118   5.925  29.986  1.00  0.00     0.049 C 
HETATM   14  C18 UNK     1      17.922   1.595  33.618  1.00  0.00     0.048 C 
HETATM   15  C23 UNK     1      15.951   6.978  32.257  1.00  0.00     0.103 C 
ENDROOT
BRANCH   9  16
HETATM   16  N1  UNK     1      16.771   9.652  33.515  1.00  0.00    -0.316 N 
HETATM   17  C16 UNK     1      15.941   9.889  34.601  1.00  0.00     0.262 C 
HETATM   18  O2  UNK     1      15.732   9.172  35.579  1.00  0.00    -0.267 OA
HETATM   19  H9  UNK     1      16.664  10.229  32.685  1.00  0.00     0.170 HD
BRANCH  17  20
HETATM   20  C12 UNK     1      15.259  11.184  34.495  1.00  0.00     0.108 A 
HETATM   21  C15 UNK     1      13.969  11.146  34.138  1.00  0.00     0.037 A 
HETATM   22  C10 UNK     1      13.208  12.379  34.008  1.00  0.00     0.001 A 
HETATM   23  C13 UNK     1      13.841  13.591  34.260  1.00  0.00     0.089 A 
HETATM   24  C17 UNK     1      11.860  12.386  33.638  1.00  0.00     0.050 A 
HETATM   25  O1  UNK     1      15.198  13.625  34.636  1.00  0.00    -0.274 OA
HETATM   26  C20 UNK     1      13.168  14.807  34.154  1.00  0.00     0.041 A 
HETATM   27  C19 UNK     1      15.953  12.462  34.769  1.00  0.00     0.304 A 
HETATM   28  O3  UNK     1      17.133  12.502  35.098  1.00  0.00    -0.259 OA
HETATM   29  C22 UNK     1      11.825  14.805  33.784  1.00  0.00     0.039 A 
HETATM   30  C21 UNK     1      11.172  13.597  33.526  1.00  0.00     0.103 A 
BRANCH  30  31
HETATM   31  N2  UNK     1       9.803  13.601  33.150  1.00  0.00    -0.116 N 
HETATM   32  O4  UNK     1       9.362  14.557  32.468  1.00  0.00    -0.532 OA
HETATM   33  O5  UNK     1       9.071  12.648  33.511  1.00  0.00    -0.532 OA
ENDBRANCH  30  31
ENDBRANCH  17  20
ENDBRANCH   9  16
TORSDOF 3
ENDMDL
