MODEL 1
REMARK VINA RESULT:      -8.1      0.000      0.000
REMARK  12 active torsions:
REMARK  status: ('A' for Active; 'I' for Inactive)
REMARK    1  A    between atoms: C10_14  and  N1_4 
REMARK       I    between atoms: C13_17  and  N1_4 
REMARK    2  A    between atoms: C1_5  and  C2_6 
REMARK    3  A    between atoms: C1_5  and  C3_7 
REMARK    4  A    between atoms: C2_6  and  C4_8 
REMARK    5  A    between atoms: C3_7  and  C5_9 
REMARK    6  A    between atoms: C4_8  and  C6_10 
REMARK    7  A    between atoms: C5_9  and  C7_11 
REMARK    8  A    between atoms: C6_10  and  C8_12 
REMARK    9  A    between atoms: C7_11  and  C9_13 
REMARK   10  A    between atoms: C10_14  and  C8_12 
REMARK   11  A    between atoms: C11_15  and  C9_13 
REMARK   12  A    between atoms: C13_17  and  C14_18 
ROOT
HETATM    1  O2  UNK     1      20.953  -4.561  37.019  1.00  0.00    -0.267 OA
HETATM    2  N1  UNK     1      18.749  -5.086  36.467  1.00  0.00    -0.357 N 
HETATM    3  C13 UNK     1      19.832  -4.240  36.637  1.00  0.00     0.257 C 
HETATM    4  H26 UNK     1      17.866  -4.705  36.140  1.00  0.00     0.162 HD
ENDROOT
BRANCH   2   5
HETATM    5  C10 UNK     1      18.807  -6.499  36.728  1.00  0.00     0.123 C 
BRANCH   5   6
HETATM    6  C8  UNK     1      18.905  -7.322  35.449  1.00  0.00     0.020 C 
BRANCH   6   7
HETATM    7  C6  UNK     1      20.323  -7.345  34.870  1.00  0.00     0.002 C 
BRANCH   7   8
HETATM    8  C4  UNK     1      21.238  -8.269  35.678  1.00  0.00     0.000 C 
BRANCH   8   9
HETATM    9  C2  UNK     1      21.636  -9.503  34.865  1.00  0.00     0.000 C 
BRANCH   9  10
HETATM   10  C1  UNK     1      21.377 -10.823  35.597  1.00  0.00     0.000 C 
BRANCH  10  11
HETATM   11  C3  UNK     1      21.209 -10.658  37.110  1.00  0.00     0.000 C 
BRANCH  11  12
HETATM   12  C5  UNK     1      19.765 -10.941  37.538  1.00  0.00     0.000 C 
BRANCH  12  13
HETATM   13  C7  UNK     1      19.128  -9.793  38.328  1.00  0.00     0.000 C 
BRANCH  13  14
HETATM   14  C9  UNK     1      19.967  -9.339  39.524  1.00  0.00    -0.000 C 
BRANCH  14  15
HETATM   15  C11 UNK     1      20.116  -7.817  39.548  1.00  0.00    -0.005 C 
HETATM   16  C12 UNK     1      21.560  -7.396  39.329  1.00  0.00     0.005 C 
ENDBRANCH  14  15
ENDBRANCH  13  14
ENDBRANCH  12  13
ENDBRANCH  11  12
ENDBRANCH  10  11
ENDBRANCH   9  10
ENDBRANCH   8   9
ENDBRANCH   7   8
ENDBRANCH   6   7
ENDBRANCH   5   6
ENDBRANCH   2   5
BRANCH   3  17
HETATM   17  C14 UNK     1      19.525  -2.838  36.302  1.00  0.00     0.108 A 
HETATM   18  C15 UNK     1      18.781  -2.168  37.191  1.00  0.00     0.037 A 
HETATM   19  C16 UNK     1      18.425  -0.778  36.949  1.00  0.00    -0.001 A 
HETATM   20  C18 UNK     1      18.870  -0.163  35.783  1.00  0.00     0.089 A 
HETATM   21  C19 UNK     1      17.653  -0.039  37.848  1.00  0.00     0.014 A 
HETATM   22  O1  UNK     1      19.652  -0.875  34.852  1.00  0.00    -0.274 OA
HETATM   23  C20 UNK     1      18.564   1.165  35.491  1.00  0.00     0.038 A 
HETATM   24  C17 UNK     1      20.008  -2.204  35.056  1.00  0.00     0.304 A 
HETATM   25  O3  UNK     1      20.688  -2.816  34.239  1.00  0.00    -0.259 OA
HETATM   26  C22 UNK     1      17.792   1.894  36.393  1.00  0.00     0.003 A 
HETATM   27  C21 UNK     1      17.338   1.293  37.570  1.00  0.00     0.001 A 
ENDBRANCH   3  17
TORSDOF 12
ENDMDL
MODEL 2
REMARK VINA RESULT:      -7.8      7.118     13.403
REMARK  12 active torsions:
REMARK  status: ('A' for Active; 'I' for Inactive)
REMARK    1  A    between atoms: C10_14  and  N1_4 
REMARK       I    between atoms: C13_17  and  N1_4 
REMARK    2  A    between atoms: C1_5  and  C2_6 
REMARK    3  A    between atoms: C1_5  and  C3_7 
REMARK    4  A    between atoms: C2_6  and  C4_8 
REMARK    5  A    between atoms: C3_7  and  C5_9 
REMARK    6  A    between atoms: C4_8  and  C6_10 
REMARK    7  A    between atoms: C5_9  and  C7_11 
REMARK    8  A    between atoms: C6_10  and  C8_12 
REMARK    9  A    between atoms: C7_11  and  C9_13 
REMARK   10  A    between atoms: C10_14  and  C8_12 
REMARK   11  A    between atoms: C11_15  and  C9_13 
REMARK   12  A    between atoms: C13_17  and  C14_18 
ROOT
HETATM    1  O2  UNK     1      17.990   3.098  28.613  1.00  0.00    -0.267 OA
HETATM    2  N1  UNK     1      19.243   4.180  30.257  1.00  0.00    -0.357 N 
HETATM    3  C13 UNK     1      18.673   3.083  29.632  1.00  0.00     0.257 C 
HETATM    4  H26 UNK     1      19.795   4.043  31.099  1.00  0.00     0.162 HD
ENDROOT
BRANCH   2   5
HETATM    5  C10 UNK     1      19.098   5.524  29.769  1.00  0.00     0.123 C 
BRANCH   5   6
HETATM    6  C8  UNK     1      18.705   6.503  30.869  1.00  0.00     0.020 C 
BRANCH   6   7
HETATM    7  C6  UNK     1      19.139   6.030  32.260  1.00  0.00     0.002 C 
BRANCH   7   8
HETATM    8  C4  UNK     1      19.686   7.191  33.095  1.00  0.00     0.000 C 
BRANCH   8   9
HETATM    9  C2  UNK     1      19.159   7.137  34.531  1.00  0.00     0.000 C 
BRANCH   9  10
HETATM   10  C1  UNK     1      17.924   8.012  34.758  1.00  0.00     0.000 C 
BRANCH  10  11
HETATM   11  C3  UNK     1      17.789   9.152  33.745  1.00  0.00     0.000 C 
BRANCH  11  12
HETATM   12  C5  UNK     1      16.468   9.903  33.933  1.00  0.00     0.000 C 
BRANCH  12  13
HETATM   13  C7  UNK     1      15.384   9.489  32.933  1.00  0.00     0.000 C 
BRANCH  13  14
HETATM   14  C9  UNK     1      15.860   8.449  31.917  1.00  0.00    -0.000 C 
BRANCH  14  15
HETATM   15  C11 UNK     1      15.202   7.091  32.167  1.00  0.00    -0.005 C 
HETATM   16  C12 UNK     1      13.697   7.223  32.332  1.00  0.00     0.005 C 
ENDBRANCH  14  15
ENDBRANCH  13  14
ENDBRANCH  12  13
ENDBRANCH  11  12
ENDBRANCH  10  11
ENDBRANCH   9  10
ENDBRANCH   8   9
ENDBRANCH   7   8
ENDBRANCH   6   7
ENDBRANCH   5   6
ENDBRANCH   2   5
BRANCH   3  17
HETATM   17  C14 UNK     1      18.967   1.813  30.321  1.00  0.00     0.108 A 
HETATM   18  C15 UNK     1      19.601   0.881  29.598  1.00  0.00     0.037 A 
HETATM   19  C16 UNK     1      19.934  -0.405  30.190  1.00  0.00    -0.001 A 
HETATM   20  C18 UNK     1      19.583  -0.648  31.514  1.00  0.00     0.089 A 
HETATM   21  C19 UNK     1      20.596  -1.405  29.475  1.00  0.00     0.014 A 
HETATM   22  O1  UNK     1      18.915   0.337  32.269  1.00  0.00    -0.274 OA
HETATM   23  C20 UNK     1      19.872  -1.858  32.141  1.00  0.00     0.038 A 
HETATM   24  C17 UNK     1      18.583   1.577  31.730  1.00  0.00     0.304 A 
HETATM   25  O3  UNK     1      18.001   2.427  32.395  1.00  0.00    -0.259 OA
HETATM   26  C22 UNK     1      20.532  -2.851  31.419  1.00  0.00     0.003 A 
HETATM   27  C21 UNK     1      20.894  -2.625  30.089  1.00  0.00     0.001 A 
ENDBRANCH   3  17
TORSDOF 12
ENDMDL
MODEL 3
REMARK VINA RESULT:      -7.8      5.590      8.238
REMARK  12 active torsions:
REMARK  status: ('A' for Active; 'I' for Inactive)
REMARK    1  A    between atoms: C10_14  and  N1_4 
REMARK       I    between atoms: C13_17  and  N1_4 
REMARK    2  A    between atoms: C1_5  and  C2_6 
REMARK    3  A    between atoms: C1_5  and  C3_7 
REMARK    4  A    between atoms: C2_6  and  C4_8 
REMARK    5  A    between atoms: C3_7  and  C5_9 
REMARK    6  A    between atoms: C4_8  and  C6_10 
REMARK    7  A    between atoms: C5_9  and  C7_11 
REMARK    8  A    between atoms: C6_10  and  C8_12 
REMARK    9  A    between atoms: C7_11  and  C9_13 
REMARK   10  A    between atoms: C10_14  and  C8_12 
REMARK   11  A    between atoms: C11_15  and  C9_13 
REMARK   12  A    between atoms: C13_17  and  C14_18 
ROOT
HETATM    1  O2  UNK     1      18.419   1.374  28.610  1.00  0.00    -0.267 OA
HETATM    2  N1  UNK     1      20.095   0.607  30.039  1.00  0.00    -0.357 N 
HETATM    3  C13 UNK     1      19.053   1.436  29.658  1.00  0.00     0.257 C 
HETATM    4  H26 UNK     1      20.545   0.753  30.938  1.00  0.00     0.162 HD
ENDROOT
BRANCH   2   5
HETATM    5  C10 UNK     1      20.581  -0.469  29.219  1.00  0.00     0.123 C 
BRANCH   5   6
HETATM    6  C8  UNK     1      20.416  -1.829  29.889  1.00  0.00     0.020 C 
BRANCH   6   7
HETATM    7  C6  UNK     1      19.909  -1.718  31.330  1.00  0.00     0.002 C 
BRANCH   7   8
HETATM    8  C4  UNK     1      20.999  -2.106  32.333  1.00  0.00     0.000 C 
BRANCH   8   9
HETATM    9  C2  UNK     1      20.393  -2.679  33.616  1.00  0.00     0.000 C 
BRANCH   9  10
HETATM   10  C1  UNK     1      19.428  -1.717  34.316  1.00  0.00     0.000 C 
BRANCH  10  11
HETATM   11  C3  UNK     1      19.419  -1.865  35.840  1.00  0.00     0.000 C 
BRANCH  11  12
HETATM   12  C5  UNK     1      17.998  -1.748  36.397  1.00  0.00     0.000 C 
BRANCH  12  13
HETATM   13  C7  UNK     1      17.880  -0.762  37.563  1.00  0.00     0.000 C 
BRANCH  13  14
HETATM   14  C9  UNK     1      17.051   0.479  37.230  1.00  0.00    -0.000 C 
BRANCH  14  15
HETATM   15  C11 UNK     1      17.506   1.111  35.914  1.00  0.00    -0.005 C 
HETATM   16  C12 UNK     1      18.793   1.900  36.091  1.00  0.00     0.005 C 
ENDBRANCH  14  15
ENDBRANCH  13  14
ENDBRANCH  12  13
ENDBRANCH  11  12
ENDBRANCH  10  11
ENDBRANCH   9  10
ENDBRANCH   8   9
ENDBRANCH   7   8
ENDBRANCH   6   7
ENDBRANCH   5   6
ENDBRANCH   2   5
BRANCH   3  17
HETATM   17  C14 UNK     1      18.737   2.462  30.668  1.00  0.00     0.108 A 
HETATM   18  C15 UNK     1      18.817   3.735  30.261  1.00  0.00     0.037 A 
HETATM   19  C16 UNK     1      18.523   4.820  31.186  1.00  0.00    -0.001 A 
HETATM   20  C18 UNK     1      18.160   4.510  32.493  1.00  0.00     0.089 A 
HETATM   21  C19 UNK     1      18.592   6.162  30.806  1.00  0.00     0.014 A 
HETATM   22  O1  UNK     1      18.078   3.168  32.914  1.00  0.00    -0.274 OA
HETATM   23  C20 UNK     1      17.866   5.500  33.427  1.00  0.00     0.038 A 
HETATM   24  C17 UNK     1      18.353   2.110  32.052  1.00  0.00     0.304 A 
HETATM   25  O3  UNK     1      18.280   0.945  32.428  1.00  0.00    -0.259 OA
HETATM   26  C22 UNK     1      17.939   6.838  33.040  1.00  0.00     0.003 A 
HETATM   27  C21 UNK     1      18.301   7.167  31.732  1.00  0.00     0.001 A 
ENDBRANCH   3  17
TORSDOF 12
ENDMDL
MODEL 4
REMARK VINA RESULT:      -7.6      6.888     12.833
REMARK  12 active torsions:
REMARK  status: ('A' for Active; 'I' for Inactive)
REMARK    1  A    between atoms: C10_14  and  N1_4 
REMARK       I    between atoms: C13_17  and  N1_4 
REMARK    2  A    between atoms: C1_5  and  C2_6 
REMARK    3  A    between atoms: C1_5  and  C3_7 
REMARK    4  A    between atoms: C2_6  and  C4_8 
REMARK    5  A    between atoms: C3_7  and  C5_9 
REMARK    6  A    between atoms: C4_8  and  C6_10 
REMARK    7  A    between atoms: C5_9  and  C7_11 
REMARK    8  A    between atoms: C6_10  and  C8_12 
REMARK    9  A    between atoms: C7_11  and  C9_13 
REMARK   10  A    between atoms: C10_14  and  C8_12 
REMARK   11  A    between atoms: C11_15  and  C9_13 
REMARK   12  A    between atoms: C13_17  and  C14_18 
ROOT
HETATM    1  O2  UNK     1      18.001   2.524  28.412  1.00  0.00    -0.267 OA
HETATM    2  N1  UNK     1      19.028   3.807  30.068  1.00  0.00    -0.357 N 
HETATM    3  C13 UNK     1      18.606   2.628  29.475  1.00  0.00     0.257 C 
HETATM    4  H26 UNK     1      19.526   3.769  30.952  1.00  0.00     0.162 HD
ENDROOT
BRANCH   2   5
HETATM    5  C10 UNK     1      18.799   5.102  29.488  1.00  0.00     0.123 C 
BRANCH   5   6
HETATM    6  C8  UNK     1      19.760   6.157  30.026  1.00  0.00     0.020 C 
BRANCH   6   7
HETATM    7  C6  UNK     1      20.537   5.675  31.254  1.00  0.00     0.002 C 
BRANCH   7   8
HETATM    8  C4  UNK     1      20.103   6.426  32.516  1.00  0.00     0.000 C 
BRANCH   8   9
HETATM    9  C2  UNK     1      19.290   5.524  33.446  1.00  0.00     0.000 C 
BRANCH   9  10
HETATM   10  C1  UNK     1      17.798   5.484  33.106  1.00  0.00     0.000 C 
BRANCH  10  11
HETATM   11  C3  UNK     1      16.964   6.487  33.907  1.00  0.00     0.000 C 
BRANCH  11  12
HETATM   12  C5  UNK     1      16.513   7.657  33.028  1.00  0.00     0.000 C 
BRANCH  12  13
HETATM   13  C7  UNK     1      17.491   8.836  33.034  1.00  0.00     0.000 C 
BRANCH  13  14
HETATM   14  C9  UNK     1      18.196   9.035  34.377  1.00  0.00    -0.000 C 
BRANCH  14  15
HETATM   15  C11 UNK     1      19.263  10.127  34.285  1.00  0.00    -0.005 C 
HETATM   16  C12 UNK     1      20.662   9.553  34.441  1.00  0.00     0.005 C 
ENDBRANCH  14  15
ENDBRANCH  13  14
ENDBRANCH  12  13
ENDBRANCH  11  12
ENDBRANCH  10  11
ENDBRANCH   9  10
ENDBRANCH   8   9
ENDBRANCH   7   8
ENDBRANCH   6   7
ENDBRANCH   5   6
ENDBRANCH   2   5
BRANCH   3  17
HETATM   17  C14 UNK     1      18.961   1.431  30.259  1.00  0.00     0.108 A 
HETATM   18  C15 UNK     1      19.622   0.470  29.603  1.00  0.00     0.037 A 
HETATM   19  C16 UNK     1      20.016  -0.749  30.291  1.00  0.00    -0.001 A 
HETATM   20  C18 UNK     1      19.692  -0.897  31.637  1.00  0.00     0.089 A 
HETATM   21  C19 UNK     1      20.708  -1.778  29.648  1.00  0.00     0.014 A 
HETATM   22  O1  UNK     1      18.995   0.119  32.321  1.00  0.00    -0.274 OA
HETATM   23  C20 UNK     1      20.040  -2.039  32.354  1.00  0.00     0.038 A 
HETATM   24  C17 UNK     1      18.606   1.296  31.689  1.00  0.00     0.304 A 
HETATM   25  O3  UNK     1      17.999   2.174  32.292  1.00  0.00    -0.259 OA
HETATM   26  C22 UNK     1      20.729  -3.062  31.704  1.00  0.00     0.003 A 
HETATM   27  C21 UNK     1      21.063  -2.931  30.354  1.00  0.00     0.001 A 
ENDBRANCH   3  17
TORSDOF 12
ENDMDL
MODEL 5
REMARK VINA RESULT:      -7.5      5.491      9.980
REMARK  12 active torsions:
REMARK  status: ('A' for Active; 'I' for Inactive)
REMARK    1  A    between atoms: C10_14  and  N1_4 
REMARK       I    between atoms: C13_17  and  N1_4 
REMARK    2  A    between atoms: C1_5  and  C2_6 
REMARK    3  A    between atoms: C1_5  and  C3_7 
REMARK    4  A    between atoms: C2_6  and  C4_8 
REMARK    5  A    between atoms: C3_7  and  C5_9 
REMARK    6  A    between atoms: C4_8  and  C6_10 
REMARK    7  A    between atoms: C5_9  and  C7_11 
REMARK    8  A    between atoms: C6_10  and  C8_12 
REMARK    9  A    between atoms: C7_11  and  C9_13 
REMARK   10  A    between atoms: C10_14  and  C8_12 
REMARK   11  A    between atoms: C11_15  and  C9_13 
REMARK   12  A    between atoms: C13_17  and  C14_18 
ROOT
HETATM    1  O2  UNK     1      21.239  -3.095  32.690  1.00  0.00    -0.267 OA
HETATM    2  N1  UNK     1      19.851  -1.702  31.436  1.00  0.00    -0.357 N 
HETATM    3  C13 UNK     1      20.347  -2.257  32.604  1.00  0.00     0.257 C 
HETATM    4  H26 UNK     1      19.110  -1.009  31.489  1.00  0.00     0.162 HD
ENDROOT
BRANCH   2   5
HETATM    5  C10 UNK     1      20.339  -2.054  30.131  1.00  0.00     0.123 C 
BRANCH   5   6
HETATM    6  C8  UNK     1      20.522  -0.837  29.231  1.00  0.00     0.020 C 
BRANCH   6   7
HETATM    7  C6  UNK     1      19.906   0.433  29.825  1.00  0.00     0.002 C 
BRANCH   7   8
HETATM    8  C4  UNK     1      18.782   0.974  28.937  1.00  0.00     0.000 C 
BRANCH   8   9
HETATM    9  C2  UNK     1      18.377   2.388  29.356  1.00  0.00     0.000 C 
BRANCH   9  10
HETATM   10  C1  UNK     1      18.183   2.544  30.867  1.00  0.00     0.000 C 
BRANCH  10  11
HETATM   11  C3  UNK     1      18.404   3.975  31.365  1.00  0.00     0.000 C 
BRANCH  11  12
HETATM   12  C5  UNK     1      19.296   4.763  30.400  1.00  0.00     0.000 C 
BRANCH  12  13
HETATM   13  C7  UNK     1      19.600   6.186  30.876  1.00  0.00     0.000 C 
BRANCH  13  14
HETATM   14  C9  UNK     1      18.959   6.528  32.223  1.00  0.00    -0.000 C 
BRANCH  14  15
HETATM   15  C11 UNK     1      20.001   7.041  33.217  1.00  0.00    -0.005 C 
HETATM   16  C12 UNK     1      19.345   7.640  34.451  1.00  0.00     0.005 C 
ENDBRANCH  14  15
ENDBRANCH  13  14
ENDBRANCH  12  13
ENDBRANCH  11  12
ENDBRANCH  10  11
ENDBRANCH   9  10
ENDBRANCH   8   9
ENDBRANCH   7   8
ENDBRANCH   6   7
ENDBRANCH   5   6
ENDBRANCH   2   5
BRANCH   3  17
HETATM   17  C14 UNK     1      19.688  -1.733  33.814  1.00  0.00     0.108 A 
HETATM   18  C15 UNK     1      18.475  -1.195  33.641  1.00  0.00     0.037 A 
HETATM   19  C16 UNK     1      17.745  -0.652  34.775  1.00  0.00    -0.001 A 
HETATM   20  C18 UNK     1      18.328  -0.702  36.038  1.00  0.00     0.089 A 
HETATM   21  C19 UNK     1      16.477  -0.082  34.642  1.00  0.00     0.014 A 
HETATM   22  O1  UNK     1      19.606  -1.270  36.213  1.00  0.00    -0.274 OA
HETATM   23  C20 UNK     1      17.683  -0.200  37.165  1.00  0.00     0.038 A 
HETATM   24  C17 UNK     1      20.328  -1.798  35.146  1.00  0.00     0.304 A 
HETATM   25  O3  UNK     1      21.440  -2.289  35.309  1.00  0.00    -0.259 OA
HETATM   26  C22 UNK     1      16.418   0.369  37.023  1.00  0.00     0.003 A 
HETATM   27  C21 UNK     1      15.816   0.427  35.764  1.00  0.00     0.001 A 
ENDBRANCH   3  17
TORSDOF 12
ENDMDL
MODEL 6
REMARK VINA RESULT:      -7.4      2.957      4.592
REMARK  12 active torsions:
REMARK  status: ('A' for Active; 'I' for Inactive)
REMARK    1  A    between atoms: C10_14  and  N1_4 
REMARK       I    between atoms: C13_17  and  N1_4 
REMARK    2  A    between atoms: C1_5  and  C2_6 
REMARK    3  A    between atoms: C1_5  and  C3_7 
REMARK    4  A    between atoms: C2_6  and  C4_8 
REMARK    5  A    between atoms: C3_7  and  C5_9 
REMARK    6  A    between atoms: C4_8  and  C6_10 
REMARK    7  A    between atoms: C5_9  and  C7_11 
REMARK    8  A    between atoms: C6_10  and  C8_12 
REMARK    9  A    between atoms: C7_11  and  C9_13 
REMARK   10  A    between atoms: C10_14  and  C8_12 
REMARK   11  A    between atoms: C11_15  and  C9_13 
REMARK   12  A    between atoms: C13_17  and  C14_18 
ROOT
HETATM    1  O2  UNK     1      17.219  -1.087  35.610  1.00  0.00    -0.267 OA
HETATM    2  N1  UNK     1      19.345  -2.045  35.621  1.00  0.00    -0.357 N 
HETATM    3  C13 UNK     1      18.311  -1.293  35.090  1.00  0.00     0.257 C 
HETATM    4  H26 UNK     1      20.210  -2.143  35.096  1.00  0.00     0.162 HD
ENDROOT
BRANCH   2   5
HETATM    5  C10 UNK     1      19.264  -2.701  36.897  1.00  0.00     0.123 C 
BRANCH   5   6
HETATM    6  C8  UNK     1      20.520  -3.502  37.220  1.00  0.00     0.020 C 
BRANCH   6   7
HETATM    7  C6  UNK     1      20.233  -4.993  37.422  1.00  0.00     0.002 C 
BRANCH   7   8
HETATM    8  C4  UNK     1      19.353  -5.546  36.298  1.00  0.00     0.000 C 
BRANCH   8   9
HETATM    9  C2  UNK     1      18.341  -6.559  36.835  1.00  0.00     0.000 C 
BRANCH   9  10
HETATM   10  C1  UNK     1      18.462  -7.942  36.188  1.00  0.00     0.000 C 
BRANCH  10  11
HETATM   11  C3  UNK     1      19.538  -8.823  36.831  1.00  0.00     0.000 C 
BRANCH  11  12
HETATM   12  C5  UNK     1      19.036  -9.435  38.142  1.00  0.00     0.000 C 
BRANCH  12  13
HETATM   13  C7  UNK     1      20.058  -9.356  39.281  1.00  0.00     0.000 C 
BRANCH  13  14
HETATM   14  C9  UNK     1      20.692  -7.972  39.435  1.00  0.00    -0.000 C 
BRANCH  14  15
HETATM   15  C11 UNK     1      22.152  -8.079  39.876  1.00  0.00    -0.005 C 
HETATM   16  C12 UNK     1      22.942  -6.838  39.493  1.00  0.00     0.005 C 
ENDBRANCH  14  15
ENDBRANCH  13  14
ENDBRANCH  12  13
ENDBRANCH  11  12
ENDBRANCH  10  11
ENDBRANCH   9  10
ENDBRANCH   8   9
ENDBRANCH   7   8
ENDBRANCH   6   7
ENDBRANCH   5   6
ENDBRANCH   2   5
BRANCH   3  17
HETATM   17  C14 UNK     1      18.635  -0.719  33.771  1.00  0.00     0.108 A 
HETATM   18  C15 UNK     1      19.204  -1.550  32.889  1.00  0.00     0.037 A 
HETATM   19  C16 UNK     1      19.561  -1.076  31.561  1.00  0.00    -0.001 A 
HETATM   20  C18 UNK     1      19.302   0.249  31.227  1.00  0.00     0.089 A 
HETATM   21  C19 UNK     1      20.155  -1.907  30.608  1.00  0.00     0.014 A 
HETATM   22  O1  UNK     1      18.702   1.118  32.160  1.00  0.00    -0.274 OA
HETATM   23  C20 UNK     1      19.619   0.766  29.973  1.00  0.00     0.038 A 
HETATM   24  C17 UNK     1      18.350   0.694  33.438  1.00  0.00     0.304 A 
HETATM   25  O3  UNK     1      17.830   1.457  34.244  1.00  0.00    -0.259 OA
HETATM   26  C22 UNK     1      20.213  -0.069  29.028  1.00  0.00     0.003 A 
HETATM   27  C21 UNK     1      20.480  -1.403  29.345  1.00  0.00     0.001 A 
ENDBRANCH   3  17
TORSDOF 12
ENDMDL
MODEL 7
REMARK VINA RESULT:      -7.4      2.962      4.748
REMARK  12 active torsions:
REMARK  status: ('A' for Active; 'I' for Inactive)
REMARK    1  A    between atoms: C10_14  and  N1_4 
REMARK       I    between atoms: C13_17  and  N1_4 
REMARK    2  A    between atoms: C1_5  and  C2_6 
REMARK    3  A    between atoms: C1_5  and  C3_7 
REMARK    4  A    between atoms: C2_6  and  C4_8 
REMARK    5  A    between atoms: C3_7  and  C5_9 
REMARK    6  A    between atoms: C4_8  and  C6_10 
REMARK    7  A    between atoms: C5_9  and  C7_11 
REMARK    8  A    between atoms: C6_10  and  C8_12 
REMARK    9  A    between atoms: C7_11  and  C9_13 
REMARK   10  A    between atoms: C10_14  and  C8_12 
REMARK   11  A    between atoms: C11_15  and  C9_13 
REMARK   12  A    between atoms: C13_17  and  C14_18 
ROOT
HETATM    1  O2  UNK     1      17.364  -0.749  35.755  1.00  0.00    -0.267 OA
HETATM    2  N1  UNK     1      19.239  -2.124  35.575  1.00  0.00    -0.357 N 
HETATM    3  C13 UNK     1      18.338  -1.167  35.138  1.00  0.00     0.257 C 
HETATM    4  H26 UNK     1      20.014  -2.389  34.975  1.00  0.00     0.162 HD
ENDROOT
BRANCH   2   5
HETATM    5  C10 UNK     1      19.139  -2.770  36.856  1.00  0.00     0.123 C 
BRANCH   5   6
HETATM    6  C8  UNK     1      20.235  -3.807  37.071  1.00  0.00     0.020 C 
BRANCH   6   7
HETATM    7  C6  UNK     1      19.849  -5.191  36.539  1.00  0.00     0.002 C 
BRANCH   7   8
HETATM    8  C4  UNK     1      20.822  -6.266  37.030  1.00  0.00     0.000 C 
BRANCH   8   9
HETATM    9  C2  UNK     1      21.201  -6.042  38.495  1.00  0.00     0.000 C 
BRANCH   9  10
HETATM   10  C1  UNK     1      21.003  -7.282  39.372  1.00  0.00     0.000 C 
BRANCH  10  11
HETATM   11  C3  UNK     1      19.783  -8.119  38.977  1.00  0.00     0.000 C 
BRANCH  11  12
HETATM   12  C5  UNK     1      19.993  -9.597  39.321  1.00  0.00     0.000 C 
BRANCH  12  13
HETATM   13  C7  UNK     1      19.830 -10.531  38.119  1.00  0.00     0.000 C 
BRANCH  13  14
HETATM   14  C9  UNK     1      20.111  -9.852  36.777  1.00  0.00    -0.000 C 
BRANCH  14  15
HETATM   15  C11 UNK     1      21.427 -10.342  36.174  1.00  0.00    -0.005 C 
HETATM   16  C12 UNK     1      22.595  -9.469  36.602  1.00  0.00     0.005 C 
ENDBRANCH  14  15
ENDBRANCH  13  14
ENDBRANCH  12  13
ENDBRANCH  11  12
ENDBRANCH  10  11
ENDBRANCH   9  10
ENDBRANCH   8   9
ENDBRANCH   7   8
ENDBRANCH   6   7
ENDBRANCH   5   6
ENDBRANCH   2   5
BRANCH   3  17
HETATM   17  C14 UNK     1      18.655  -0.651  33.794  1.00  0.00     0.108 A 
HETATM   18  C15 UNK     1      19.219  -1.519  32.945  1.00  0.00     0.037 A 
HETATM   19  C16 UNK     1      19.567  -1.104  31.596  1.00  0.00    -0.001 A 
HETATM   20  C18 UNK     1      19.305   0.206  31.206  1.00  0.00     0.089 A 
HETATM   21  C19 UNK     1      20.156  -1.975  30.676  1.00  0.00     0.014 A 
HETATM   22  O1  UNK     1      18.712   1.115  32.105  1.00  0.00    -0.274 OA
HETATM   23  C20 UNK     1      19.615   0.668  29.929  1.00  0.00     0.038 A 
HETATM   24  C17 UNK     1      18.367   0.746  33.402  1.00  0.00     0.304 A 
HETATM   25  O3  UNK     1      17.852   1.544  34.177  1.00  0.00    -0.259 OA
HETATM   26  C22 UNK     1      20.203  -0.208  29.018  1.00  0.00     0.003 A 
HETATM   27  C21 UNK     1      20.473  -1.527  29.391  1.00  0.00     0.001 A 
ENDBRANCH   3  17
TORSDOF 12
ENDMDL
MODEL 8
REMARK VINA RESULT:      -7.4      0.882      1.861
REMARK  12 active torsions:
REMARK  status: ('A' for Active; 'I' for Inactive)
REMARK    1  A    between atoms: C10_14  and  N1_4 
REMARK       I    between atoms: C13_17  and  N1_4 
REMARK    2  A    between atoms: C1_5  and  C2_6 
REMARK    3  A    between atoms: C1_5  and  C3_7 
REMARK    4  A    between atoms: C2_6  and  C4_8 
REMARK    5  A    between atoms: C3_7  and  C5_9 
REMARK    6  A    between atoms: C4_8  and  C6_10 
REMARK    7  A    between atoms: C5_9  and  C7_11 
REMARK    8  A    between atoms: C6_10  and  C8_12 
REMARK    9  A    between atoms: C7_11  and  C9_13 
REMARK   10  A    between atoms: C10_14  and  C8_12 
REMARK   11  A    between atoms: C11_15  and  C9_13 
REMARK   12  A    between atoms: C13_17  and  C14_18 
ROOT
HETATM    1  O2  UNK     1      20.873  -4.586  36.918  1.00  0.00    -0.267 OA
HETATM    2  N1  UNK     1      18.607  -5.024  36.579  1.00  0.00    -0.357 N 
HETATM    3  C13 UNK     1      19.737  -4.224  36.630  1.00  0.00     0.257 C 
HETATM    4  H26 UNK     1      17.716  -4.610  36.322  1.00  0.00     0.162 HD
ENDROOT
BRANCH   2   5
HETATM    5  C10 UNK     1      18.629  -6.431  36.869  1.00  0.00     0.123 C 
BRANCH   5   6
HETATM    6  C8  UNK     1      18.948  -7.273  35.638  1.00  0.00     0.020 C 
BRANCH   6   7
HETATM    7  C6  UNK     1      20.376  -7.827  35.658  1.00  0.00     0.002 C 
BRANCH   7   8
HETATM    8  C4  UNK     1      20.413  -9.247  36.228  1.00  0.00     0.000 C 
BRANCH   8   9
HETATM    9  C2  UNK     1      19.039  -9.670  36.752  1.00  0.00     0.000 C 
BRANCH   9  10
HETATM   10  C1  UNK     1      19.003  -9.875  38.269  1.00  0.00     0.000 C 
BRANCH  10  11
HETATM   11  C3  UNK     1      20.311  -9.493  38.968  1.00  0.00     0.000 C 
BRANCH  11  12
HETATM   12  C5  UNK     1      20.192  -8.128  39.652  1.00  0.00     0.000 C 
BRANCH  12  13
HETATM   13  C7  UNK     1      21.315  -7.157  39.274  1.00  0.00     0.000 C 
BRANCH  13  14
HETATM   14  C9  UNK     1      22.636  -7.449  39.987  1.00  0.00    -0.000 C 
BRANCH  14  15
HETATM   15  C11 UNK     1      23.809  -7.432  39.007  1.00  0.00    -0.005 C 
HETATM   16  C12 UNK     1      23.574  -8.378  37.840  1.00  0.00     0.005 C 
ENDBRANCH  14  15
ENDBRANCH  13  14
ENDBRANCH  12  13
ENDBRANCH  11  12
ENDBRANCH  10  11
ENDBRANCH   9  10
ENDBRANCH   8   9
ENDBRANCH   7   8
ENDBRANCH   6   7
ENDBRANCH   5   6
ENDBRANCH   2   5
BRANCH   3  17
HETATM   17  C14 UNK     1      19.460  -2.816  36.289  1.00  0.00     0.108 A 
HETATM   18  C15 UNK     1      18.726  -2.128  37.171  1.00  0.00     0.037 A 
HETATM   19  C16 UNK     1      18.400  -0.732  36.923  1.00  0.00    -0.001 A 
HETATM   20  C18 UNK     1      18.864  -0.130  35.757  1.00  0.00     0.089 A 
HETATM   21  C19 UNK     1      17.639   0.026  37.815  1.00  0.00     0.014 A 
HETATM   22  O1  UNK     1      19.636  -0.861  34.833  1.00  0.00    -0.274 OA
HETATM   23  C20 UNK     1      18.588   1.202  35.459  1.00  0.00     0.038 A 
HETATM   24  C17 UNK     1      19.964  -2.197  35.043  1.00  0.00     0.304 A 
HETATM   25  O3  UNK     1      20.636  -2.825  34.232  1.00  0.00    -0.259 OA
HETATM   26  C22 UNK     1      17.826   1.951  36.355  1.00  0.00     0.003 A 
HETATM   27  C21 UNK     1      17.352   1.363  37.530  1.00  0.00     0.001 A 
ENDBRANCH   3  17
TORSDOF 12
ENDMDL
MODEL 9
REMARK VINA RESULT:      -7.4      2.665      3.808
REMARK  12 active torsions:
REMARK  status: ('A' for Active; 'I' for Inactive)
REMARK    1  A    between atoms: C10_14  and  N1_4 
REMARK       I    between atoms: C13_17  and  N1_4 
REMARK    2  A    between atoms: C1_5  and  C2_6 
REMARK    3  A    between atoms: C1_5  and  C3_7 
REMARK    4  A    between atoms: C2_6  and  C4_8 
REMARK    5  A    between atoms: C3_7  and  C5_9 
REMARK    6  A    between atoms: C4_8  and  C6_10 
REMARK    7  A    between atoms: C5_9  and  C7_11 
REMARK    8  A    between atoms: C6_10  and  C8_12 
REMARK    9  A    between atoms: C7_11  and  C9_13 
REMARK   10  A    between atoms: C10_14  and  C8_12 
REMARK   11  A    between atoms: C11_15  and  C9_13 
REMARK   12  A    between atoms: C13_17  and  C14_18 
ROOT
HETATM    1  O2  UNK     1      21.423  -2.522  35.607  1.00  0.00    -0.267 OA
HETATM    2  N1  UNK     1      19.254  -3.379  35.569  1.00  0.00    -0.357 N 
HETATM    3  C13 UNK     1      20.301  -2.594  35.115  1.00  0.00     0.257 C 
HETATM    4  H26 UNK     1      18.366  -3.359  35.076  1.00  0.00     0.162 HD
ENDROOT
BRANCH   2   5
HETATM    5  C10 UNK     1      19.358  -4.239  36.716  1.00  0.00     0.123 C 
BRANCH   5   6
HETATM    6  C8  UNK     1      19.166  -5.709  36.360  1.00  0.00     0.020 C 
BRANCH   6   7
HETATM    7  C6  UNK     1      20.299  -6.255  35.485  1.00  0.00     0.002 C 
BRANCH   7   8
HETATM    8  C4  UNK     1      20.128  -7.755  35.228  1.00  0.00     0.000 C 
BRANCH   8   9
HETATM    9  C2  UNK     1      21.388  -8.530  35.618  1.00  0.00     0.000 C 
BRANCH   9  10
HETATM   10  C1  UNK     1      21.208 -10.050  35.566  1.00  0.00     0.000 C 
BRANCH  10  11
HETATM   11  C3  UNK     1      21.279 -10.720  36.941  1.00  0.00     0.000 C 
BRANCH  11  12
HETATM   12  C5  UNK     1      19.880 -10.923  37.528  1.00  0.00     0.000 C 
BRANCH  12  13
HETATM   13  C7  UNK     1      19.640 -10.135  38.819  1.00  0.00     0.000 C 
BRANCH  13  14
HETATM   14  C9  UNK     1      19.214  -8.686  38.577  1.00  0.00    -0.000 C 
BRANCH  14  15
HETATM   15  C11 UNK     1      20.040  -7.717  39.425  1.00  0.00    -0.005 C 
HETATM   16  C12 UNK     1      21.486  -8.173  39.540  1.00  0.00     0.005 C 
ENDBRANCH  14  15
ENDBRANCH  13  14
ENDBRANCH  12  13
ENDBRANCH  11  12
ENDBRANCH  10  11
ENDBRANCH   9  10
ENDBRANCH   8   9
ENDBRANCH   7   8
ENDBRANCH   6   7
ENDBRANCH   5   6
ENDBRANCH   2   5
BRANCH   3  17
HETATM   17  C14 UNK     1      19.950  -1.803  33.922  1.00  0.00     0.108 A 
HETATM   18  C15 UNK     1      20.520  -2.184  32.772  1.00  0.00     0.037 A 
HETATM   19  C16 UNK     1      20.236  -1.465  31.540  1.00  0.00    -0.001 A 
HETATM   20  C18 UNK     1      19.367  -0.379  31.579  1.00  0.00     0.089 A 
HETATM   21  C19 UNK     1      20.805  -1.828  30.317  1.00  0.00     0.014 A 
HETATM   22  O1  UNK     1      18.772   0.017  32.793  1.00  0.00    -0.274 OA
HETATM   23  C20 UNK     1      19.053   0.352  30.436  1.00  0.00     0.038 A 
HETATM   24  C17 UNK     1      19.024  -0.651  33.988  1.00  0.00     0.304 A 
HETATM   25  O3  UNK     1      18.502  -0.298  35.039  1.00  0.00    -0.259 OA
HETATM   26  C22 UNK     1      19.627  -0.016  29.220  1.00  0.00     0.003 A 
HETATM   27  C21 UNK     1      20.501  -1.105  29.161  1.00  0.00     0.001 A 
ENDBRANCH   3  17
TORSDOF 12
ENDMDL
MODEL 10
REMARK VINA RESULT:      -7.4      7.794     13.605
REMARK  12 active torsions:
REMARK  status: ('A' for Active; 'I' for Inactive)
REMARK    1  A    between atoms: C10_14  and  N1_4 
REMARK       I    between atoms: C13_17  and  N1_4 
REMARK    2  A    between atoms: C1_5  and  C2_6 
REMARK    3  A    between atoms: C1_5  and  C3_7 
REMARK    4  A    between atoms: C2_6  and  C4_8 
REMARK    5  A    between atoms: C3_7  and  C5_9 
REMARK    6  A    between atoms: C4_8  and  C6_10 
REMARK    7  A    between atoms: C5_9  and  C7_11 
REMARK    8  A    between atoms: C6_10  and  C8_12 
REMARK    9  A    between atoms: C7_11  and  C9_13 
REMARK   10  A    between atoms: C10_14  and  C8_12 
REMARK   11  A    between atoms: C11_15  and  C9_13 
REMARK   12  A    between atoms: C13_17  and  C14_18 
ROOT
HETATM    1  O2  UNK     1      17.476   3.503  31.734  1.00  0.00    -0.267 OA
HETATM    2  N1  UNK     1      19.262   4.426  30.550  1.00  0.00    -0.357 N 
HETATM    3  C13 UNK     1      18.440   3.398  30.982  1.00  0.00     0.257 C 
HETATM    4  H26 UNK     1      20.032   4.217  29.922  1.00  0.00     0.162 HD
ENDROOT
BRANCH   2   5
HETATM    5  C10 UNK     1      19.077   5.796  30.943  1.00  0.00     0.123 C 
BRANCH   5   6
HETATM    6  C8  UNK     1      20.189   6.292  31.860  1.00  0.00     0.020 C 
BRANCH   6   7
HETATM    7  C6  UNK     1      19.809   6.219  33.341  1.00  0.00     0.002 C 
BRANCH   7   8
HETATM    8  C4  UNK     1      19.589   7.615  33.929  1.00  0.00     0.000 C 
BRANCH   8   9
HETATM    9  C2  UNK     1      18.113   7.852  34.256  1.00  0.00     0.000 C 
BRANCH   9  10
HETATM   10  C1  UNK     1      17.317   8.443  33.089  1.00  0.00     0.000 C 
BRANCH  10  11
HETATM   11  C3  UNK     1      16.320   7.458  32.472  1.00  0.00     0.000 C 
BRANCH  11  12
HETATM   12  C5  UNK     1      14.893   8.013  32.526  1.00  0.00     0.000 C 
BRANCH  12  13
HETATM   13  C7  UNK     1      14.433   8.374  33.941  1.00  0.00     0.000 C 
BRANCH  13  14
HETATM   14  C9  UNK     1      14.137   9.864  34.123  1.00  0.00    -0.000 C 
BRANCH  14  15
HETATM   15  C11 UNK     1      14.948  10.451  35.279  1.00  0.00    -0.005 C 
HETATM   16  C12 UNK     1      15.982  11.449  34.783  1.00  0.00     0.005 C 
ENDBRANCH  14  15
ENDBRANCH  13  14
ENDBRANCH  12  13
ENDBRANCH  11  12
ENDBRANCH  10  11
ENDBRANCH   9  10
ENDBRANCH   8   9
ENDBRANCH   7   8
ENDBRANCH   6   7
ENDBRANCH   5   6
ENDBRANCH   2   5
BRANCH   3  17
HETATM   17  C14 UNK     1      18.830   2.083  30.440  1.00  0.00     0.108 A 
HETATM   18  C15 UNK     1      19.366   1.220  31.311  1.00  0.00     0.037 A 
HETATM   19  C16 UNK     1      19.782  -0.103  30.871  1.00  0.00    -0.001 A 
HETATM   20  C18 UNK     1      19.615  -0.450  29.534  1.00  0.00     0.089 A 
HETATM   21  C19 UNK     1      20.344  -1.037  31.744  1.00  0.00     0.014 A 
HETATM   22  O1  UNK     1      19.051   0.464  28.622  1.00  0.00    -0.274 OA
HETATM   23  C20 UNK     1      19.992  -1.700  29.047  1.00  0.00     0.038 A 
HETATM   24  C17 UNK     1      18.643   1.736  29.014  1.00  0.00     0.304 A 
HETATM   25  O3  UNK     1      18.154   2.525  28.213  1.00  0.00    -0.259 OA
HETATM   26  C22 UNK     1      20.553  -2.625  29.926  1.00  0.00     0.003 A 
HETATM   27  C21 UNK     1      20.728  -2.294  31.271  1.00  0.00     0.001 A 
ENDBRANCH   3  17
TORSDOF 12
ENDMDL
