MODEL 1
REMARK VINA RESULT:      -7.6      0.000      0.000
REMARK  4 active torsions:
REMARK  status: ('A' for Active; 'I' for Inactive)
REMARK    1  A    between atoms: C8_13  and  O2_2 
REMARK    2  A    between atoms: C9_14  and  O3_3 
REMARK    3  A    between atoms: C15_20  and  O5_5 
REMARK    4  A    between atoms: C2_7  and  C5_10 
ROOT
HETATM    1  O1  UNK     1      18.837   4.569  29.623  1.00  0.00    -0.321 OA
HETATM    2  O4  UNK     1      17.889   4.273  33.580  1.00  0.00    -0.286 OA
HETATM    3  C1  UNK     1      18.506   3.183  31.588  1.00  0.00     0.052 A 
HETATM    4  C2  UNK     1      18.250   5.686  31.699  1.00  0.00     0.048 A 
HETATM    5  C3  UNK     1      18.811   3.343  30.237  1.00  0.00     0.092 A 
HETATM    6  C4  UNK     1      18.192   4.374  32.399  1.00  0.00     0.198 A 
HETATM    7  C6  UNK     1      18.495   1.908  32.160  1.00  0.00     0.058 A 
HETATM    8  C7  UNK     1      19.108   2.229  29.450  1.00  0.00     0.077 A 
HETATM    9  C8  UNK     1      18.792   0.796  31.371  1.00  0.00     0.102 A 
HETATM   10  C9  UNK     1      19.097   0.956  30.018  1.00  0.00     0.104 A 
HETATM   11  C10 UNK     1      18.563   5.673  30.394  1.00  0.00     0.159 A 
ENDROOT
BRANCH   4  12
HETATM   12  C5  UNK     1      17.996   6.956  32.399  1.00  0.00    -0.020 A 
HETATM   13  C11 UNK     1      16.777   7.615  32.237  1.00  0.00     0.015 A 
HETATM   14  C13 UNK     1      16.537   8.817  32.903  1.00  0.00     0.037 A 
HETATM   15  C15 UNK     1      17.517   9.363  33.732  1.00  0.00     0.068 A 
HETATM   16  C14 UNK     1      18.737   8.707  33.895  1.00  0.00     0.037 A 
HETATM   17  C12 UNK     1      18.976   7.503  33.230  1.00  0.00     0.015 A 
BRANCH  15  18
HETATM   18  O5  UNK     1      17.283  10.536  34.381  1.00  0.00    -0.356 OA
HETATM   19  C18 UNK     1      18.181  11.614  34.118  1.00  0.00     0.210 C 
ENDBRANCH  15  18
ENDBRANCH   4  12
BRANCH   9  20
HETATM   20  O2  UNK     1      18.780  -0.445  31.934  1.00  0.00    -0.353 OA
HETATM   21  C16 UNK     1      18.538  -0.518  33.337  1.00  0.00     0.210 C 
ENDBRANCH   9  20
BRANCH  10  22
HETATM   22  O3  UNK     1      19.390  -0.125  29.244  1.00  0.00    -0.353 OA
HETATM   23  C17 UNK     1      20.758  -0.525  29.181  1.00  0.00     0.210 C 
ENDBRANCH  10  22
TORSDOF 4
ENDMDL
MODEL 2
REMARK VINA RESULT:      -7.6     13.706     18.189
REMARK  4 active torsions:
REMARK  status: ('A' for Active; 'I' for Inactive)
REMARK    1  A    between atoms: C8_13  and  O2_2 
REMARK    2  A    between atoms: C9_14  and  O3_3 
REMARK    3  A    between atoms: C15_20  and  O5_5 
REMARK    4  A    between atoms: C2_7  and  C5_10 
ROOT
HETATM    1  O1  UNK     1      18.313  -1.275  17.988  1.00  0.00    -0.321 OA
HETATM    2  O4  UNK     1      19.605   1.009  14.863  1.00  0.00    -0.286 OA
HETATM    3  C1  UNK     1      19.117   0.861  17.161  1.00  0.00     0.052 A 
HETATM    4  C2  UNK     1      18.869  -1.122  15.628  1.00  0.00     0.048 A 
HETATM    5  C3  UNK     1      18.659   0.037  18.188  1.00  0.00     0.092 A 
HETATM    6  C4  UNK     1      19.235   0.310  15.798  1.00  0.00     0.198 A 
HETATM    7  C6  UNK     1      19.454   2.191  17.424  1.00  0.00     0.058 A 
HETATM    8  C7  UNK     1      18.535   0.538  19.485  1.00  0.00     0.077 A 
HETATM    9  C8  UNK     1      19.330   2.690  18.722  1.00  0.00     0.102 A 
HETATM   10  C9  UNK     1      18.871   1.865  19.750  1.00  0.00     0.104 A 
HETATM   11  C10 UNK     1      18.448  -1.782  16.718  1.00  0.00     0.159 A 
ENDROOT
BRANCH   4  12
HETATM   12  C5  UNK     1      18.978  -1.806  14.329  1.00  0.00    -0.020 A 
HETATM   13  C11 UNK     1      19.171  -1.067  13.161  1.00  0.00     0.015 A 
HETATM   14  C13 UNK     1      19.276  -1.715  11.931  1.00  0.00     0.037 A 
HETATM   15  C15 UNK     1      19.187  -3.106  11.866  1.00  0.00     0.068 A 
HETATM   16  C14 UNK     1      18.993  -3.847  13.031  1.00  0.00     0.037 A 
HETATM   17  C12 UNK     1      18.889  -3.198  14.262  1.00  0.00     0.015 A 
BRANCH  15  18
HETATM   18  O5  UNK     1      19.288  -3.739  10.665  1.00  0.00    -0.356 OA
HETATM   19  C18 UNK     1      20.172  -3.165   9.702  1.00  0.00     0.210 C 
ENDBRANCH  15  18
ENDBRANCH   4  12
BRANCH   9  20
HETATM   20  O2  UNK     1      19.661   3.988  18.974  1.00  0.00    -0.353 OA
HETATM   21  C16 UNK     1      20.929   4.437  18.498  1.00  0.00     0.210 C 
ENDBRANCH   9  20
BRANCH  10  22
HETATM   22  O3  UNK     1      18.749   2.345  21.019  1.00  0.00    -0.353 OA
HETATM   23  C17 UNK     1      19.851   2.132  21.900  1.00  0.00     0.210 C 
ENDBRANCH  10  22
TORSDOF 4
ENDMDL
MODEL 3
REMARK VINA RESULT:      -7.6      1.660      8.451
REMARK  4 active torsions:
REMARK  status: ('A' for Active; 'I' for Inactive)
REMARK    1  A    between atoms: C8_13  and  O2_2 
REMARK    2  A    between atoms: C9_14  and  O3_3 
REMARK    3  A    between atoms: C15_20  and  O5_5 
REMARK    4  A    between atoms: C2_7  and  C5_10 
ROOT
HETATM    1  O1  UNK     1      19.510   8.168  33.552  1.00  0.00    -0.321 OA
HETATM    2  O4  UNK     1      15.994   6.540  32.271  1.00  0.00    -0.286 OA
HETATM    3  C1  UNK     1      17.124   8.399  33.171  1.00  0.00     0.052 A 
HETATM    4  C2  UNK     1      18.341   6.275  32.577  1.00  0.00     0.048 A 
HETATM    5  C3  UNK     1      18.351   8.899  33.604  1.00  0.00     0.092 A 
HETATM    6  C4  UNK     1      17.057   7.027  32.634  1.00  0.00     0.198 A 
HETATM    7  C6  UNK     1      15.975   9.191  33.248  1.00  0.00     0.058 A 
HETATM    8  C7  UNK     1      18.437  10.194  34.119  1.00  0.00     0.077 A 
HETATM    9  C8  UNK     1      16.063  10.485  33.763  1.00  0.00     0.102 A 
HETATM   10  C9  UNK     1      17.292  10.985  34.198  1.00  0.00     0.104 A 
HETATM   11  C10 UNK     1      19.439   6.898  33.031  1.00  0.00     0.159 A 
ENDROOT
BRANCH   4  12
HETATM   12  C5  UNK     1      18.421   4.911  32.028  1.00  0.00    -0.020 A 
HETATM   13  C11 UNK     1      18.136   3.811  32.839  1.00  0.00     0.015 A 
HETATM   14  C13 UNK     1      18.210   2.520  32.319  1.00  0.00     0.037 A 
HETATM   15  C15 UNK     1      18.572   2.325  30.986  1.00  0.00     0.068 A 
HETATM   16  C14 UNK     1      18.859   3.422  30.173  1.00  0.00     0.037 A 
HETATM   17  C12 UNK     1      18.783   4.715  30.694  1.00  0.00     0.015 A 
BRANCH  15  18
HETATM   18  O5  UNK     1      18.646   1.064  30.478  1.00  0.00    -0.356 OA
HETATM   19  C18 UNK     1      19.107   0.932  29.134  1.00  0.00     0.210 C 
ENDBRANCH  15  18
ENDBRANCH   4  12
BRANCH   9  20
HETATM   20  O2  UNK     1      14.940  11.254  33.836  1.00  0.00    -0.353 OA
HETATM   21  C16 UNK     1      13.772  10.757  33.186  1.00  0.00     0.210 C 
ENDBRANCH   9  20
BRANCH  10  22
HETATM   22  O3  UNK     1      17.385  12.248  34.699  1.00  0.00    -0.353 OA
HETATM   23  C17 UNK     1      17.946  13.244  33.845  1.00  0.00     0.210 C 
ENDBRANCH  10  22
TORSDOF 4
ENDMDL
MODEL 4
REMARK VINA RESULT:      -7.6      2.164      8.863
REMARK  4 active torsions:
REMARK  status: ('A' for Active; 'I' for Inactive)
REMARK    1  A    between atoms: C8_13  and  O2_2 
REMARK    2  A    between atoms: C9_14  and  O3_3 
REMARK    3  A    between atoms: C15_20  and  O5_5 
REMARK    4  A    between atoms: C2_7  and  C5_10 
ROOT
HETATM    1  O1  UNK     1      18.385   9.070  33.918  1.00  0.00    -0.321 OA
HETATM    2  O4  UNK     1      15.475   7.380  31.610  1.00  0.00    -0.286 OA
HETATM    3  C1  UNK     1      16.133   9.150  33.016  1.00  0.00     0.052 A 
HETATM    4  C2  UNK     1      17.710   7.277  32.425  1.00  0.00     0.048 A 
HETATM    5  C3  UNK     1      17.159   9.675  33.799  1.00  0.00     0.092 A 
HETATM    6  C4  UNK     1      16.360   7.890  32.284  1.00  0.00     0.198 A 
HETATM    7  C6  UNK     1      14.904   9.810  32.932  1.00  0.00     0.058 A 
HETATM    8  C7  UNK     1      16.964  10.864  34.503  1.00  0.00     0.077 A 
HETATM    9  C8  UNK     1      14.711  10.999  33.637  1.00  0.00     0.102 A 
HETATM   10  C9  UNK     1      15.739  11.525  34.422  1.00  0.00     0.104 A 
HETATM   11  C10 UNK     1      18.592   7.908  33.214  1.00  0.00     0.159 A 
ENDROOT
BRANCH   4  12
HETATM   12  C5  UNK     1      18.082   6.041  31.718  1.00  0.00    -0.020 A 
HETATM   13  C11 UNK     1      18.725   6.106  30.481  1.00  0.00     0.015 A 
HETATM   14  C13 UNK     1      19.079   4.934  29.812  1.00  0.00     0.037 A 
HETATM   15  C15 UNK     1      18.789   3.694  30.379  1.00  0.00     0.068 A 
HETATM   16  C14 UNK     1      18.145   3.625  31.615  1.00  0.00     0.037 A 
HETATM   17  C12 UNK     1      17.792   4.798  32.284  1.00  0.00     0.015 A 
BRANCH  15  18
HETATM   18  O5  UNK     1      19.134   2.550  29.727  1.00  0.00    -0.356 OA
HETATM   19  C18 UNK     1      18.141   1.956  28.890  1.00  0.00     0.210 C 
ENDBRANCH  15  18
ENDBRANCH   4  12
BRANCH   9  20
HETATM   20  O2  UNK     1      13.511  11.640  33.552  1.00  0.00    -0.353 OA
HETATM   21  C16 UNK     1      13.198  12.265  32.309  1.00  0.00     0.210 C 
ENDBRANCH   9  20
BRANCH  10  22
HETATM   22  O3  UNK     1      15.558  12.686  35.110  1.00  0.00    -0.353 OA
HETATM   23  C17 UNK     1      16.704  13.247  35.747  1.00  0.00     0.210 C 
ENDBRANCH  10  22
TORSDOF 4
ENDMDL
MODEL 5
REMARK VINA RESULT:      -7.5      1.326      2.601
REMARK  4 active torsions:
REMARK  status: ('A' for Active; 'I' for Inactive)
REMARK    1  A    between atoms: C8_13  and  O2_2 
REMARK    2  A    between atoms: C9_14  and  O3_3 
REMARK    3  A    between atoms: C15_20  and  O5_5 
REMARK    4  A    between atoms: C2_7  and  C5_10 
ROOT
HETATM    1  O1  UNK     1      18.298   2.156  33.491  1.00  0.00    -0.321 OA
HETATM    2  O4  UNK     1      18.772   4.495  30.182  1.00  0.00    -0.286 OA
HETATM    3  C1  UNK     1      18.884   2.350  31.144  1.00  0.00     0.052 A 
HETATM    4  C2  UNK     1      18.138   4.355  32.473  1.00  0.00     0.048 A 
HETATM    5  C3  UNK     1      18.716   1.602  32.308  1.00  0.00     0.092 A 
HETATM    6  C4  UNK     1      18.608   3.798  31.175  1.00  0.00     0.198 A 
HETATM    7  C6  UNK     1      19.312   1.731  29.966  1.00  0.00     0.058 A 
HETATM    8  C7  UNK     1      18.975   0.231  32.302  1.00  0.00     0.077 A 
HETATM    9  C8  UNK     1      19.571   0.360  29.963  1.00  0.00     0.102 A 
HETATM   10  C9  UNK     1      19.403  -0.389  31.129  1.00  0.00     0.104 A 
HETATM   11  C10 UNK     1      18.024   3.502  33.502  1.00  0.00     0.159 A 
ENDROOT
BRANCH   4  12
HETATM   12  C5  UNK     1      17.790   5.777  32.631  1.00  0.00    -0.020 A 
HETATM   13  C11 UNK     1      16.501   6.222  32.332  1.00  0.00     0.015 A 
HETATM   14  C13 UNK     1      16.172   7.569  32.484  1.00  0.00     0.037 A 
HETATM   15  C15 UNK     1      17.133   8.474  32.934  1.00  0.00     0.068 A 
HETATM   16  C14 UNK     1      18.422   8.033  33.232  1.00  0.00     0.037 A 
HETATM   17  C12 UNK     1      18.750   6.685  33.081  1.00  0.00     0.015 A 
BRANCH  15  18
HETATM   18  O5  UNK     1      16.812   9.788  33.081  1.00  0.00    -0.356 OA
HETATM   19  C18 UNK     1      17.453  10.499  34.140  1.00  0.00     0.210 C 
ENDBRANCH  15  18
ENDBRANCH   4  12
BRANCH   9  20
HETATM   20  O2  UNK     1      19.988  -0.239  28.812  1.00  0.00    -0.353 OA
HETATM   21  C16 UNK     1      18.990  -0.526  27.833  1.00  0.00     0.210 C 
ENDBRANCH   9  20
BRANCH  10  22
HETATM   22  O3  UNK     1      19.651  -1.728  31.131  1.00  0.00    -0.353 OA
HETATM   23  C17 UNK     1      20.753  -2.181  31.916  1.00  0.00     0.210 C 
ENDBRANCH  10  22
TORSDOF 4
ENDMDL
MODEL 6
REMARK VINA RESULT:      -7.3      5.367     11.177
REMARK  4 active torsions:
REMARK  status: ('A' for Active; 'I' for Inactive)
REMARK    1  A    between atoms: C8_13  and  O2_2 
REMARK    2  A    between atoms: C9_14  and  O3_3 
REMARK    3  A    between atoms: C15_20  and  O5_5 
REMARK    4  A    between atoms: C2_7  and  C5_10 
ROOT
HETATM    1  O1  UNK     1      18.490  -1.342  36.841  1.00  0.00    -0.321 OA
HETATM    2  O4  UNK     1      20.485  -3.697  34.172  1.00  0.00    -0.286 OA
HETATM    3  C1  UNK     1      19.299  -1.706  34.581  1.00  0.00     0.052 A 
HETATM    4  C2  UNK     1      19.761  -3.369  36.416  1.00  0.00     0.048 A 
HETATM    5  C3  UNK     1      18.619  -0.948  35.533  1.00  0.00     0.092 A 
HETATM    6  C4  UNK     1      19.906  -2.988  34.984  1.00  0.00     0.198 A 
HETATM    7  C6  UNK     1      19.397  -1.254  33.263  1.00  0.00     0.058 A 
HETATM    8  C7  UNK     1      18.033   0.266  35.173  1.00  0.00     0.077 A 
HETATM    9  C8  UNK     1      18.811  -0.039  32.905  1.00  0.00     0.102 A 
HETATM   10  C9  UNK     1      18.130   0.720  33.858  1.00  0.00     0.104 A 
HETATM   11  C10 UNK     1      19.079  -2.528  37.209  1.00  0.00     0.159 A 
ENDROOT
BRANCH   4  12
HETATM   12  C5  UNK     1      20.352  -4.603  36.958  1.00  0.00    -0.020 A 
HETATM   13  C11 UNK     1      21.443  -4.536  37.825  1.00  0.00     0.015 A 
HETATM   14  C13 UNK     1      22.001  -5.707  38.340  1.00  0.00     0.037 A 
HETATM   15  C15 UNK     1      21.470  -6.947  37.987  1.00  0.00     0.068 A 
HETATM   16  C14 UNK     1      20.379  -7.016  37.119  1.00  0.00     0.037 A 
HETATM   17  C12 UNK     1      19.820  -5.845  36.606  1.00  0.00     0.015 A 
BRANCH  15  18
HETATM   18  O5  UNK     1      22.015  -8.088  38.488  1.00  0.00    -0.356 OA
HETATM   19  C18 UNK     1      22.444  -8.059  39.850  1.00  0.00     0.210 C 
ENDBRANCH  15  18
ENDBRANCH   4  12
BRANCH   9  20
HETATM   20  O2  UNK     1      18.911   0.399  31.618  1.00  0.00    -0.353 OA
HETATM   21  C16 UNK     1      20.034  -0.055  30.865  1.00  0.00     0.210 C 
ENDBRANCH   9  20
BRANCH  10  22
HETATM   22  O3  UNK     1      17.558   1.907  33.516  1.00  0.00    -0.353 OA
HETATM   23  C17 UNK     1      18.230   3.094  33.933  1.00  0.00     0.210 C 
ENDBRANCH  10  22
TORSDOF 4
ENDMDL
MODEL 7
REMARK VINA RESULT:      -7.2      1.158      2.709
REMARK  4 active torsions:
REMARK  status: ('A' for Active; 'I' for Inactive)
REMARK    1  A    between atoms: C8_13  and  O2_2 
REMARK    2  A    between atoms: C9_14  and  O3_3 
REMARK    3  A    between atoms: C15_20  and  O5_5 
REMARK    4  A    between atoms: C2_7  and  C5_10 
ROOT
HETATM    1  O1  UNK     1      18.148   3.677  34.050  1.00  0.00    -0.321 OA
HETATM    2  O4  UNK     1      18.392   6.114  30.786  1.00  0.00    -0.286 OA
HETATM    3  C1  UNK     1      18.464   3.928  31.656  1.00  0.00     0.052 A 
HETATM    4  C2  UNK     1      18.025   5.922  33.131  1.00  0.00     0.048 A 
HETATM    5  C3  UNK     1      18.382   3.145  32.807  1.00  0.00     0.092 A 
HETATM    6  C4  UNK     1      18.297   5.388  31.768  1.00  0.00     0.198 A 
HETATM    7  C6  UNK     1      18.706   3.331  30.416  1.00  0.00     0.058 A 
HETATM    8  C7  UNK     1      18.542   1.761  32.725  1.00  0.00     0.077 A 
HETATM    9  C8  UNK     1      18.864   1.947  30.336  1.00  0.00     0.102 A 
HETATM   10  C9  UNK     1      18.783   1.163  31.489  1.00  0.00     0.104 A 
HETATM   11  C10 UNK     1      17.973   5.037  34.138  1.00  0.00     0.159 A 
ENDROOT
BRANCH   4  12
HETATM   12  C5  UNK     1      17.800   7.356  33.376  1.00  0.00    -0.020 A 
HETATM   13  C11 UNK     1      18.859   8.174  33.774  1.00  0.00     0.015 A 
HETATM   14  C13 UNK     1      18.646   9.533  34.005  1.00  0.00     0.037 A 
HETATM   15  C15 UNK     1      17.372  10.077  33.840  1.00  0.00     0.068 A 
HETATM   16  C14 UNK     1      16.312   9.261  33.443  1.00  0.00     0.037 A 
HETATM   17  C12 UNK     1      16.526   7.902  33.211  1.00  0.00     0.015 A 
BRANCH  15  18
HETATM   18  O5  UNK     1      17.164  11.402  34.066  1.00  0.00    -0.356 OA
HETATM   19  C18 UNK     1      18.321  12.224  34.220  1.00  0.00     0.210 C 
ENDBRANCH  15  18
ENDBRANCH   4  12
BRANCH   9  20
HETATM   20  O2  UNK     1      19.098   1.369  29.124  1.00  0.00    -0.353 OA
HETATM   21  C16 UNK     1      17.975   1.195  28.262  1.00  0.00     0.210 C 
ENDBRANCH   9  20
BRANCH  10  22
HETATM   22  O3  UNK     1      18.934  -0.188  31.417  1.00  0.00    -0.353 OA
HETATM   23  C17 UNK     1      18.875  -0.912  32.645  1.00  0.00     0.210 C 
ENDBRANCH  10  22
TORSDOF 4
ENDMDL
MODEL 8
REMARK VINA RESULT:      -7.2     13.484     18.092
REMARK  4 active torsions:
REMARK  status: ('A' for Active; 'I' for Inactive)
REMARK    1  A    between atoms: C8_13  and  O2_2 
REMARK    2  A    between atoms: C9_14  and  O3_3 
REMARK    3  A    between atoms: C15_20  and  O5_5 
REMARK    4  A    between atoms: C2_7  and  C5_10 
ROOT
HETATM    1  O1  UNK     1      19.559   1.119  15.099  1.00  0.00    -0.321 OA
HETATM    2  O4  UNK     1      18.390  -1.864  17.626  1.00  0.00    -0.286 OA
HETATM    3  C1  UNK     1      18.960   0.401  17.339  1.00  0.00     0.052 A 
HETATM    4  C2  UNK     1      18.919  -1.205  15.400  1.00  0.00     0.048 A 
HETATM    5  C3  UNK     1      19.369   1.378  16.433  1.00  0.00     0.092 A 
HETATM    6  C4  UNK     1      18.721  -0.971  16.857  1.00  0.00     0.198 A 
HETATM    7  C6  UNK     1      18.783   0.723  18.688  1.00  0.00     0.058 A 
HETATM    8  C7  UNK     1      19.604   2.683  16.869  1.00  0.00     0.077 A 
HETATM    9  C8  UNK     1      19.018   2.029  19.121  1.00  0.00     0.102 A 
HETATM   10  C9  UNK     1      19.429   3.007  18.214  1.00  0.00     0.104 A 
HETATM   11  C10 UNK     1      19.313  -0.159  14.658  1.00  0.00     0.159 A 
ENDROOT
BRANCH   4  12
HETATM   12  C5  UNK     1      18.678  -2.519  14.781  1.00  0.00    -0.020 A 
HETATM   13  C11 UNK     1      19.194  -2.804  13.516  1.00  0.00     0.015 A 
HETATM   14  C13 UNK     1      18.967  -4.050  12.931  1.00  0.00     0.037 A 
HETATM   15  C15 UNK     1      18.221  -5.013  13.610  1.00  0.00     0.068 A 
HETATM   16  C14 UNK     1      17.704  -4.731  14.875  1.00  0.00     0.037 A 
HETATM   17  C12 UNK     1      17.932  -3.485  15.460  1.00  0.00     0.015 A 
BRANCH  15  18
HETATM   18  O5  UNK     1      17.999  -6.228  13.039  1.00  0.00    -0.356 OA
HETATM   19  C18 UNK     1      17.038  -7.075  13.669  1.00  0.00     0.210 C 
ENDBRANCH  15  18
ENDBRANCH   4  12
BRANCH   9  20
HETATM   20  O2  UNK     1      18.843   2.339  20.437  1.00  0.00    -0.353 OA
HETATM   21  C16 UNK     1      19.880   1.951  21.336  1.00  0.00     0.210 C 
ENDBRANCH   9  20
BRANCH  10  22
HETATM   22  O3  UNK     1      19.658   4.283  18.630  1.00  0.00    -0.353 OA
HETATM   23  C17 UNK     1      20.964   4.812  18.407  1.00  0.00     0.210 C 
ENDBRANCH  10  22
TORSDOF 4
ENDMDL
MODEL 9
REMARK VINA RESULT:      -7.1     15.089     16.807
REMARK  4 active torsions:
REMARK  status: ('A' for Active; 'I' for Inactive)
REMARK    1  A    between atoms: C8_13  and  O2_2 
REMARK    2  A    between atoms: C9_14  and  O3_3 
REMARK    3  A    between atoms: C15_20  and  O5_5 
REMARK    4  A    between atoms: C2_7  and  C5_10 
ROOT
HETATM    1  O1  UNK     1      27.412  -9.034  38.472  1.00  0.00    -0.321 OA
HETATM    2  O4  UNK     1      25.272  -5.572  38.773  1.00  0.00    -0.286 OA
HETATM    3  C1  UNK     1      27.379  -6.611  38.620  1.00  0.00     0.052 A 
HETATM    4  C2  UNK     1      25.243  -7.945  38.579  1.00  0.00     0.048 A 
HETATM    5  C3  UNK     1      28.058  -7.825  38.528  1.00  0.00     0.092 A 
HETATM    6  C4  UNK     1      25.905  -6.614  38.662  1.00  0.00     0.198 A 
HETATM    7  C6  UNK     1      28.091  -5.409  38.674  1.00  0.00     0.058 A 
HETATM    8  C7  UNK     1      29.453  -7.845  38.490  1.00  0.00     0.077 A 
HETATM    9  C8  UNK     1      29.486  -5.432  38.636  1.00  0.00     0.102 A 
HETATM   10  C9  UNK     1      30.166  -6.648  38.545  1.00  0.00     0.104 A 
HETATM   11  C10 UNK     1      26.038  -9.022  38.491  1.00  0.00     0.159 A 
ENDROOT
BRANCH   4  12
HETATM   12  C5  UNK     1      23.778  -8.088  38.572  1.00  0.00    -0.020 A 
HETATM   13  C11 UNK     1      23.043  -7.829  39.730  1.00  0.00     0.015 A 
HETATM   14  C13 UNK     1      21.654  -7.963  39.722  1.00  0.00     0.037 A 
HETATM   15  C15 UNK     1      20.998  -8.358  38.556  1.00  0.00     0.068 A 
HETATM   16  C14 UNK     1      21.731  -8.617  37.398  1.00  0.00     0.037 A 
HETATM   17  C12 UNK     1      23.120  -8.482  37.406  1.00  0.00     0.015 A 
BRANCH  15  18
HETATM   18  O5  UNK     1      19.644  -8.489  38.549  1.00  0.00    -0.356 OA
HETATM   19  C18 UNK     1      19.104  -9.610  37.850  1.00  0.00     0.210 C 
ENDBRANCH  15  18
ENDBRANCH   4  12
BRANCH   9  20
HETATM   20  O2  UNK     1      30.175  -4.258  38.688  1.00  0.00    -0.353 OA
HETATM   21  C16 UNK     1      30.539  -3.664  37.443  1.00  0.00     0.210 C 
ENDBRANCH   9  20
BRANCH  10  22
HETATM   22  O3  UNK     1      31.527  -6.677  38.504  1.00  0.00    -0.353 OA
HETATM   23  C17 UNK     1      32.143  -7.951  38.330  1.00  0.00     0.210 C 
ENDBRANCH  10  22
TORSDOF 4
ENDMDL
MODEL 10
REMARK VINA RESULT:      -7.0     14.734     16.831
REMARK  4 active torsions:
REMARK  status: ('A' for Active; 'I' for Inactive)
REMARK    1  A    between atoms: C8_13  and  O2_2 
REMARK    2  A    between atoms: C9_14  and  O3_3 
REMARK    3  A    between atoms: C15_20  and  O5_5 
REMARK    4  A    between atoms: C2_7  and  C5_10 
ROOT
HETATM    1  O1  UNK     1      25.929  -5.130  38.823  1.00  0.00    -0.321 OA
HETATM    2  O4  UNK     1      26.103  -9.184  38.391  1.00  0.00    -0.286 OA
HETATM    3  C1  UNK     1      27.262  -7.142  38.571  1.00  0.00     0.052 A 
HETATM    4  C2  UNK     1      24.748  -7.249  38.688  1.00  0.00     0.048 A 
HETATM    5  C3  UNK     1      27.142  -5.761  38.710  1.00  0.00     0.092 A 
HETATM    6  C4  UNK     1      26.042  -7.970  38.541  1.00  0.00     0.198 A 
HETATM    7  C6  UNK     1      28.525  -7.730  38.459  1.00  0.00     0.058 A 
HETATM    8  C7  UNK     1      28.283  -4.958  38.737  1.00  0.00     0.077 A 
HETATM    9  C8  UNK     1      29.665  -6.926  38.487  1.00  0.00     0.102 A 
HETATM   10  C9  UNK     1      29.544  -5.542  38.624  1.00  0.00     0.104 A 
HETATM   11  C10 UNK     1      24.800  -5.914  38.815  1.00  0.00     0.159 A 
ENDROOT
BRANCH   4  12
HETATM   12  C5  UNK     1      23.458  -7.958  38.713  1.00  0.00    -0.020 A 
HETATM   13  C11 UNK     1      22.924  -8.485  37.536  1.00  0.00     0.015 A 
HETATM   14  C13 UNK     1      21.703  -9.158  37.561  1.00  0.00     0.037 A 
HETATM   15  C15 UNK     1      21.012  -9.305  38.763  1.00  0.00     0.068 A 
HETATM   16  C14 UNK     1      21.544  -8.779  39.942  1.00  0.00     0.037 A 
HETATM   17  C12 UNK     1      22.766  -8.106  39.916  1.00  0.00     0.015 A 
BRANCH  15  18
HETATM   18  O5  UNK     1      19.821  -9.961  38.788  1.00  0.00    -0.356 OA
HETATM   19  C18 UNK     1      19.501 -10.770  37.655  1.00  0.00     0.210 C 
ENDBRANCH  15  18
ENDBRANCH   4  12
BRANCH   9  20
HETATM   20  O2  UNK     1      30.894  -7.503  38.378  1.00  0.00    -0.353 OA
HETATM   21  C16 UNK     1      30.933  -8.876  37.991  1.00  0.00     0.210 C 
ENDBRANCH   9  20
BRANCH  10  22
HETATM   22  O3  UNK     1      30.652  -4.751  38.654  1.00  0.00    -0.353 OA
HETATM   23  C17 UNK     1      31.017  -4.100  37.438  1.00  0.00     0.210 C 
ENDBRANCH  10  22
TORSDOF 4
ENDMDL
