MODEL 1
REMARK VINA RESULT:      -7.7      0.000      0.000
REMARK  2 active torsions:
REMARK  status: ('A' for Active; 'I' for Inactive)
REMARK    1  A    between atoms: C1_5  and  C4_8 
REMARK    2  A    between atoms: C2_6  and  C3_7 
ROOT
HETATM    1  N1  UNK     1      20.206   9.165  34.640  1.00  0.00    -0.191 NA
HETATM    2  C3  UNK     1      19.022   7.377  33.169  1.00  0.00     0.055 C 
HETATM    3  C4  UNK     1      19.800   6.434  32.574  1.00  0.00     0.036 C 
HETATM    4  C15 UNK     1      19.686   8.363  33.981  1.00  0.00     0.100 C 
ENDROOT
BRANCH   2   5
HETATM    5  C2  UNK     1      17.576   7.445  33.022  1.00  0.00    -0.015 A 
HETATM    6  C7  UNK     1      17.014   7.730  31.779  1.00  0.00     0.014 A 
HETATM    7  C11 UNK     1      15.627   7.796  31.639  1.00  0.00     0.024 A 
HETATM    8  C14 UNK     1      14.804   7.575  32.742  1.00  0.00     0.034 A 
HETATM    9  C12 UNK     1      15.366   7.288  33.987  1.00  0.00     0.024 A 
HETATM   10 Cl3  UNK     1      13.094   7.655  32.570  1.00  0.00    -0.084 Cl
HETATM   11  C8  UNK     1      16.753   7.224  34.127  1.00  0.00     0.014 A 
ENDBRANCH   2   5
BRANCH   3  12
HETATM   12  C1  UNK     1      19.316   5.333  31.728  1.00  0.00    -0.013 A 
HETATM   13  C5  UNK     1      18.669   4.227  32.264  1.00  0.00     0.045 A 
HETATM   14 Cl1  UNK     1      18.384   4.057  33.961  1.00  0.00    -0.083 Cl
HETATM   15  C9  UNK     1      18.228   3.211  31.417  1.00  0.00     0.048 A 
HETATM   16  C13 UNK     1      18.438   3.308  30.042  1.00  0.00     0.035 A 
HETATM   17  C10 UNK     1      19.088   4.422  29.512  1.00  0.00     0.024 A 
HETATM   18 Cl2  UNK     1      17.895   2.053  28.996  1.00  0.00    -0.084 Cl
HETATM   19  C6  UNK     1      19.529   5.439  30.359  1.00  0.00     0.015 A 
ENDBRANCH   3  12
TORSDOF 2
ENDMDL
MODEL 2
REMARK VINA RESULT:      -7.0     17.582     19.017
REMARK  2 active torsions:
REMARK  status: ('A' for Active; 'I' for Inactive)
REMARK    1  A    between atoms: C1_5  and  C4_8 
REMARK    2  A    between atoms: C2_6  and  C3_7 
ROOT
HETATM    1  N1  UNK     1      29.403  -3.665  39.975  1.00  0.00    -0.191 NA
HETATM    2  C3  UNK     1      29.848  -5.415  38.103  1.00  0.00     0.055 C 
HETATM    3  C4  UNK     1      28.789  -6.139  37.652  1.00  0.00     0.036 C 
HETATM    4  C15 UNK     1      29.592  -4.449  39.139  1.00  0.00     0.100 C 
ENDROOT
BRANCH   2   5
HETATM    5  C2  UNK     1      31.206  -5.569  37.605  1.00  0.00    -0.015 A 
HETATM    6  C7  UNK     1      31.656  -4.776  36.550  1.00  0.00     0.014 A 
HETATM    7  C11 UNK     1      32.959  -4.925  36.072  1.00  0.00     0.024 A 
HETATM    8  C14 UNK     1      33.810  -5.866  36.650  1.00  0.00     0.034 A 
HETATM    9  C12 UNK     1      33.360  -6.659  37.706  1.00  0.00     0.024 A 
HETATM   10 Cl3  UNK     1      35.416  -6.050  36.061  1.00  0.00    -0.084 Cl
HETATM   11  C8  UNK     1      32.058  -6.511  38.184  1.00  0.00     0.014 A 
ENDBRANCH   2   5
BRANCH   3  12
HETATM   12  C1  UNK     1      28.836  -7.154  36.589  1.00  0.00    -0.013 A 
HETATM   13  C5  UNK     1      29.105  -8.489  36.863  1.00  0.00     0.045 A 
HETATM   14 Cl1  UNK     1      29.409  -9.060  38.467  1.00  0.00    -0.083 Cl
HETATM   15  C9  UNK     1      29.136  -9.413  35.819  1.00  0.00     0.048 A 
HETATM   16  C13 UNK     1      28.898  -8.994  34.510  1.00  0.00     0.035 A 
HETATM   17  C10 UNK     1      28.627  -7.652  34.245  1.00  0.00     0.024 A 
HETATM   18 Cl2  UNK     1      28.937 -10.133  33.220  1.00  0.00    -0.084 Cl
HETATM   19  C6  UNK     1      28.596  -6.728  35.289  1.00  0.00     0.015 A 
ENDBRANCH   3  12
TORSDOF 2
ENDMDL
MODEL 3
REMARK VINA RESULT:      -6.8     22.529     24.524
REMARK  2 active torsions:
REMARK  status: ('A' for Active; 'I' for Inactive)
REMARK    1  A    between atoms: C1_5  and  C4_8 
REMARK    2  A    between atoms: C2_6  and  C3_7 
ROOT
HETATM    1  N1  UNK     1      16.530   5.028   9.393  1.00  0.00    -0.191 NA
HETATM    2  C3  UNK     1      14.216   6.059   8.806  1.00  0.00     0.055 C 
HETATM    3  C4  UNK     1      13.339   5.286   8.111  1.00  0.00     0.036 C 
HETATM    4  C15 UNK     1      15.494   5.480   9.126  1.00  0.00     0.100 C 
ENDROOT
BRANCH   2   5
HETATM    5  C2  UNK     1      13.935   7.422   9.229  1.00  0.00    -0.015 A 
HETATM    6  C7  UNK     1      13.208   7.654  10.397  1.00  0.00     0.014 A 
HETATM    7  C11 UNK     1      12.938   8.961  10.802  1.00  0.00     0.024 A 
HETATM    8  C14 UNK     1      13.396  10.036  10.041  1.00  0.00     0.034 A 
HETATM    9  C12 UNK     1      14.124   9.804   8.873  1.00  0.00     0.024 A 
HETATM   10 Cl3  UNK     1      13.063  11.648  10.541  1.00  0.00    -0.084 Cl
HETATM   11  C8  UNK     1      14.393   8.497   8.467  1.00  0.00     0.014 A 
ENDBRANCH   2   5
BRANCH   3  12
HETATM   12  C1  UNK     1      11.981   5.681   7.708  1.00  0.00    -0.013 A 
HETATM   13  C5  UNK     1      10.880   5.454   8.523  1.00  0.00     0.045 A 
HETATM   14 Cl1  UNK     1      11.017   4.689  10.068  1.00  0.00    -0.083 Cl
HETATM   15  C9  UNK     1       9.613   5.849   8.095  1.00  0.00     0.048 A 
HETATM   16  C13 UNK     1       9.458   6.468   6.855  1.00  0.00     0.035 A 
HETATM   17  C10 UNK     1      10.570   6.693   6.043  1.00  0.00     0.024 A 
HETATM   18 Cl2  UNK     1       7.895   6.956   6.324  1.00  0.00    -0.084 Cl
HETATM   19  C6  UNK     1      11.836   6.298   6.471  1.00  0.00     0.015 A 
ENDBRANCH   3  12
TORSDOF 2
ENDMDL
MODEL 4
REMARK VINA RESULT:      -6.7     17.632     19.528
REMARK  2 active torsions:
REMARK  status: ('A' for Active; 'I' for Inactive)
REMARK    1  A    between atoms: C1_5  and  C4_8 
REMARK    2  A    between atoms: C2_6  and  C3_7 
ROOT
HETATM    1  N1  UNK     1      29.462  -3.791  39.809  1.00  0.00    -0.191 NA
HETATM    2  C3  UNK     1      30.389  -5.643  38.236  1.00  0.00     0.055 C 
HETATM    3  C4  UNK     1      29.836  -6.881  38.326  1.00  0.00     0.036 C 
HETATM    4  C15 UNK     1      29.870  -4.624  39.111  1.00  0.00     0.100 C 
ENDROOT
BRANCH   2   5
HETATM    5  C2  UNK     1      31.467  -5.301  37.321  1.00  0.00    -0.015 A 
HETATM    6  C7  UNK     1      31.174  -4.781  36.061  1.00  0.00     0.014 A 
HETATM    7  C11 UNK     1      32.208  -4.454  35.184  1.00  0.00     0.024 A 
HETATM    8  C14 UNK     1      33.535  -4.647  35.567  1.00  0.00     0.034 A 
HETATM    9  C12 UNK     1      33.829  -5.167  36.828  1.00  0.00     0.024 A 
HETATM   10 Cl3  UNK     1      34.811  -4.244  34.485  1.00  0.00    -0.084 Cl
HETATM   11  C8  UNK     1      32.795  -5.495  37.705  1.00  0.00     0.014 A 
ENDBRANCH   2   5
BRANCH   3  12
HETATM   12  C1  UNK     1      30.208  -8.047  37.510  1.00  0.00    -0.013 A 
HETATM   13  C5  UNK     1      29.618  -8.296  36.278  1.00  0.00     0.045 A 
HETATM   14 Cl1  UNK     1      28.404  -7.262  35.609  1.00  0.00    -0.083 Cl
HETATM   15  C9  UNK     1      30.007  -9.415  35.542  1.00  0.00     0.048 A 
HETATM   16  C13 UNK     1      30.982 -10.276  36.045  1.00  0.00     0.035 A 
HETATM   17  C10 UNK     1      31.570 -10.017  37.283  1.00  0.00     0.024 A 
HETATM   18 Cl2  UNK     1      31.463 -11.658  35.138  1.00  0.00    -0.084 Cl
HETATM   19  C6  UNK     1      31.181  -8.899  38.019  1.00  0.00     0.015 A 
ENDBRANCH   3  12
TORSDOF 2
ENDMDL
MODEL 5
REMARK VINA RESULT:      -6.7     17.627     19.341
REMARK  2 active torsions:
REMARK  status: ('A' for Active; 'I' for Inactive)
REMARK    1  A    between atoms: C1_5  and  C4_8 
REMARK    2  A    between atoms: C2_6  and  C3_7 
ROOT
HETATM    1  N1  UNK     1      29.343  -3.722  39.928  1.00  0.00    -0.191 NA
HETATM    2  C3  UNK     1      30.688  -5.167  38.235  1.00  0.00     0.055 C 
HETATM    3  C4  UNK     1      31.988  -4.834  38.015  1.00  0.00     0.036 C 
HETATM    4  C15 UNK     1      29.952  -4.361  39.174  1.00  0.00     0.100 C 
ENDROOT
BRANCH   2   5
HETATM    5  C2  UNK     1      30.013  -6.274  37.576  1.00  0.00    -0.015 A 
HETATM    6  C7  UNK     1      29.469  -6.101  36.304  1.00  0.00     0.014 A 
HETATM    7  C11 UNK     1      28.821  -7.162  35.672  1.00  0.00     0.024 A 
HETATM    8  C14 UNK     1      28.717  -8.396  36.312  1.00  0.00     0.034 A 
HETATM    9  C12 UNK     1      29.261  -8.570  37.586  1.00  0.00     0.024 A 
HETATM   10 Cl3  UNK     1      27.917  -9.706  35.534  1.00  0.00    -0.084 Cl
HETATM   11  C8  UNK     1      29.909  -7.508  38.218  1.00  0.00     0.014 A 
ENDBRANCH   2   5
BRANCH   3  12
HETATM   12  C1  UNK     1      32.913  -5.540  37.116  1.00  0.00    -0.013 A 
HETATM   13  C5  UNK     1      33.085  -5.156  35.792  1.00  0.00     0.045 A 
HETATM   14 Cl1  UNK     1      32.225  -3.825  35.098  1.00  0.00    -0.083 Cl
HETATM   15  C9  UNK     1      33.976  -5.859  34.982  1.00  0.00     0.048 A 
HETATM   16  C13 UNK     1      34.688  -6.939  35.502  1.00  0.00     0.035 A 
HETATM   17  C10 UNK     1      34.511  -7.317  36.833  1.00  0.00     0.024 A 
HETATM   18 Cl2  UNK     1      35.788  -7.808  34.502  1.00  0.00    -0.084 Cl
HETATM   19  C6  UNK     1      33.620  -6.614  37.643  1.00  0.00     0.015 A 
ENDBRANCH   3  12
TORSDOF 2
ENDMDL
MODEL 6
REMARK VINA RESULT:      -6.7     17.316     19.059
REMARK  2 active torsions:
REMARK  status: ('A' for Active; 'I' for Inactive)
REMARK    1  A    between atoms: C1_5  and  C4_8 
REMARK    2  A    between atoms: C2_6  and  C3_7 
ROOT
HETATM    1  N1  UNK     1      25.235  -7.884  38.625  1.00  0.00    -0.191 NA
HETATM    2  C3  UNK     1      27.688  -7.590  37.813  1.00  0.00     0.055 C 
HETATM    3  C4  UNK     1      28.584  -7.068  38.692  1.00  0.00     0.036 C 
HETATM    4  C15 UNK     1      26.332  -7.749  38.272  1.00  0.00     0.100 C 
ENDROOT
BRANCH   2   5
HETATM    5  C2  UNK     1      28.021  -7.983  36.453  1.00  0.00    -0.015 A 
HETATM    6  C7  UNK     1      28.147  -7.014  35.458  1.00  0.00     0.014 A 
HETATM    7  C11 UNK     1      28.466  -7.391  34.153  1.00  0.00     0.024 A 
HETATM    8  C14 UNK     1      28.659  -8.737  33.844  1.00  0.00     0.034 A 
HETATM    9  C12 UNK     1      28.534  -9.707  34.839  1.00  0.00     0.024 A 
HETATM   10 Cl3  UNK     1      29.053  -9.203  32.235  1.00  0.00    -0.084 Cl
HETATM   11  C8  UNK     1      28.214  -9.330  36.144  1.00  0.00     0.014 A 
ENDBRANCH   2   5
BRANCH   3  12
HETATM   12  C1  UNK     1      30.014  -6.847  38.427  1.00  0.00    -0.013 A 
HETATM   13  C5  UNK     1      30.526  -5.580  38.177  1.00  0.00     0.045 A 
HETATM   14 Cl1  UNK     1      29.526  -4.169  38.153  1.00  0.00    -0.083 Cl
HETATM   15  C9  UNK     1      31.890  -5.424  37.933  1.00  0.00     0.048 A 
HETATM   16  C13 UNK     1      32.731  -6.536  37.943  1.00  0.00     0.035 A 
HETATM   17  C10 UNK     1      32.209  -7.805  38.196  1.00  0.00     0.024 A 
HETATM   18 Cl2  UNK     1      34.415  -6.346  37.641  1.00  0.00    -0.084 Cl
HETATM   19  C6  UNK     1      30.845  -7.960  38.440  1.00  0.00     0.015 A 
ENDBRANCH   3  12
TORSDOF 2
ENDMDL
MODEL 7
REMARK VINA RESULT:      -6.6      3.211      5.886
REMARK  2 active torsions:
REMARK  status: ('A' for Active; 'I' for Inactive)
REMARK    1  A    between atoms: C1_5  and  C4_8 
REMARK    2  A    between atoms: C2_6  and  C3_7 
ROOT
HETATM    1  N1  UNK     1      17.686   1.747  29.234  1.00  0.00    -0.191 NA
HETATM    2  C3  UNK     1      18.313   3.374  31.164  1.00  0.00     0.055 C 
HETATM    3  C4  UNK     1      18.628   4.654  30.831  1.00  0.00     0.036 C 
HETATM    4  C15 UNK     1      17.967   2.480  30.089  1.00  0.00     0.100 C 
ENDROOT
BRANCH   2   5
HETATM    5  C2  UNK     1      18.314   2.867  32.527  1.00  0.00    -0.015 A 
HETATM    6  C7  UNK     1      18.259   3.754  33.601  1.00  0.00     0.014 A 
HETATM    7  C11 UNK     1      18.261   3.268  34.909  1.00  0.00     0.024 A 
HETATM    8  C14 UNK     1      18.317   1.894  35.142  1.00  0.00     0.034 A 
HETATM    9  C12 UNK     1      18.372   1.006  34.067  1.00  0.00     0.024 A 
HETATM   10 Cl3  UNK     1      18.319   1.294  36.754  1.00  0.00    -0.084 Cl
HETATM   11  C8  UNK     1      18.371   1.492  32.759  1.00  0.00     0.014 A 
ENDBRANCH   2   5
BRANCH   3  12
HETATM   12  C1  UNK     1      18.985   5.722  31.778  1.00  0.00    -0.013 A 
HETATM   13  C5  UNK     1      18.025   6.550  32.344  1.00  0.00     0.045 A 
HETATM   14 Cl1  UNK     1      16.341   6.394  31.982  1.00  0.00    -0.083 Cl
HETATM   15  C9  UNK     1      18.416   7.546  33.238  1.00  0.00     0.048 A 
HETATM   16  C13 UNK     1      19.764   7.707  33.557  1.00  0.00     0.035 A 
HETATM   17  C10 UNK     1      20.722   6.870  32.984  1.00  0.00     0.024 A 
HETATM   18 Cl2  UNK     1      20.249   8.938  34.658  1.00  0.00    -0.084 Cl
HETATM   19  C6  UNK     1      20.331   5.874  32.090  1.00  0.00     0.015 A 
ENDBRANCH   3  12
TORSDOF 2
ENDMDL
MODEL 8
REMARK VINA RESULT:      -6.6     15.713     17.684
REMARK  2 active torsions:
REMARK  status: ('A' for Active; 'I' for Inactive)
REMARK    1  A    between atoms: C1_5  and  C4_8 
REMARK    2  A    between atoms: C2_6  and  C3_7 
ROOT
HETATM    1  N1  UNK     1      30.192  -2.105  31.284  1.00  0.00    -0.191 NA
HETATM    2  C3  UNK     1      29.953  -4.695  31.271  1.00  0.00     0.055 C 
HETATM    3  C4  UNK     1      29.914  -5.318  30.063  1.00  0.00     0.036 C 
HETATM    4  C15 UNK     1      30.086  -3.261  31.268  1.00  0.00     0.100 C 
ENDROOT
BRANCH   2   5
HETATM    5  C2  UNK     1      29.862  -5.390  32.545  1.00  0.00    -0.015 A 
HETATM    6  C7  UNK     1      28.627  -5.851  33.002  1.00  0.00     0.014 A 
HETATM    7  C11 UNK     1      28.540  -6.517  34.225  1.00  0.00     0.024 A 
HETATM    8  C14 UNK     1      29.687  -6.723  34.990  1.00  0.00     0.034 A 
HETATM    9  C12 UNK     1      30.923  -6.263  34.533  1.00  0.00     0.024 A 
HETATM   10 Cl3  UNK     1      29.580  -7.545  36.498  1.00  0.00    -0.084 Cl
HETATM   11  C8  UNK     1      31.010  -5.596  33.311  1.00  0.00     0.014 A 
ENDBRANCH   2   5
BRANCH   3  12
HETATM   12  C1  UNK     1      29.805  -6.770  29.852  1.00  0.00    -0.013 A 
HETATM   13  C5  UNK     1      28.575  -7.414  29.808  1.00  0.00     0.045 A 
HETATM   14 Cl1  UNK     1      27.081  -6.565  30.002  1.00  0.00    -0.083 Cl
HETATM   15  C9  UNK     1      28.527  -8.792  29.603  1.00  0.00     0.048 A 
HETATM   16  C13 UNK     1      29.709  -9.515  29.443  1.00  0.00     0.035 A 
HETATM   17  C10 UNK     1      30.939  -8.860  29.487  1.00  0.00     0.024 A 
HETATM   18 Cl2  UNK     1      29.651 -11.217  29.192  1.00  0.00    -0.084 Cl
HETATM   19  C6  UNK     1      30.988  -7.482  29.692  1.00  0.00     0.015 A 
ENDBRANCH   3  12
TORSDOF 2
ENDMDL
MODEL 9
REMARK VINA RESULT:      -6.6     22.423     24.027
REMARK  2 active torsions:
REMARK  status: ('A' for Active; 'I' for Inactive)
REMARK    1  A    between atoms: C1_5  and  C4_8 
REMARK    2  A    between atoms: C2_6  and  C3_7 
ROOT
HETATM    1  N1  UNK     1      15.864   3.944   9.822  1.00  0.00    -0.191 NA
HETATM    2  C3  UNK     1      14.456   6.122   9.640  1.00  0.00     0.055 C 
HETATM    3  C4  UNK     1      14.858   7.196  10.371  1.00  0.00     0.036 C 
HETATM    4  C15 UNK     1      15.242   4.921   9.747  1.00  0.00     0.100 C 
ENDROOT
BRANCH   2   5
HETATM    5  C2  UNK     1      13.287   6.123   8.774  1.00  0.00    -0.015 A 
HETATM    6  C7  UNK     1      13.380   6.630   7.477  1.00  0.00     0.014 A 
HETATM    7  C11 UNK     1      12.259   6.631   6.647  1.00  0.00     0.024 A 
HETATM    8  C14 UNK     1      11.046   6.126   7.113  1.00  0.00     0.034 A 
HETATM    9  C12 UNK     1      10.952   5.619   8.410  1.00  0.00     0.024 A 
HETATM   10 Cl3  UNK     1       9.663   6.128   6.089  1.00  0.00    -0.084 Cl
HETATM   11  C8  UNK     1      12.073   5.618   9.241  1.00  0.00     0.014 A 
ENDBRANCH   2   5
BRANCH   3  12
HETATM   12  C1  UNK     1      14.209   8.515  10.384  1.00  0.00    -0.013 A 
HETATM   13  C5  UNK     1      14.821   9.638   9.843  1.00  0.00     0.045 A 
HETATM   14 Cl1  UNK     1      16.390   9.575   9.117  1.00  0.00    -0.083 Cl
HETATM   15  C9  UNK     1      14.162  10.866   9.879  1.00  0.00     0.048 A 
HETATM   16  C13 UNK     1      12.896  10.962  10.455  1.00  0.00     0.035 A 
HETATM   17  C10 UNK     1      12.288   9.829  10.995  1.00  0.00     0.024 A 
HETATM   18 Cl2  UNK     1      12.082  12.478  10.502  1.00  0.00    -0.084 Cl
HETATM   19  C6  UNK     1      12.947   8.601  10.959  1.00  0.00     0.015 A 
ENDBRANCH   3  12
TORSDOF 2
ENDMDL
MODEL 10
REMARK VINA RESULT:      -6.5     17.513     18.924
REMARK  2 active torsions:
REMARK  status: ('A' for Active; 'I' for Inactive)
REMARK    1  A    between atoms: C1_5  and  C4_8 
REMARK    2  A    between atoms: C2_6  and  C3_7 
ROOT
HETATM    1  N1  UNK     1      29.433  -3.713  39.909  1.00  0.00    -0.191 NA
HETATM    2  C3  UNK     1      30.283  -5.284  38.019  1.00  0.00     0.055 C 
HETATM    3  C4  UNK     1      31.494  -5.008  37.467  1.00  0.00     0.036 C 
HETATM    4  C15 UNK     1      29.820  -4.409  39.064  1.00  0.00     0.100 C 
ENDROOT
BRANCH   2   5
HETATM    5  C2  UNK     1      29.440  -6.396  37.608  1.00  0.00    -0.015 A 
HETATM    6  C7  UNK     1      28.790  -6.361  36.375  1.00  0.00     0.014 A 
HETATM    7  C11 UNK     1      27.981  -7.428  35.982  1.00  0.00     0.024 A 
HETATM    8  C14 UNK     1      27.823  -8.529  36.822  1.00  0.00     0.034 A 
HETATM    9  C12 UNK     1      28.473  -8.565  38.056  1.00  0.00     0.024 A 
HETATM   10 Cl3  UNK     1      26.826  -9.845  36.337  1.00  0.00    -0.084 Cl
HETATM   11  C8  UNK     1      29.281  -7.498  38.450  1.00  0.00     0.014 A 
ENDBRANCH   2   5
BRANCH   3  12
HETATM   12  C1  UNK     1      32.151  -5.788  36.407  1.00  0.00    -0.013 A 
HETATM   13  C5  UNK     1      32.788  -6.994  36.673  1.00  0.00     0.045 A 
HETATM   14 Cl1  UNK     1      32.860  -7.668  38.265  1.00  0.00    -0.083 Cl
HETATM   15  C9  UNK     1      33.394  -7.696  35.633  1.00  0.00     0.048 A 
HETATM   16  C13 UNK     1      33.360  -7.188  34.335  1.00  0.00     0.035 A 
HETATM   17  C10 UNK     1      32.717  -5.977  34.077  1.00  0.00     0.024 A 
HETATM   18 Cl2  UNK     1      34.110  -8.054  33.050  1.00  0.00    -0.084 Cl
HETATM   19  C6  UNK     1      32.111  -5.275  35.117  1.00  0.00     0.015 A 
ENDBRANCH   3  12
TORSDOF 2
ENDMDL
