MODEL 1
REMARK VINA RESULT:      -9.0      0.000      0.000
REMARK  3 active torsions:
REMARK  status: ('A' for Active; 'I' for Inactive)
REMARK       I    between atoms: C11_16  and  N1_4 
REMARK    1  A    between atoms: C8_13  and  N1_4 
REMARK    2  A    between atoms: C11_16  and  C5_10 
REMARK    3  A    between atoms: C12_17  and  C8_13 
ROOT
HETATM    1  O1  UNK     1      19.027   0.679  31.668  1.00  0.00    -0.304 OA
HETATM    2  O2  UNK     1      20.514  -0.705  28.131  1.00  0.00    -0.287 OA
HETATM    3  C1  UNK     1      20.164  -1.084  30.440  1.00  0.00     0.048 A 
HETATM    4  C2  UNK     1      19.635  -0.551  31.617  1.00  0.00     0.090 A 
HETATM    5  C3  UNK     1      20.772  -2.341  30.446  1.00  0.00     0.025 A 
HETATM    6  C4  UNK     1      20.846  -3.063  31.638  1.00  0.00    -0.061 A 
HETATM    7  C5  UNK     1      18.945   1.405  30.498  1.00  0.00     0.147 A 
HETATM    8  C6  UNK     1      20.072  -0.299  29.197  1.00  0.00     0.187 A 
HETATM    9  C7  UNK     1      19.711  -1.276  32.806  1.00  0.00     0.039 A 
HETATM   10  C9  UNK     1      19.408   1.017  29.304  1.00  0.00     0.098 A 
HETATM   11  C10 UNK     1      20.317  -2.532  32.816  1.00  0.00     0.009 A 
HETATM   12  C13 UNK     1      21.493  -4.408  31.654  1.00  0.00     0.048 C 
ENDROOT
BRANCH   7  13
HETATM   13  C11 UNK     1      18.291   2.713  30.574  1.00  0.00     0.275 C 
HETATM   14  O3  UNK     1      17.096   2.810  30.856  1.00  0.00    -0.265 OA
HETATM   15  N1  UNK     1      19.150   3.764  30.298  1.00  0.00    -0.351 N 
HETATM   16  H7  UNK     1      20.119   3.566  30.062  1.00  0.00     0.163 HD
BRANCH  15  17
HETATM   17  C8  UNK     1      18.734   5.148  30.307  1.00  0.00     0.161 C 
BRANCH  17  18
HETATM   18  C12 UNK     1      18.861   5.762  31.675  1.00  0.00    -0.038 A 
HETATM   19  C14 UNK     1      20.093   6.221  32.107  1.00  0.00     0.028 A 
HETATM   20  C16 UNK     1      20.157   6.779  33.374  1.00  0.00     0.116 A 
HETATM   21  N2  UNK     1      19.096   6.899  34.203  1.00  0.00    -0.273 NA
HETATM   22  C17 UNK     1      17.914   6.436  33.736  1.00  0.00     0.116 A 
HETATM   23  C15 UNK     1      17.745   5.862  32.486  1.00  0.00     0.028 A 
ENDBRANCH  17  18
ENDBRANCH  15  17
ENDBRANCH   7  13
TORSDOF 3
ENDMDL
MODEL 2
REMARK VINA RESULT:      -8.7     14.481     16.795
REMARK  3 active torsions:
REMARK  status: ('A' for Active; 'I' for Inactive)
REMARK       I    between atoms: C11_16  and  N1_4 
REMARK    1  A    between atoms: C8_13  and  N1_4 
REMARK    2  A    between atoms: C11_16  and  C5_10 
REMARK    3  A    between atoms: C12_17  and  C8_13 
ROOT
HETATM    1  O1  UNK     1      19.495  -1.359  14.577  1.00  0.00    -0.304 OA
HETATM    2  O2  UNK     1      18.232  -4.951  13.114  1.00  0.00    -0.287 OA
HETATM    3  C1  UNK     1      19.525  -2.997  12.781  1.00  0.00     0.048 A 
HETATM    4  C2  UNK     1      19.918  -1.780  13.340  1.00  0.00     0.090 A 
HETATM    5  C3  UNK     1      19.986  -3.376  11.519  1.00  0.00     0.025 A 
HETATM    6  C4  UNK     1      20.845  -2.528  10.818  1.00  0.00    -0.061 A 
HETATM    7  C5  UNK     1      18.646  -2.186  15.283  1.00  0.00     0.147 A 
HETATM    8  C6  UNK     1      18.617  -3.872  13.544  1.00  0.00     0.187 A 
HETATM    9  C7  UNK     1      20.777  -0.936  12.637  1.00  0.00     0.039 A 
HETATM   10  C9  UNK     1      18.192  -3.374  14.869  1.00  0.00     0.098 A 
HETATM   11  C10 UNK     1      21.240  -1.311  11.376  1.00  0.00     0.009 A 
HETATM   12  C13 UNK     1      21.344  -2.924   9.469  1.00  0.00     0.048 C 
ENDROOT
BRANCH   7  13
HETATM   13  C11 UNK     1      18.209  -1.719  16.599  1.00  0.00     0.275 C 
HETATM   14  O3  UNK     1      17.047  -1.880  16.976  1.00  0.00    -0.265 OA
HETATM   15  N1  UNK     1      19.219  -1.106  17.320  1.00  0.00    -0.351 N 
HETATM   16  H7  UNK     1      20.142  -1.014  16.904  1.00  0.00     0.163 HD
BRANCH  15  17
HETATM   17  C8  UNK     1      19.028  -0.562  18.645  1.00  0.00     0.161 C 
BRANCH  17  18
HETATM   18  C12 UNK     1      19.305   0.917  18.690  1.00  0.00    -0.038 A 
HETATM   19  C14 UNK     1      19.790   1.487  19.853  1.00  0.00     0.028 A 
HETATM   20  C16 UNK     1      20.029   2.852  19.843  1.00  0.00     0.116 A 
HETATM   21  N2  UNK     1      19.817   3.649  18.771  1.00  0.00    -0.273 NA
HETATM   22  C17 UNK     1      19.343   3.046  17.658  1.00  0.00     0.116 A 
HETATM   23  C15 UNK     1      19.072   1.690  17.566  1.00  0.00     0.028 A 
ENDBRANCH  17  18
ENDBRANCH  15  17
ENDBRANCH   7  13
TORSDOF 3
ENDMDL
MODEL 3
REMARK VINA RESULT:      -8.6      2.243      7.423
REMARK  3 active torsions:
REMARK  status: ('A' for Active; 'I' for Inactive)
REMARK       I    between atoms: C11_16  and  N1_4 
REMARK    1  A    between atoms: C8_13  and  N1_4 
REMARK    2  A    between atoms: C11_16  and  C5_10 
REMARK    3  A    between atoms: C12_17  and  C8_13 
ROOT
HETATM    1  O1  UNK     1      18.021   3.669  31.960  1.00  0.00    -0.304 OA
HETATM    2  O2  UNK     1      19.804   6.486  29.611  1.00  0.00    -0.287 OA
HETATM    3  C1  UNK     1      18.717   5.977  31.650  1.00  0.00     0.048 A 
HETATM    4  C2  UNK     1      18.119   4.965  32.403  1.00  0.00     0.090 A 
HETATM    5  C3  UNK     1      18.790   7.279  32.151  1.00  0.00     0.025 A 
HETATM    6  C4  UNK     1      18.261   7.562  33.410  1.00  0.00    -0.061 A 
HETATM    7  C5  UNK     1      18.539   3.372  30.717  1.00  0.00     0.147 A 
HETATM    8  C6  UNK     1      19.267   5.649  30.324  1.00  0.00     0.187 A 
HETATM    9  C7  UNK     1      17.592   5.251  33.662  1.00  0.00     0.039 A 
HETATM   10  C9  UNK     1      19.137   4.241  29.893  1.00  0.00     0.098 A 
HETATM   11  C10 UNK     1      17.663   6.550  34.165  1.00  0.00     0.009 A 
HETATM   12  C13 UNK     1      18.335   8.950  33.954  1.00  0.00     0.048 C 
ENDROOT
BRANCH   7  13
HETATM   13  C11 UNK     1      18.426   1.985  30.265  1.00  0.00     0.275 C 
HETATM   14  O3  UNK     1      17.455   1.610  29.605  1.00  0.00    -0.265 OA
HETATM   15  N1  UNK     1      19.494   1.197  30.659  1.00  0.00    -0.351 N 
HETATM   16  H7  UNK     1      20.237   1.610  31.216  1.00  0.00     0.163 HD
BRANCH  15  17
HETATM   17  C8  UNK     1      19.604  -0.206  30.334  1.00  0.00     0.161 C 
BRANCH  17  18
HETATM   18  C12 UNK     1      19.815  -1.051  31.561  1.00  0.00    -0.038 A 
HETATM   19  C14 UNK     1      20.842  -1.979  31.585  1.00  0.00     0.028 A 
HETATM   20  C16 UNK     1      20.995  -2.731  32.738  1.00  0.00     0.116 A 
HETATM   21  N2  UNK     1      20.206  -2.612  33.830  1.00  0.00    -0.273 NA
HETATM   22  C17 UNK     1      19.217  -1.692  33.759  1.00  0.00     0.116 A 
HETATM   23  C15 UNK     1      18.981  -0.891  32.653  1.00  0.00     0.028 A 
ENDBRANCH  17  18
ENDBRANCH  15  17
ENDBRANCH   7  13
TORSDOF 3
ENDMDL
MODEL 4
REMARK VINA RESULT:      -8.4      2.285      3.448
REMARK  3 active torsions:
REMARK  status: ('A' for Active; 'I' for Inactive)
REMARK       I    between atoms: C11_16  and  N1_4 
REMARK    1  A    between atoms: C8_13  and  N1_4 
REMARK    2  A    between atoms: C11_16  and  C5_10 
REMARK    3  A    between atoms: C12_17  and  C8_13 
ROOT
HETATM    1  O1  UNK     1      19.015  -0.265  33.031  1.00  0.00    -0.304 OA
HETATM    2  O2  UNK     1      21.409  -3.495  32.350  1.00  0.00    -0.287 OA
HETATM    3  C1  UNK     1      20.086  -2.273  33.884  1.00  0.00     0.048 A 
HETATM    4  C2  UNK     1      19.275  -1.148  34.049  1.00  0.00     0.090 A 
HETATM    5  C3  UNK     1      20.317  -3.139  34.955  1.00  0.00     0.025 A 
HETATM    6  C4  UNK     1      19.732  -2.873  36.193  1.00  0.00    -0.061 A 
HETATM    7  C5  UNK     1      19.585  -0.514  31.800  1.00  0.00     0.147 A 
HETATM    8  C6  UNK     1      20.690  -2.529  32.565  1.00  0.00     0.187 A 
HETATM    9  C7  UNK     1      18.692  -0.885  35.288  1.00  0.00     0.039 A 
HETATM   10  C9  UNK     1      20.378  -1.550  31.503  1.00  0.00     0.098 A 
HETATM   11  C10 UNK     1      18.921  -1.749  36.360  1.00  0.00     0.009 A 
HETATM   12  C13 UNK     1      19.973  -3.793  37.343  1.00  0.00     0.048 C 
ENDROOT
BRANCH   7  13
HETATM   13  C11 UNK     1      19.293   0.439  30.729  1.00  0.00     0.275 C 
HETATM   14  O3  UNK     1      19.666   0.230  29.573  1.00  0.00    -0.265 OA
HETATM   15  N1  UNK     1      18.584   1.546  31.165  1.00  0.00    -0.351 N 
HETATM   16  H7  UNK     1      18.340   1.623  32.149  1.00  0.00     0.163 HD
BRANCH  15  17
HETATM   17  C8  UNK     1      18.183   2.624  30.291  1.00  0.00     0.161 C 
BRANCH  17  18
HETATM   18  C12 UNK     1      18.574   3.968  30.843  1.00  0.00    -0.038 A 
HETATM   19  C14 UNK     1      18.233   4.300  32.142  1.00  0.00     0.028 A 
HETATM   20  C16 UNK     1      18.616   5.549  32.603  1.00  0.00     0.116 A 
HETATM   21  N2  UNK     1      19.298   6.452  31.863  1.00  0.00    -0.273 NA
HETATM   22  C17 UNK     1      19.608   6.083  30.600  1.00  0.00     0.116 A 
HETATM   23  C15 UNK     1      19.271   4.858  30.045  1.00  0.00     0.028 A 
ENDBRANCH  17  18
ENDBRANCH  15  17
ENDBRANCH   7  13
TORSDOF 3
ENDMDL
MODEL 5
REMARK VINA RESULT:      -8.3      6.589      8.661
REMARK  3 active torsions:
REMARK  status: ('A' for Active; 'I' for Inactive)
REMARK       I    between atoms: C11_16  and  N1_4 
REMARK    1  A    between atoms: C8_13  and  N1_4 
REMARK    2  A    between atoms: C11_16  and  C5_10 
REMARK    3  A    between atoms: C12_17  and  C8_13 
ROOT
HETATM    1  O1  UNK     1      19.950  -5.447  37.992  1.00  0.00    -0.304 OA
HETATM    2  O2  UNK     1      19.326  -7.400  34.467  1.00  0.00    -0.287 OA
HETATM    3  C1  UNK     1      19.643  -7.546  36.807  1.00  0.00     0.048 A 
HETATM    4  C2  UNK     1      19.856  -6.816  37.977  1.00  0.00     0.090 A 
HETATM    5  C3  UNK     1      19.555  -8.939  36.850  1.00  0.00     0.025 A 
HETATM    6  C4  UNK     1      19.682  -9.598  38.073  1.00  0.00    -0.061 A 
HETATM    7  C5  UNK     1      19.827  -4.780  36.791  1.00  0.00     0.147 A 
HETATM    8  C6  UNK     1      19.513  -6.824  35.529  1.00  0.00     0.187 A 
HETATM    9  C7  UNK     1      19.981  -7.478  39.198  1.00  0.00     0.039 A 
HETATM   10  C9  UNK     1      19.621  -5.352  35.599  1.00  0.00     0.098 A 
HETATM   11  C10 UNK     1      19.894  -8.870  39.245  1.00  0.00     0.009 A 
HETATM   12  C13 UNK     1      19.588 -11.087  38.130  1.00  0.00     0.048 C 
ENDROOT
BRANCH   7  13
HETATM   13  C11 UNK     1      19.928  -3.320  36.829  1.00  0.00     0.275 C 
HETATM   14  O3  UNK     1      20.328  -2.737  37.838  1.00  0.00    -0.265 OA
HETATM   15  N1  UNK     1      19.533  -2.719  35.646  1.00  0.00    -0.351 N 
HETATM   16  H7  UNK     1      19.204  -3.299  34.879  1.00  0.00     0.163 HD
BRANCH  15  17
HETATM   17  C8  UNK     1      19.542  -1.288  35.445  1.00  0.00     0.161 C 
BRANCH  17  18
HETATM   18  C12 UNK     1      18.200  -0.672  35.738  1.00  0.00    -0.038 A 
HETATM   19  C14 UNK     1      17.211  -0.695  34.770  1.00  0.00     0.028 A 
HETATM   20  C16 UNK     1      15.994  -0.114  35.089  1.00  0.00     0.116 A 
HETATM   21  N2  UNK     1      15.721   0.465  36.280  1.00  0.00    -0.273 NA
HETATM   22  C17 UNK     1      16.719   0.462  37.192  1.00  0.00     0.116 A 
HETATM   23  C15 UNK     1      17.970  -0.090  36.972  1.00  0.00     0.028 A 
ENDBRANCH  17  18
ENDBRANCH  15  17
ENDBRANCH   7  13
TORSDOF 3
ENDMDL
MODEL 6
REMARK VINA RESULT:      -8.3      1.337      2.224
REMARK  3 active torsions:
REMARK  status: ('A' for Active; 'I' for Inactive)
REMARK       I    between atoms: C11_16  and  N1_4 
REMARK    1  A    between atoms: C8_13  and  N1_4 
REMARK    2  A    between atoms: C11_16  and  C5_10 
REMARK    3  A    between atoms: C12_17  and  C8_13 
ROOT
HETATM    1  O1  UNK     1      19.678   0.955  29.490  1.00  0.00    -0.304 OA
HETATM    2  O2  UNK     1      18.821   0.185  33.402  1.00  0.00    -0.287 OA
HETATM    3  C1  UNK     1      19.761  -0.582  31.371  1.00  0.00     0.048 A 
HETATM    4  C2  UNK     1      20.024  -0.254  30.040  1.00  0.00     0.090 A 
HETATM    5  C3  UNK     1      20.135  -1.828  31.878  1.00  0.00     0.025 A 
HETATM    6  C4  UNK     1      20.776  -2.745  31.044  1.00  0.00    -0.061 A 
HETATM    7  C5  UNK     1      19.044   1.873  30.301  1.00  0.00     0.147 A 
HETATM    8  C6  UNK     1      19.082   0.406  32.228  1.00  0.00     0.187 A 
HETATM    9  C7  UNK     1      20.665  -1.173  29.209  1.00  0.00     0.039 A 
HETATM   10  C9  UNK     1      18.732   1.692  31.589  1.00  0.00     0.098 A 
HETATM   11  C10 UNK     1      21.041  -2.419  29.713  1.00  0.00     0.009 A 
HETATM   12  C13 UNK     1      21.182  -4.079  31.578  1.00  0.00     0.048 C 
ENDROOT
BRANCH   7  13
HETATM   13  C11 UNK     1      18.685   3.157  29.696  1.00  0.00     0.275 C 
HETATM   14  O3  UNK     1      17.971   3.209  28.693  1.00  0.00    -0.265 OA
HETATM   15  N1  UNK     1      19.229   4.241  30.363  1.00  0.00    -0.351 N 
HETATM   16  H7  UNK     1      19.819   4.081  31.176  1.00  0.00     0.163 HD
BRANCH  15  17
HETATM   17  C8  UNK     1      19.018   5.610  29.952  1.00  0.00     0.161 C 
BRANCH  17  18
HETATM   18  C12 UNK     1      18.618   6.488  31.107  1.00  0.00    -0.038 A 
HETATM   19  C14 UNK     1      19.468   6.621  32.191  1.00  0.00     0.028 A 
HETATM   20  C16 UNK     1      19.054   7.440  33.229  1.00  0.00     0.116 A 
HETATM   21  N2  UNK     1      17.880   8.110  33.242  1.00  0.00    -0.273 NA
HETATM   22  C17 UNK     1      17.084   7.949  32.161  1.00  0.00     0.116 A 
HETATM   23  C15 UNK     1      17.406   7.153  31.073  1.00  0.00     0.028 A 
ENDBRANCH  17  18
ENDBRANCH  15  17
ENDBRANCH   7  13
TORSDOF 3
ENDMDL
MODEL 7
REMARK VINA RESULT:      -8.3      5.175      9.398
REMARK  3 active torsions:
REMARK  status: ('A' for Active; 'I' for Inactive)
REMARK       I    between atoms: C11_16  and  N1_4 
REMARK    1  A    between atoms: C8_13  and  N1_4 
REMARK    2  A    between atoms: C11_16  and  C5_10 
REMARK    3  A    between atoms: C12_17  and  C8_13 
ROOT
HETATM    1  O1  UNK     1      20.365  -2.817  33.805  1.00  0.00    -0.304 OA
HETATM    2  O2  UNK     1      17.976   0.487  33.715  1.00  0.00    -0.287 OA
HETATM    3  C1  UNK     1      19.386  -0.995  32.527  1.00  0.00     0.048 A 
HETATM    4  C2  UNK     1      20.190  -2.133  32.627  1.00  0.00     0.090 A 
HETATM    5  C3  UNK     1      19.244  -0.338  31.303  1.00  0.00     0.025 A 
HETATM    6  C4  UNK     1      19.910  -0.827  30.179  1.00  0.00    -0.061 A 
HETATM    7  C5  UNK     1      19.713  -2.348  34.925  1.00  0.00     0.147 A 
HETATM    8  C6  UNK     1      18.695  -0.502  33.731  1.00  0.00     0.187 A 
HETATM    9  C7  UNK     1      20.854  -2.618  31.501  1.00  0.00     0.039 A 
HETATM   10  C9  UNK     1      18.915  -1.274  34.972  1.00  0.00     0.098 A 
HETATM   11  C10 UNK     1      20.713  -1.964  30.277  1.00  0.00     0.009 A 
HETATM   12  C13 UNK     1      19.763  -0.132  28.866  1.00  0.00     0.048 C 
ENDROOT
BRANCH   7  13
HETATM   13  C11 UNK     1      19.911  -3.093  36.170  1.00  0.00     0.275 C 
HETATM   14  O3  UNK     1      20.179  -2.511  37.222  1.00  0.00    -0.265 OA
HETATM   15  N1  UNK     1      19.769  -4.461  36.011  1.00  0.00    -0.351 N 
HETATM   16  H7  UNK     1      19.561  -4.835  35.089  1.00  0.00     0.163 HD
BRANCH  15  17
HETATM   17  C8  UNK     1      19.922  -5.403  37.095  1.00  0.00     0.161 C 
BRANCH  17  18
HETATM   18  C12 UNK     1      20.636  -6.653  36.656  1.00  0.00    -0.038 A 
HETATM   19  C14 UNK     1      21.564  -7.241  37.496  1.00  0.00     0.028 A 
HETATM   20  C16 UNK     1      22.194  -8.390  37.045  1.00  0.00     0.116 A 
HETATM   21  N2  UNK     1      21.954  -8.963  35.844  1.00  0.00    -0.273 NA
HETATM   22  C17 UNK     1      21.039  -8.352  35.059  1.00  0.00     0.116 A 
HETATM   23  C15 UNK     1      20.355  -7.201  35.417  1.00  0.00     0.028 A 
ENDBRANCH  17  18
ENDBRANCH  15  17
ENDBRANCH   7  13
TORSDOF 3
ENDMDL
MODEL 8
REMARK VINA RESULT:      -8.2      2.479      7.467
REMARK  3 active torsions:
REMARK  status: ('A' for Active; 'I' for Inactive)
REMARK       I    between atoms: C11_16  and  N1_4 
REMARK    1  A    between atoms: C8_13  and  N1_4 
REMARK    2  A    between atoms: C11_16  and  C5_10 
REMARK    3  A    between atoms: C12_17  and  C8_13 
ROOT
HETATM    1  O1  UNK     1      18.007   3.618  32.300  1.00  0.00    -0.304 OA
HETATM    2  O2  UNK     1      19.616   6.214  29.598  1.00  0.00    -0.287 OA
HETATM    3  C1  UNK     1      18.610   5.899  31.716  1.00  0.00     0.048 A 
HETATM    4  C2  UNK     1      18.072   4.957  32.595  1.00  0.00     0.090 A 
HETATM    5  C3  UNK     1      18.652   7.250  32.068  1.00  0.00     0.025 A 
HETATM    6  C4  UNK     1      18.151   7.653  33.306  1.00  0.00    -0.061 A 
HETATM    7  C5  UNK     1      18.497   3.203  31.081  1.00  0.00     0.147 A 
HETATM    8  C6  UNK     1      19.131   5.444  30.415  1.00  0.00     0.187 A 
HETATM    9  C7  UNK     1      17.573   5.364  33.832  1.00  0.00     0.039 A 
HETATM   10  C9  UNK     1      19.039   3.994  30.147  1.00  0.00     0.098 A 
HETATM   11  C10 UNK     1      17.614   6.713  34.187  1.00  0.00     0.009 A 
HETATM   12  C13 UNK     1      18.193   9.095  33.692  1.00  0.00     0.048 C 
ENDROOT
BRANCH   7  13
HETATM   13  C11 UNK     1      18.420   1.771  30.787  1.00  0.00     0.275 C 
HETATM   14  O3  UNK     1      17.985   1.367  29.708  1.00  0.00    -0.265 OA
HETATM   15  N1  UNK     1      18.874   0.979  31.828  1.00  0.00    -0.351 N 
HETATM   16  H7  UNK     1      19.199   1.420  32.684  1.00  0.00     0.163 HD
BRANCH  15  17
HETATM   17  C8  UNK     1      18.892  -0.465  31.773  1.00  0.00     0.161 C 
BRANCH  17  18
HETATM   18  C12 UNK     1      19.122  -1.075  33.130  1.00  0.00    -0.038 A 
HETATM   19  C14 UNK     1      18.387  -0.628  34.214  1.00  0.00     0.028 A 
HETATM   20  C16 UNK     1      18.636  -1.222  35.441  1.00  0.00     0.116 A 
HETATM   21  N2  UNK     1      19.547  -2.202  35.637  1.00  0.00    -0.273 NA
HETATM   22  C17 UNK     1      20.240  -2.604  34.548  1.00  0.00     0.116 A 
HETATM   23  C15 UNK     1      20.066  -2.075  33.279  1.00  0.00     0.028 A 
ENDBRANCH  17  18
ENDBRANCH  15  17
ENDBRANCH   7  13
TORSDOF 3
ENDMDL
MODEL 9
REMARK VINA RESULT:      -8.2     11.143     14.218
REMARK  3 active torsions:
REMARK  status: ('A' for Active; 'I' for Inactive)
REMARK       I    between atoms: C11_16  and  N1_4 
REMARK    1  A    between atoms: C8_13  and  N1_4 
REMARK    2  A    between atoms: C11_16  and  C5_10 
REMARK    3  A    between atoms: C12_17  and  C8_13 
ROOT
HETATM    1  O1  UNK     1      21.990  -9.270  35.405  1.00  0.00    -0.304 OA
HETATM    2  O2  UNK     1      19.275 -10.969  37.930  1.00  0.00    -0.287 OA
HETATM    3  C1  UNK     1      19.785  -9.215  36.426  1.00  0.00     0.048 A 
HETATM    4  C2  UNK     1      20.760  -8.686  35.578  1.00  0.00     0.090 A 
HETATM    5  C3  UNK     1      18.549  -8.579  36.564  1.00  0.00     0.025 A 
HETATM    6  C4  UNK     1      18.295  -7.410  35.847  1.00  0.00    -0.061 A 
HETATM    7  C5  UNK     1      22.258 -10.427  36.106  1.00  0.00     0.147 A 
HETATM    8  C6  UNK     1      20.082 -10.451  37.171  1.00  0.00     0.187 A 
HETATM    9  C7  UNK     1      20.501  -7.517  34.863  1.00  0.00     0.039 A 
HETATM   10  C9  UNK     1      21.419 -11.040  36.949  1.00  0.00     0.098 A 
HETATM   11  C10 UNK     1      19.268  -6.879  34.998  1.00  0.00     0.009 A 
HETATM   12  C13 UNK     1      16.976  -6.723  35.987  1.00  0.00     0.048 C 
ENDROOT
BRANCH   7  13
HETATM   13  C11 UNK     1      23.575 -11.034  35.906  1.00  0.00     0.275 C 
HETATM   14  O3  UNK     1      23.710 -12.043  35.213  1.00  0.00    -0.265 OA
HETATM   15  N1  UNK     1      24.588 -10.361  36.567  1.00  0.00    -0.351 N 
HETATM   16  H7  UNK     1      24.360  -9.543  37.126  1.00  0.00     0.163 HD
BRANCH  15  17
HETATM   17  C8  UNK     1      25.972 -10.773  36.522  1.00  0.00     0.161 C 
BRANCH  17  18
HETATM   18  C12 UNK     1      26.873  -9.791  37.221  1.00  0.00    -0.038 A 
HETATM   19  C14 UNK     1      27.459  -8.766  36.499  1.00  0.00     0.028 A 
HETATM   20  C16 UNK     1      28.279  -7.888  37.189  1.00  0.00     0.116 A 
HETATM   21  N2  UNK     1      28.536  -7.975  38.513  1.00  0.00    -0.273 NA
HETATM   22  C17 UNK     1      27.941  -8.993  39.175  1.00  0.00     0.116 A 
HETATM   23  C15 UNK     1      27.105  -9.923  38.578  1.00  0.00     0.028 A 
ENDBRANCH  17  18
ENDBRANCH  15  17
ENDBRANCH   7  13
TORSDOF 3
ENDMDL
MODEL 10
REMARK VINA RESULT:      -8.1      6.408      8.383
REMARK  3 active torsions:
REMARK  status: ('A' for Active; 'I' for Inactive)
REMARK       I    between atoms: C11_16  and  N1_4 
REMARK    1  A    between atoms: C8_13  and  N1_4 
REMARK    2  A    between atoms: C11_16  and  C5_10 
REMARK    3  A    between atoms: C12_17  and  C8_13 
ROOT
HETATM    1  O1  UNK     1      21.499  -4.217  37.240  1.00  0.00    -0.304 OA
HETATM    2  O2  UNK     1      18.345  -6.802  37.332  1.00  0.00    -0.287 OA
HETATM    3  C1  UNK     1      20.544  -6.301  38.048  1.00  0.00     0.048 A 
HETATM    4  C2  UNK     1      21.586  -5.375  37.974  1.00  0.00     0.090 A 
HETATM    5  C3  UNK     1      20.687  -7.463  38.810  1.00  0.00     0.025 A 
HETATM    6  C4  UNK     1      21.879  -7.691  39.498  1.00  0.00    -0.061 A 
HETATM    7  C5  UNK     1      20.327  -3.976  36.554  1.00  0.00     0.147 A 
HETATM    8  C6  UNK     1      19.297  -6.034  37.311  1.00  0.00     0.187 A 
HETATM    9  C7  UNK     1      22.776  -5.607  38.663  1.00  0.00     0.039 A 
HETATM   10  C9  UNK     1      19.254  -4.775  36.538  1.00  0.00     0.098 A 
HETATM   11  C10 UNK     1      22.921  -6.766  39.426  1.00  0.00     0.009 A 
HETATM   12  C13 UNK     1      22.040  -8.929  40.317  1.00  0.00     0.048 C 
ENDROOT
BRANCH   7  13
HETATM   13  C11 UNK     1      20.255  -2.736  35.780  1.00  0.00     0.275 C 
HETATM   14  O3  UNK     1      21.277  -2.141  35.437  1.00  0.00    -0.265 OA
HETATM   15  N1  UNK     1      18.956  -2.345  35.505  1.00  0.00    -0.351 N 
HETATM   16  H7  UNK     1      18.183  -2.907  35.851  1.00  0.00     0.163 HD
BRANCH  15  17
HETATM   17  C8  UNK     1      18.631  -1.151  34.757  1.00  0.00     0.161 C 
BRANCH  17  18
HETATM   18  C12 UNK     1      17.895  -0.144  35.600  1.00  0.00    -0.038 A 
HETATM   19  C14 UNK     1      16.525  -0.255  35.758  1.00  0.00     0.028 A 
HETATM   20  C16 UNK     1      15.896   0.697  36.544  1.00  0.00     0.116 A 
HETATM   21  N2  UNK     1      16.537   1.716  37.159  1.00  0.00    -0.273 NA
HETATM   22  C17 UNK     1      17.875   1.781  36.974  1.00  0.00     0.116 A 
HETATM   23  C15 UNK     1      18.598   0.881  36.208  1.00  0.00     0.028 A 
ENDBRANCH  17  18
ENDBRANCH  15  17
ENDBRANCH   7  13
TORSDOF 3
ENDMDL
