MODEL 1
REMARK VINA RESULT:      -9.2      0.000      0.000
REMARK  4 active torsions:
REMARK  status: ('A' for Active; 'I' for Inactive)
REMARK    1  A    between atoms: C3_7  and  O1_1 
REMARK    2  A    between atoms: C7_11  and  O1_1 
REMARK    3  A    between atoms: C10_14  and  C7_11 
REMARK    4  A    between atoms: C10_14  and  C9_13 
ROOT
HETATM    1  O2  UNK     1      17.393   6.759  33.817  1.00  0.00    -0.275 OA
HETATM    2  O4  UNK     1      16.757   7.988  35.641  1.00  0.00    -0.260 OA
HETATM    3  C1  UNK     1      19.704   6.874  33.059  1.00  0.00    -0.002 A 
HETATM    4  C2  UNK     1      18.412   6.372  32.922  1.00  0.00     0.092 A 
HETATM    5  C3  UNK     1      19.062   5.077  31.008  1.00  0.00     0.072 A 
HETATM    6  C4  UNK     1      18.077   5.477  31.908  1.00  0.00     0.075 A 
HETATM    7  C5  UNK     1      20.686   6.468  32.153  1.00  0.00     0.017 A 
HETATM    8  C6  UNK     1      20.364   5.571  31.129  1.00  0.00     0.038 A 
HETATM    9  C8  UNK     1      19.983   7.804  34.140  1.00  0.00     0.020 A 
HETATM   10  C11 UNK     1      19.012   8.165  34.983  1.00  0.00     0.083 A 
HETATM   11  C14 UNK     1      17.637   7.647  34.859  1.00  0.00     0.288 A 
ENDROOT
BRANCH   5  12
HETATM   12  O1  UNK     1      18.758   4.205  30.009  1.00  0.00    -0.344 OA
BRANCH  12  13
HETATM   13  C7  UNK     1      18.209   2.945  30.392  1.00  0.00     0.259 C 
BRANCH  13  14
HETATM   14  C10 UNK     1      18.449   1.920  29.300  1.00  0.00     0.183 C 
HETATM   15  O3  UNK     1      18.070   2.106  28.146  1.00  0.00    -0.290 OA
BRANCH  14  16
HETATM   16  C9  UNK     1      19.165   0.657  29.646  1.00  0.00     0.012 A 
HETATM   17  C12 UNK     1      19.325   0.333  30.974  1.00  0.00     0.015 A 
HETATM   18  C15 UNK     1      19.994  -0.848  31.298  1.00  0.00     0.001 A 
HETATM   19  C17 UNK     1      20.484  -1.672  30.285  1.00  0.00     0.000 A 
HETATM   20  C16 UNK     1      20.305  -1.315  28.949  1.00  0.00     0.001 A 
HETATM   21  C13 UNK     1      19.636  -0.135  28.626  1.00  0.00     0.015 A 
ENDBRANCH  14  16
ENDBRANCH  13  14
ENDBRANCH  12  13
ENDBRANCH   5  12
TORSDOF 4
ENDMDL
MODEL 2
REMARK VINA RESULT:      -9.0      2.379      7.709
REMARK  4 active torsions:
REMARK  status: ('A' for Active; 'I' for Inactive)
REMARK    1  A    between atoms: C3_7  and  O1_1 
REMARK    2  A    between atoms: C7_11  and  O1_1 
REMARK    3  A    between atoms: C10_14  and  C7_11 
REMARK    4  A    between atoms: C10_14  and  C9_13 
ROOT
HETATM    1  O2  UNK     1      19.971  -1.132  32.554  1.00  0.00    -0.275 OA
HETATM    2  O4  UNK     1      20.687  -2.886  33.842  1.00  0.00    -0.260 OA
HETATM    3  C1  UNK     1      20.165  -1.285  30.132  1.00  0.00    -0.002 A 
HETATM    4  C2  UNK     1      19.790  -0.576  31.271  1.00  0.00     0.092 A 
HETATM    5  C3  UNK     1      19.036   1.271  29.936  1.00  0.00     0.072 A 
HETATM    6  C4  UNK     1      19.227   0.695  31.190  1.00  0.00     0.075 A 
HETATM    7  C5  UNK     1      19.970  -0.701  28.879  1.00  0.00     0.017 A 
HETATM    8  C6  UNK     1      19.406   0.575  28.783  1.00  0.00     0.038 A 
HETATM    9  C8  UNK     1      20.747  -2.607  30.290  1.00  0.00     0.020 A 
HETATM   10  C11 UNK     1      20.915  -3.126  31.509  1.00  0.00     0.083 A 
HETATM   11  C14 UNK     1      20.526  -2.396  32.729  1.00  0.00     0.288 A 
ENDROOT
BRANCH   5  12
HETATM   12  O1  UNK     1      18.488   2.513  29.833  1.00  0.00    -0.344 OA
BRANCH  12  13
HETATM   13  C7  UNK     1      18.329   3.255  31.042  1.00  0.00     0.259 C 
BRANCH  13  14
HETATM   14  C10 UNK     1      18.772   4.689  30.833  1.00  0.00     0.183 C 
HETATM   15  O3  UNK     1      19.034   5.127  29.715  1.00  0.00    -0.290 OA
BRANCH  14  16
HETATM   16  C9  UNK     1      18.892   5.583  32.021  1.00  0.00     0.012 A 
HETATM   17  C12 UNK     1      17.805   5.723  32.854  1.00  0.00     0.015 A 
HETATM   18  C15 UNK     1      17.917   6.559  33.965  1.00  0.00     0.001 A 
HETATM   19  C17 UNK     1      19.113   7.232  34.213  1.00  0.00     0.000 A 
HETATM   20  C16 UNK     1      20.197   7.070  33.350  1.00  0.00     0.001 A 
HETATM   21  C13 UNK     1      20.084   6.234  32.240  1.00  0.00     0.015 A 
ENDBRANCH  14  16
ENDBRANCH  13  14
ENDBRANCH  12  13
ENDBRANCH   5  12
TORSDOF 4
ENDMDL
MODEL 3
REMARK VINA RESULT:      -8.8      2.151      7.894
REMARK  4 active torsions:
REMARK  status: ('A' for Active; 'I' for Inactive)
REMARK    1  A    between atoms: C3_7  and  O1_1 
REMARK    2  A    between atoms: C7_11  and  O1_1 
REMARK    3  A    between atoms: C10_14  and  C7_11 
REMARK    4  A    between atoms: C10_14  and  C9_13 
ROOT
HETATM    1  O2  UNK     1      19.871  -0.643  31.965  1.00  0.00    -0.275 OA
HETATM    2  O4  UNK     1      20.925  -2.663  32.206  1.00  0.00    -0.260 OA
HETATM    3  C1  UNK     1      19.537   0.259  29.729  1.00  0.00    -0.002 A 
HETATM    4  C2  UNK     1      19.390   0.369  31.110  1.00  0.00     0.092 A 
HETATM    5  C3  UNK     1      18.285   2.487  30.874  1.00  0.00     0.072 A 
HETATM    6  C4  UNK     1      18.770   1.470  31.694  1.00  0.00     0.075 A 
HETATM    7  C5  UNK     1      19.049   1.281  28.914  1.00  0.00     0.017 A 
HETATM    8  C6  UNK     1      18.424   2.394  29.487  1.00  0.00     0.038 A 
HETATM    9  C8  UNK     1      20.195  -0.918  29.186  1.00  0.00     0.020 A 
HETATM   10  C11 UNK     1      20.648  -1.872  30.004  1.00  0.00     0.083 A 
HETATM   11  C14 UNK     1      20.504  -1.778  31.468  1.00  0.00     0.288 A 
ENDROOT
BRANCH   5  12
HETATM   12  O1  UNK     1      17.676   3.573  31.424  1.00  0.00    -0.344 OA
BRANCH  12  13
HETATM   13  C7  UNK     1      18.364   4.237  32.483  1.00  0.00     0.259 C 
BRANCH  13  14
HETATM   14  C10 UNK     1      19.063   5.474  31.953  1.00  0.00     0.183 C 
HETATM   15  O3  UNK     1      19.759   5.438  30.940  1.00  0.00    -0.290 OA
BRANCH  14  16
HETATM   16  C9  UNK     1      18.897   6.761  32.688  1.00  0.00     0.012 A 
HETATM   17  C12 UNK     1      17.740   7.483  32.501  1.00  0.00     0.015 A 
HETATM   18  C15 UNK     1      17.584   8.687  33.189  1.00  0.00     0.001 A 
HETATM   19  C17 UNK     1      18.590   9.136  34.043  1.00  0.00     0.000 A 
HETATM   20  C16 UNK     1      19.752   8.383  34.211  1.00  0.00     0.001 A 
HETATM   21  C13 UNK     1      19.906   7.179  33.524  1.00  0.00     0.015 A 
ENDBRANCH  14  16
ENDBRANCH  13  14
ENDBRANCH  12  13
ENDBRANCH   5  12
TORSDOF 4
ENDMDL
MODEL 4
REMARK VINA RESULT:      -8.8      1.749      2.334
REMARK  4 active torsions:
REMARK  status: ('A' for Active; 'I' for Inactive)
REMARK    1  A    between atoms: C3_7  and  O1_1 
REMARK    2  A    between atoms: C7_11  and  O1_1 
REMARK    3  A    between atoms: C10_14  and  C7_11 
REMARK    4  A    between atoms: C10_14  and  C9_13 
ROOT
HETATM    1  O2  UNK     1      16.421   8.178  32.086  1.00  0.00    -0.275 OA
HETATM    2  O4  UNK     1      14.848   9.758  32.606  1.00  0.00    -0.260 OA
HETATM    3  C1  UNK     1      18.448   8.036  33.427  1.00  0.00    -0.002 A 
HETATM    4  C2  UNK     1      17.667   7.580  32.368  1.00  0.00     0.092 A 
HETATM    5  C3  UNK     1      19.306   5.918  31.809  1.00  0.00     0.072 A 
HETATM    6  C4  UNK     1      18.080   6.528  31.554  1.00  0.00     0.075 A 
HETATM    7  C5  UNK     1      19.676   7.420  33.676  1.00  0.00     0.017 A 
HETATM    8  C6  UNK     1      20.103   6.363  32.866  1.00  0.00     0.038 A 
HETATM    9  C8  UNK     1      17.956   9.139  34.236  1.00  0.00     0.020 A 
HETATM   10  C11 UNK     1      16.775   9.699  33.961  1.00  0.00     0.083 A 
HETATM   11  C14 UNK     1      15.930   9.234  32.846  1.00  0.00     0.288 A 
ENDROOT
BRANCH   5  12
HETATM   12  O1  UNK     1      19.730   4.888  31.026  1.00  0.00    -0.344 OA
BRANCH  12  13
HETATM   13  C7  UNK     1      18.749   4.241  30.217  1.00  0.00     0.259 C 
BRANCH  13  14
HETATM   14  C10 UNK     1      18.415   2.879  30.796  1.00  0.00     0.183 C 
HETATM   15  O3  UNK     1      17.742   2.760  31.816  1.00  0.00    -0.290 OA
BRANCH  14  16
HETATM   16  C9  UNK     1      18.924   1.661  30.101  1.00  0.00     0.012 A 
HETATM   17  C12 UNK     1      18.409   1.344  28.864  1.00  0.00     0.015 A 
HETATM   18  C15 UNK     1      18.885   0.205  28.214  1.00  0.00     0.001 A 
HETATM   19  C17 UNK     1      19.862  -0.586  28.819  1.00  0.00     0.000 A 
HETATM   20  C16 UNK     1      20.362  -0.238  30.074  1.00  0.00     0.001 A 
HETATM   21  C13 UNK     1      19.887   0.901  30.722  1.00  0.00     0.015 A 
ENDBRANCH  14  16
ENDBRANCH  13  14
ENDBRANCH  12  13
ENDBRANCH   5  12
TORSDOF 4
ENDMDL
MODEL 5
REMARK VINA RESULT:      -8.4     21.915     24.636
REMARK  4 active torsions:
REMARK  status: ('A' for Active; 'I' for Inactive)
REMARK    1  A    between atoms: C3_7  and  O1_1 
REMARK    2  A    between atoms: C7_11  and  O1_1 
REMARK    3  A    between atoms: C10_14  and  C7_11 
REMARK    4  A    between atoms: C10_14  and  C9_13 
ROOT
HETATM    1  O2  UNK     1       9.758   5.610   8.706  1.00  0.00    -0.275 OA
HETATM    2  O4  UNK     1       7.597   5.622   7.945  1.00  0.00    -0.260 OA
HETATM    3  C1  UNK     1      11.560   6.158   7.163  1.00  0.00    -0.002 A 
HETATM    4  C2  UNK     1      11.129   5.795   8.437  1.00  0.00     0.092 A 
HETATM    5  C3  UNK     1      13.388   5.776   9.251  1.00  0.00     0.072 A 
HETATM    6  C4  UNK     1      12.026   5.602   9.486  1.00  0.00     0.075 A 
HETATM    7  C5  UNK     1      12.926   6.332   6.936  1.00  0.00     0.017 A 
HETATM    8  C6  UNK     1      13.838   6.140   7.979  1.00  0.00     0.038 A 
HETATM    9  C8  UNK     1      10.569   6.343   6.116  1.00  0.00     0.020 A 
HETATM   10  C11 UNK     1       9.272   6.165   6.379  1.00  0.00     0.083 A 
HETATM   11  C14 UNK     1       8.792   5.781   7.719  1.00  0.00     0.288 A 
ENDROOT
BRANCH   5  12
HETATM   12  O1  UNK     1      14.282   5.592  10.260  1.00  0.00    -0.344 OA
BRANCH  12  13
HETATM   13  C7  UNK     1      15.561   6.209  10.115  1.00  0.00     0.259 C 
BRANCH  13  14
HETATM   14  C10 UNK     1      15.553   7.580  10.762  1.00  0.00     0.183 C 
HETATM   15  O3  UNK     1      15.287   7.730  11.952  1.00  0.00    -0.290 OA
BRANCH  14  16
HETATM   16  C9  UNK     1      15.875   8.771   9.923  1.00  0.00     0.012 A 
HETATM   17  C12 UNK     1      17.156   9.273   9.955  1.00  0.00     0.015 A 
HETATM   18  C15 UNK     1      17.458  10.386   9.170  1.00  0.00     0.001 A 
HETATM   19  C17 UNK     1      16.470  10.967   8.375  1.00  0.00     0.000 A 
HETATM   20  C16 UNK     1      15.181  10.435   8.365  1.00  0.00     0.001 A 
HETATM   21  C13 UNK     1      14.880   9.322   9.149  1.00  0.00     0.015 A 
ENDBRANCH  14  16
ENDBRANCH  13  14
ENDBRANCH  12  13
ENDBRANCH   5  12
TORSDOF 4
ENDMDL
MODEL 6
REMARK VINA RESULT:      -8.4      4.769      8.102
REMARK  4 active torsions:
REMARK  status: ('A' for Active; 'I' for Inactive)
REMARK    1  A    between atoms: C3_7  and  O1_1 
REMARK    2  A    between atoms: C7_11  and  O1_1 
REMARK    3  A    between atoms: C10_14  and  C7_11 
REMARK    4  A    between atoms: C10_14  and  C9_13 
ROOT
HETATM    1  O2  UNK     1      18.603   0.644  31.231  1.00  0.00    -0.275 OA
HETATM    2  O4  UNK     1      17.879   2.248  29.766  1.00  0.00    -0.260 OA
HETATM    3  C1  UNK     1      20.078  -1.118  30.425  1.00  0.00    -0.002 A 
HETATM    4  C2  UNK     1      19.364  -0.521  31.462  1.00  0.00     0.092 A 
HETATM    5  C3  UNK     1      20.113  -2.195  33.010  1.00  0.00     0.072 A 
HETATM    6  C4  UNK     1      19.371  -1.045  32.753  1.00  0.00     0.075 A 
HETATM    7  C5  UNK     1      20.819  -2.271  30.692  1.00  0.00     0.017 A 
HETATM    8  C6  UNK     1      20.835  -2.808  31.983  1.00  0.00     0.038 A 
HETATM    9  C8  UNK     1      20.025  -0.518  29.102  1.00  0.00     0.020 A 
HETATM   10  C11 UNK     1      19.302   0.585  28.893  1.00  0.00     0.083 A 
HETATM   11  C14 UNK     1      18.538   1.235  29.974  1.00  0.00     0.288 A 
ENDROOT
BRANCH   5  12
HETATM   12  O1  UNK     1      20.134  -2.725  34.264  1.00  0.00    -0.344 OA
BRANCH  12  13
HETATM   13  C7  UNK     1      20.076  -1.809  35.357  1.00  0.00     0.259 C 
BRANCH  13  14
HETATM   14  C10 UNK     1      18.861  -2.102  36.216  1.00  0.00     0.183 C 
HETATM   15  O3  UNK     1      18.739  -3.166  36.819  1.00  0.00    -0.290 OA
BRANCH  14  16
HETATM   16  C9  UNK     1      17.794  -1.066  36.324  1.00  0.00     0.012 A 
HETATM   17  C12 UNK     1      16.814  -1.025  35.358  1.00  0.00     0.015 A 
HETATM   18  C15 UNK     1      15.815  -0.056  35.460  1.00  0.00     0.001 A 
HETATM   19  C17 UNK     1      15.824   0.845  36.524  1.00  0.00     0.000 A 
HETATM   20  C16 UNK     1      16.831   0.778  37.486  1.00  0.00     0.001 A 
HETATM   21  C13 UNK     1      17.829  -0.191  37.385  1.00  0.00     0.015 A 
ENDBRANCH  14  16
ENDBRANCH  13  14
ENDBRANCH  12  13
ENDBRANCH   5  12
TORSDOF 4
ENDMDL
MODEL 7
REMARK VINA RESULT:      -8.2      1.630      2.399
REMARK  4 active torsions:
REMARK  status: ('A' for Active; 'I' for Inactive)
REMARK    1  A    between atoms: C3_7  and  O1_1 
REMARK    2  A    between atoms: C7_11  and  O1_1 
REMARK    3  A    between atoms: C10_14  and  C7_11 
REMARK    4  A    between atoms: C10_14  and  C9_13 
ROOT
HETATM    1  O2  UNK     1      20.285   7.819  33.503  1.00  0.00    -0.275 OA
HETATM    2  O4  UNK     1      20.727   9.657  34.797  1.00  0.00    -0.260 OA
HETATM    3  C1  UNK     1      17.974   7.127  33.179  1.00  0.00    -0.002 A 
HETATM    4  C2  UNK     1      19.334   6.943  32.942  1.00  0.00     0.092 A 
HETATM    5  C3  UNK     1      18.888   5.014  31.583  1.00  0.00     0.072 A 
HETATM    6  C4  UNK     1      19.804   5.897  32.150  1.00  0.00     0.075 A 
HETATM    7  C5  UNK     1      17.062   6.238  32.606  1.00  0.00     0.017 A 
HETATM    8  C6  UNK     1      17.520   5.183  31.810  1.00  0.00     0.038 A 
HETATM    9  C8  UNK     1      17.553   8.239  34.015  1.00  0.00     0.020 A 
HETATM   10  C11 UNK     1      18.461   9.064  34.542  1.00  0.00     0.083 A 
HETATM   11  C14 UNK     1      19.906   8.890  34.305  1.00  0.00     0.288 A 
ENDROOT
BRANCH   5  12
HETATM   12  O1  UNK     1      19.325   3.985  30.807  1.00  0.00    -0.344 OA
BRANCH  12  13
HETATM   13  C7  UNK     1      18.376   2.972  30.477  1.00  0.00     0.259 C 
BRANCH  13  14
HETATM   14  C10 UNK     1      18.617   1.738  31.324  1.00  0.00     0.183 C 
HETATM   15  O3  UNK     1      18.276   1.689  32.504  1.00  0.00    -0.290 OA
BRANCH  14  16
HETATM   16  C9  UNK     1      19.285   0.560  30.700  1.00  0.00     0.012 A 
HETATM   17  C12 UNK     1      19.615   0.618  29.365  1.00  0.00     0.015 A 
HETATM   18  C15 UNK     1      20.241  -0.484  28.781  1.00  0.00     0.001 A 
HETATM   19  C17 UNK     1      20.520  -1.614  29.549  1.00  0.00     0.000 A 
HETATM   20  C16 UNK     1      20.173  -1.643  30.900  1.00  0.00     0.001 A 
HETATM   21  C13 UNK     1      19.548  -0.541  31.482  1.00  0.00     0.015 A 
ENDBRANCH  14  16
ENDBRANCH  13  14
ENDBRANCH  12  13
ENDBRANCH   5  12
TORSDOF 4
ENDMDL
MODEL 8
REMARK VINA RESULT:      -8.2      5.351      8.649
REMARK  4 active torsions:
REMARK  status: ('A' for Active; 'I' for Inactive)
REMARK    1  A    between atoms: C3_7  and  O1_1 
REMARK    2  A    between atoms: C7_11  and  O1_1 
REMARK    3  A    between atoms: C10_14  and  C7_11 
REMARK    4  A    between atoms: C10_14  and  C9_13 
ROOT
HETATM    1  O2  UNK     1      18.660   0.668  30.883  1.00  0.00    -0.275 OA
HETATM    2  O4  UNK     1      18.334   1.866  28.958  1.00  0.00    -0.260 OA
HETATM    3  C1  UNK     1      20.157  -1.251  30.844  1.00  0.00    -0.002 A 
HETATM    4  C2  UNK     1      19.290  -0.410  31.537  1.00  0.00     0.092 A 
HETATM    5  C3  UNK     1      19.620  -1.655  33.563  1.00  0.00     0.072 A 
HETATM    6  C4  UNK     1      19.013  -0.598  32.890  1.00  0.00     0.075 A 
HETATM    7  C5  UNK     1      20.762  -2.308  31.526  1.00  0.00     0.017 A 
HETATM    8  C6  UNK     1      20.492  -2.509  32.884  1.00  0.00     0.038 A 
HETATM    9  C8  UNK     1      20.400  -0.997  29.434  1.00  0.00     0.020 A 
HETATM   10  C11 UNK     1      19.800   0.025  28.822  1.00  0.00     0.083 A 
HETATM   11  C14 UNK     1      18.878   0.930  29.534  1.00  0.00     0.288 A 
ENDROOT
BRANCH   5  12
HETATM   12  O1  UNK     1      19.363  -1.858  34.885  1.00  0.00    -0.344 OA
BRANCH  12  13
HETATM   13  C7  UNK     1      20.484  -2.105  35.733  1.00  0.00     0.259 C 
BRANCH  13  14
HETATM   14  C10 UNK     1      20.061  -2.950  36.919  1.00  0.00     0.183 C 
HETATM   15  O3  UNK     1      19.447  -2.468  37.868  1.00  0.00    -0.290 OA
BRANCH  14  16
HETATM   16  C9  UNK     1      20.404  -4.402  36.923  1.00  0.00     0.012 A 
HETATM   17  C12 UNK     1      19.856  -5.212  35.955  1.00  0.00     0.015 A 
HETATM   18  C15 UNK     1      20.177  -6.570  35.959  1.00  0.00     0.001 A 
HETATM   19  C17 UNK     1      21.037  -7.080  36.932  1.00  0.00     0.000 A 
HETATM   20  C16 UNK     1      21.576  -6.233  37.900  1.00  0.00     0.001 A 
HETATM   21  C13 UNK     1      21.255  -4.875  37.895  1.00  0.00     0.015 A 
ENDBRANCH  14  16
ENDBRANCH  13  14
ENDBRANCH  12  13
ENDBRANCH   5  12
TORSDOF 4
ENDMDL
MODEL 9
REMARK VINA RESULT:      -8.2      8.324     12.346
REMARK  4 active torsions:
REMARK  status: ('A' for Active; 'I' for Inactive)
REMARK    1  A    between atoms: C3_7  and  O1_1 
REMARK    2  A    between atoms: C7_11  and  O1_1 
REMARK    3  A    between atoms: C10_14  and  C7_11 
REMARK    4  A    between atoms: C10_14  and  C9_13 
ROOT
HETATM    1  O2  UNK     1      20.888  -8.275  34.974  1.00  0.00    -0.275 OA
HETATM    2  O4  UNK     1      21.694 -10.293  34.252  1.00  0.00    -0.260 OA
HETATM    3  C1  UNK     1      21.579  -7.435  37.152  1.00  0.00    -0.002 A 
HETATM    4  C2  UNK     1      20.847  -7.285  35.977  1.00  0.00     0.092 A 
HETATM    5  C3  UNK     1      19.992  -5.168  36.720  1.00  0.00     0.072 A 
HETATM    6  C4  UNK     1      20.053  -6.163  35.747  1.00  0.00     0.075 A 
HETATM    7  C5  UNK     1      21.512  -6.434  38.123  1.00  0.00     0.017 A 
HETATM    8  C6  UNK     1      20.719  -5.303  37.906  1.00  0.00     0.038 A 
HETATM    9  C8  UNK     1      22.385  -8.632  37.327  1.00  0.00     0.020 A 
HETATM   10  C11 UNK     1      22.419  -9.564  36.372  1.00  0.00     0.083 A 
HETATM   11  C14 UNK     1      21.653  -9.428  35.119  1.00  0.00     0.288 A 
ENDROOT
BRANCH   5  12
HETATM   12  O1  UNK     1      19.222  -4.064  36.517  1.00  0.00    -0.344 OA
BRANCH  12  13
HETATM   13  C7  UNK     1      19.849  -2.795  36.694  1.00  0.00     0.259 C 
BRANCH  13  14
HETATM   14  C10 UNK     1      19.396  -1.836  35.610  1.00  0.00     0.183 C 
HETATM   15  O3  UNK     1      19.994  -1.741  34.541  1.00  0.00    -0.290 OA
BRANCH  14  16
HETATM   16  C9  UNK     1      18.192  -0.990  35.859  1.00  0.00     0.012 A 
HETATM   17  C12 UNK     1      17.992  -0.483  37.122  1.00  0.00     0.015 A 
HETATM   18  C15 UNK     1      16.867   0.309  37.355  1.00  0.00     0.001 A 
HETATM   19  C17 UNK     1      15.972   0.570  36.317  1.00  0.00     0.000 A 
HETATM   20  C16 UNK     1      16.203   0.041  35.048  1.00  0.00     0.001 A 
HETATM   21  C13 UNK     1      17.328  -0.749  34.816  1.00  0.00     0.015 A 
ENDBRANCH  14  16
ENDBRANCH  13  14
ENDBRANCH  12  13
ENDBRANCH   5  12
TORSDOF 4
ENDMDL
MODEL 10
REMARK VINA RESULT:      -8.2     22.050     24.241
REMARK  4 active torsions:
REMARK  status: ('A' for Active; 'I' for Inactive)
REMARK    1  A    between atoms: C3_7  and  O1_1 
REMARK    2  A    between atoms: C7_11  and  O1_1 
REMARK    3  A    between atoms: C10_14  and  C7_11 
REMARK    4  A    between atoms: C10_14  and  C9_13 
ROOT
HETATM    1  O2  UNK     1      14.884  10.182   8.297  1.00  0.00    -0.275 OA
HETATM    2  O4  UNK     1      15.393  12.203   7.346  1.00  0.00    -0.260 OA
HETATM    3  C1  UNK     1      16.536   9.091   9.713  1.00  0.00    -0.002 A 
HETATM    4  C2  UNK     1      15.278   9.104   9.116  1.00  0.00     0.092 A 
HETATM    5  C3  UNK     1      14.730   6.987  10.104  1.00  0.00     0.072 A 
HETATM    6  C4  UNK     1      14.369   8.065   9.301  1.00  0.00     0.075 A 
HETATM    7  C5  UNK     1      16.891   8.006  10.517  1.00  0.00     0.017 A 
HETATM    8  C6  UNK     1      15.988   6.956  10.711  1.00  0.00     0.038 A 
HETATM    9  C8  UNK     1      17.436  10.208   9.476  1.00  0.00     0.020 A 
HETATM   10  C11 UNK     1      17.055  11.224   8.700  1.00  0.00     0.083 A 
HETATM   11  C14 UNK     1      15.728  11.261   8.057  1.00  0.00     0.288 A 
ENDROOT
BRANCH   5  12
HETATM   12  O1  UNK     1      13.857   5.960  10.299  1.00  0.00    -0.344 OA
BRANCH  12  13
HETATM   13  C7  UNK     1      13.273   5.376   9.135  1.00  0.00     0.259 C 
BRANCH  13  14
HETATM   14  C10 UNK     1      11.762   5.361   9.265  1.00  0.00     0.183 C 
HETATM   15  O3  UNK     1      11.208   5.048  10.316  1.00  0.00    -0.290 OA
BRANCH  14  16
HETATM   16  C9  UNK     1      10.937   5.736   8.080  1.00  0.00     0.012 A 
HETATM   17  C12 UNK     1       9.581   5.898   8.245  1.00  0.00     0.015 A 
HETATM   18  C15 UNK     1       8.809   6.249   7.137  1.00  0.00     0.001 A 
HETATM   19  C17 UNK     1       9.415   6.428   5.894  1.00  0.00     0.000 A 
HETATM   20  C16 UNK     1      10.793   6.255   5.759  1.00  0.00     0.001 A 
HETATM   21  C13 UNK     1      11.564   5.905   6.867  1.00  0.00     0.015 A 
ENDBRANCH  14  16
ENDBRANCH  13  14
ENDBRANCH  12  13
ENDBRANCH   5  12
TORSDOF 4
ENDMDL
