MODEL 1
REMARK VINA RESULT:      -8.4      0.000      0.000
REMARK  7 active torsions:
REMARK  status: ('A' for Active; 'I' for Inactive)
REMARK    1  A    between atoms: C14_20  and  O1_1 
REMARK    2  A    between atoms: C3_9  and  O1_1 
REMARK    3  A    between atoms: C2_8  and  N1_6 
REMARK       I    between atoms: C6_12  and  N1_6 
REMARK    4  A    between atoms: C1_7  and  C2_8 
REMARK    5  A    between atoms: C1_7  and  C3_9 
REMARK    6  A    between atoms: C4_10  and  C6_12 
REMARK    7  A    between atoms: C14_20  and  C15_21 
ROOT
HETATM    1  O3  UNK     1      18.030   3.081  28.633  1.00  0.00    -0.267 OA
HETATM    2  N1  UNK     1      19.214   4.159  30.327  1.00  0.00    -0.357 N 
HETATM    3  C6  UNK     1      18.681   3.061  29.675  1.00  0.00     0.257 C 
HETATM    4  H7  UNK     1      19.762   4.035  31.173  1.00  0.00     0.162 HD
ENDROOT
BRANCH   3   5
HETATM    5  C4  UNK     1      18.972   1.795  30.359  1.00  0.00     0.108 A 
HETATM    6  C7  UNK     1      19.602   0.862  29.634  1.00  0.00     0.037 A 
HETATM    7  C5  UNK     1      19.932  -0.425  30.224  1.00  0.00    -0.001 A 
HETATM    8  C10 UNK     1      20.588  -1.428  29.505  1.00  0.00     0.014 A 
HETATM    9  C8  UNK     1      19.582  -0.669  31.549  1.00  0.00     0.089 A 
HETATM   10  C12 UNK     1      20.884  -2.649  30.118  1.00  0.00     0.001 A 
HETATM   11  C13 UNK     1      20.525  -2.875  31.448  1.00  0.00     0.003 A 
HETATM   12  C11 UNK     1      19.870  -1.881  32.172  1.00  0.00     0.038 A 
HETATM   13  O2  UNK     1      18.920   0.317  32.306  1.00  0.00    -0.274 OA
HETATM   14  C9  UNK     1      18.591   1.558  31.770  1.00  0.00     0.304 A 
HETATM   15  O4  UNK     1      18.013   2.410  32.436  1.00  0.00    -0.259 OA
ENDBRANCH   3   5
BRANCH   2  16
HETATM   16  C2  UNK     1      19.062   5.512  29.843  1.00  0.00     0.125 C 
BRANCH  16  17
HETATM   17  C1  UNK     1      18.914   6.522  30.974  1.00  0.00     0.046 C 
BRANCH  17  18
HETATM   18  C3  UNK     1      17.745   6.205  31.899  1.00  0.00     0.180 C 
BRANCH  18  19
HETATM   19  O1  UNK     1      17.292   7.415  32.492  1.00  0.00    -0.321 OA
BRANCH  19  20
HETATM   20  C14 UNK     1      16.212   8.007  31.893  1.00  0.00     0.258 C 
HETATM   21  O5  UNK     1      16.195   8.482  30.765  1.00  0.00    -0.265 OA
BRANCH  20  22
HETATM   22  C15 UNK     1      15.037   7.981  32.843  1.00  0.00     0.106 C 
HETATM   23  C16 UNK     1      13.874   7.175  32.293  1.00  0.00     0.015 C 
ENDBRANCH  20  22
ENDBRANCH  19  20
ENDBRANCH  18  19
ENDBRANCH  17  18
ENDBRANCH  16  17
ENDBRANCH   2  16
TORSDOF 7
ENDMDL
MODEL 2
REMARK VINA RESULT:      -8.3      3.011      5.516
REMARK  7 active torsions:
REMARK  status: ('A' for Active; 'I' for Inactive)
REMARK    1  A    between atoms: C14_20  and  O1_1 
REMARK    2  A    between atoms: C3_9  and  O1_1 
REMARK    3  A    between atoms: C2_8  and  N1_6 
REMARK       I    between atoms: C6_12  and  N1_6 
REMARK    4  A    between atoms: C1_7  and  C2_8 
REMARK    5  A    between atoms: C1_7  and  C3_9 
REMARK    6  A    between atoms: C4_10  and  C6_12 
REMARK    7  A    between atoms: C14_20  and  C15_21 
ROOT
HETATM    1  O3  UNK     1      19.994  -2.435  30.527  1.00  0.00    -0.267 OA
HETATM    2  N1  UNK     1      19.616  -0.138  30.637  1.00  0.00    -0.357 N 
HETATM    3  C6  UNK     1      19.716  -1.417  31.155  1.00  0.00     0.257 C 
HETATM    4  H7  UNK     1      19.405   0.646  31.247  1.00  0.00     0.162 HD
ENDROOT
BRANCH   3   5
HETATM    5  C4  UNK     1      19.454  -1.469  32.598  1.00  0.00     0.108 A 
HETATM    6  C7  UNK     1      18.431  -0.728  33.041  1.00  0.00     0.037 A 
HETATM    7  C5  UNK     1      18.094  -0.713  34.456  1.00  0.00    -0.001 A 
HETATM    8  C10 UNK     1      17.036   0.046  34.962  1.00  0.00     0.014 A 
HETATM    9  C8  UNK     1      18.851  -1.481  35.336  1.00  0.00     0.089 A 
HETATM   10  C12 UNK     1      16.752   0.025  36.331  1.00  0.00     0.001 A 
HETATM   11  C13 UNK     1      17.523  -0.751  37.199  1.00  0.00     0.003 A 
HETATM   12  C11 UNK     1      18.580  -1.510  36.703  1.00  0.00     0.038 A 
HETATM   13  O2  UNK     1      19.926  -2.259  34.864  1.00  0.00    -0.274 OA
HETATM   14  C9  UNK     1      20.272  -2.293  33.517  1.00  0.00     0.304 A 
HETATM   15  O4  UNK     1      21.210  -2.973  33.114  1.00  0.00    -0.259 OA
ENDBRANCH   3   5
BRANCH   2  16
HETATM   16  C2  UNK     1      19.834   0.165  29.241  1.00  0.00     0.125 C 
BRANCH  16  17
HETATM   17  C1  UNK     1      18.553   0.579  28.528  1.00  0.00     0.046 C 
BRANCH  17  18
HETATM   18  C3  UNK     1      18.165   2.026  28.803  1.00  0.00     0.180 C 
BRANCH  18  19
HETATM   19  O1  UNK     1      17.479   2.087  30.047  1.00  0.00    -0.321 OA
BRANCH  19  20
HETATM   20  C14 UNK     1      18.015   2.930  30.985  1.00  0.00     0.258 C 
HETATM   21  O5  UNK     1      17.802   2.882  32.189  1.00  0.00    -0.265 OA
BRANCH  20  22
HETATM   22  C15 UNK     1      18.916   3.931  30.300  1.00  0.00     0.106 C 
HETATM   23  C16 UNK     1      19.223   5.126  31.186  1.00  0.00     0.015 C 
ENDBRANCH  20  22
ENDBRANCH  19  20
ENDBRANCH  18  19
ENDBRANCH  17  18
ENDBRANCH  16  17
ENDBRANCH   2  16
TORSDOF 7
ENDMDL
MODEL 3
REMARK VINA RESULT:      -8.2      1.129      1.970
REMARK  7 active torsions:
REMARK  status: ('A' for Active; 'I' for Inactive)
REMARK    1  A    between atoms: C14_20  and  O1_1 
REMARK    2  A    between atoms: C3_9  and  O1_1 
REMARK    3  A    between atoms: C2_8  and  N1_6 
REMARK       I    between atoms: C6_12  and  N1_6 
REMARK    4  A    between atoms: C1_7  and  C2_8 
REMARK    5  A    between atoms: C1_7  and  C3_9 
REMARK    6  A    between atoms: C4_10  and  C6_12 
REMARK    7  A    between atoms: C14_20  and  C15_21 
ROOT
HETATM    1  O3  UNK     1      17.485   3.679  31.736  1.00  0.00    -0.267 OA
HETATM    2  N1  UNK     1      19.037   4.607  30.266  1.00  0.00    -0.357 N 
HETATM    3  C6  UNK     1      18.349   3.570  30.870  1.00  0.00     0.257 C 
HETATM    4  H7  UNK     1      19.718   4.414  29.538  1.00  0.00     0.162 HD
ENDROOT
BRANCH   3   5
HETATM    5  C4  UNK     1      18.750   2.251  30.367  1.00  0.00     0.108 A 
HETATM    6  C7  UNK     1      19.287   1.414  31.262  1.00  0.00     0.037 A 
HETATM    7  C5  UNK     1      19.716   0.084  30.858  1.00  0.00    -0.001 A 
HETATM    8  C10 UNK     1      20.282  -0.822  31.759  1.00  0.00     0.014 A 
HETATM    9  C8  UNK     1      19.559  -0.300  29.530  1.00  0.00     0.089 A 
HETATM   10  C12 UNK     1      20.678  -2.089  31.321  1.00  0.00     0.001 A 
HETATM   11  C13 UNK     1      20.512  -2.456  29.984  1.00  0.00     0.003 A 
HETATM   12  C11 UNK     1      19.949  -1.559  29.080  1.00  0.00     0.038 A 
HETATM   13  O2  UNK     1      18.992   0.585  28.593  1.00  0.00    -0.274 OA
HETATM   14  C9  UNK     1      18.572   1.863  28.948  1.00  0.00     0.304 A 
HETATM   15  O4  UNK     1      18.081   2.628  28.125  1.00  0.00    -0.259 OA
ENDBRANCH   3   5
BRANCH   2  16
HETATM   16  C2  UNK     1      18.814   5.997  30.594  1.00  0.00     0.125 C 
BRANCH  16  17
HETATM   17  C1  UNK     1      19.145   6.313  32.046  1.00  0.00     0.046 C 
BRANCH  17  18
HETATM   18  C3  UNK     1      18.313   7.461  32.605  1.00  0.00     0.180 C 
BRANCH  18  19
HETATM   19  O1  UNK     1      16.948   7.066  32.630  1.00  0.00    -0.321 OA
BRANCH  19  20
HETATM   20  C14 UNK     1      16.073   7.897  31.981  1.00  0.00     0.258 C 
HETATM   21  O5  UNK     1      16.262   8.417  30.889  1.00  0.00    -0.265 OA
BRANCH  20  22
HETATM   22  C15 UNK     1      14.833   8.073  32.825  1.00  0.00     0.106 C 
HETATM   23  C16 UNK     1      13.682   7.209  32.339  1.00  0.00     0.015 C 
ENDBRANCH  20  22
ENDBRANCH  19  20
ENDBRANCH  18  19
ENDBRANCH  17  18
ENDBRANCH  16  17
ENDBRANCH   2  16
TORSDOF 7
ENDMDL
MODEL 4
REMARK VINA RESULT:      -8.1      1.776      2.013
REMARK  7 active torsions:
REMARK  status: ('A' for Active; 'I' for Inactive)
REMARK    1  A    between atoms: C14_20  and  O1_1 
REMARK    2  A    between atoms: C3_9  and  O1_1 
REMARK    3  A    between atoms: C2_8  and  N1_6 
REMARK       I    between atoms: C6_12  and  N1_6 
REMARK    4  A    between atoms: C1_7  and  C2_8 
REMARK    5  A    between atoms: C1_7  and  C3_9 
REMARK    6  A    between atoms: C4_10  and  C6_12 
REMARK    7  A    between atoms: C14_20  and  C15_21 
ROOT
HETATM    1  O3  UNK     1      17.980   3.078  28.641  1.00  0.00    -0.267 OA
HETATM    2  N1  UNK     1      19.228   4.173  30.277  1.00  0.00    -0.357 N 
HETATM    3  C6  UNK     1      18.660   3.070  29.664  1.00  0.00     0.257 C 
HETATM    4  H7  UNK     1      19.798   4.058  31.109  1.00  0.00     0.162 HD
ENDROOT
BRANCH   3   5
HETATM    5  C4  UNK     1      18.950   1.815  30.367  1.00  0.00     0.108 A 
HETATM    6  C7  UNK     1      19.579   0.871  29.656  1.00  0.00     0.037 A 
HETATM    7  C5  UNK     1      19.909  -0.408  30.265  1.00  0.00    -0.001 A 
HETATM    8  C10 UNK     1      20.564  -1.422  29.561  1.00  0.00     0.014 A 
HETATM    9  C8  UNK     1      19.560  -0.631  31.593  1.00  0.00     0.089 A 
HETATM   10  C12 UNK     1      20.860  -2.634  30.191  1.00  0.00     0.001 A 
HETATM   11  C13 UNK     1      20.501  -2.839  31.525  1.00  0.00     0.003 A 
HETATM   12  C11 UNK     1      19.848  -1.834  32.234  1.00  0.00     0.038 A 
HETATM   13  O2  UNK     1      18.899   0.366  32.336  1.00  0.00    -0.274 OA
HETATM   14  C9  UNK     1      18.570   1.599  31.781  1.00  0.00     0.304 A 
HETATM   15  O4  UNK     1      17.993   2.461  32.435  1.00  0.00    -0.259 OA
ENDBRANCH   3   5
BRANCH   2  16
HETATM   16  C2  UNK     1      19.084   5.518  29.768  1.00  0.00     0.125 C 
BRANCH  16  17
HETATM   17  C1  UNK     1      18.643   6.503  30.843  1.00  0.00     0.046 C 
BRANCH  17  18
HETATM   18  C3  UNK     1      19.516   6.445  32.091  1.00  0.00     0.180 C 
BRANCH  18  19
HETATM   19  O1  UNK     1      18.773   5.839  33.140  1.00  0.00    -0.321 OA
BRANCH  19  20
HETATM   20  C14 UNK     1      18.222   6.696  34.056  1.00  0.00     0.258 C 
HETATM   21  O5  UNK     1      17.073   6.648  34.475  1.00  0.00    -0.265 OA
BRANCH  20  22
HETATM   22  C15 UNK     1      19.257   7.714  34.473  1.00  0.00     0.106 C 
HETATM   23  C16 UNK     1      18.823   9.135  34.157  1.00  0.00     0.015 C 
ENDBRANCH  20  22
ENDBRANCH  19  20
ENDBRANCH  18  19
ENDBRANCH  17  18
ENDBRANCH  16  17
ENDBRANCH   2  16
TORSDOF 7
ENDMDL
MODEL 5
REMARK VINA RESULT:      -8.0      2.415      7.596
REMARK  7 active torsions:
REMARK  status: ('A' for Active; 'I' for Inactive)
REMARK    1  A    between atoms: C14_20  and  O1_1 
REMARK    2  A    between atoms: C3_9  and  O1_1 
REMARK    3  A    between atoms: C2_8  and  N1_6 
REMARK       I    between atoms: C6_12  and  N1_6 
REMARK    4  A    between atoms: C1_7  and  C2_8 
REMARK    5  A    between atoms: C1_7  and  C3_9 
REMARK    6  A    between atoms: C4_10  and  C6_12 
REMARK    7  A    between atoms: C14_20  and  C15_21 
ROOT
HETATM    1  O3  UNK     1      17.612   1.476  29.149  1.00  0.00    -0.267 OA
HETATM    2  N1  UNK     1      19.753   0.998  29.938  1.00  0.00    -0.357 N 
HETATM    3  C6  UNK     1      18.536   1.656  29.939  1.00  0.00     0.257 C 
HETATM    4  H7  UNK     1      20.445   1.201  30.653  1.00  0.00     0.162 HD
ENDROOT
BRANCH   3   5
HETATM    5  C4  UNK     1      18.422   2.642  31.020  1.00  0.00     0.108 A 
HETATM    6  C7  UNK     1      18.501   3.928  30.660  1.00  0.00     0.037 A 
HETATM    7  C5  UNK     1      18.400   4.978  31.661  1.00  0.00    -0.001 A 
HETATM    8  C10 UNK     1      18.478   6.333  31.330  1.00  0.00     0.014 A 
HETATM    9  C8  UNK     1      18.221   4.622  32.994  1.00  0.00     0.089 A 
HETATM   10  C12 UNK     1      18.374   7.305  32.329  1.00  0.00     0.001 A 
HETATM   11  C13 UNK     1      18.195   6.928  33.662  1.00  0.00     0.003 A 
HETATM   12  C11 UNK     1      18.117   5.580  34.001  1.00  0.00     0.038 A 
HETATM   13  O2  UNK     1      18.137   3.267  33.367  1.00  0.00    -0.274 OA
HETATM   14  C9  UNK     1      18.231   2.240  32.433  1.00  0.00     0.304 A 
HETATM   15  O4  UNK     1      18.158   1.062  32.767  1.00  0.00    -0.259 OA
ENDBRANCH   3   5
BRANCH   2  16
HETATM   16  C2  UNK     1      20.098  -0.019  28.970  1.00  0.00     0.125 C 
BRANCH  16  17
HETATM   17  C1  UNK     1      20.893  -1.162  29.585  1.00  0.00     0.046 C 
BRANCH  17  18
HETATM   18  C3  UNK     1      20.085  -1.969  30.594  1.00  0.00     0.180 C 
BRANCH  18  19
HETATM   19  O1  UNK     1      20.268  -1.401  31.884  1.00  0.00    -0.321 OA
BRANCH  19  20
HETATM   20  C14 UNK     1      20.503  -2.290  32.900  1.00  0.00     0.258 C 
HETATM   21  O5  UNK     1      21.260  -3.250  32.846  1.00  0.00    -0.265 OA
BRANCH  20  22
HETATM   22  C15 UNK     1      19.679  -1.900  34.105  1.00  0.00     0.106 C 
HETATM   23  C16 UNK     1      20.269  -2.433  35.399  1.00  0.00     0.015 C 
ENDBRANCH  20  22
ENDBRANCH  19  20
ENDBRANCH  18  19
ENDBRANCH  17  18
ENDBRANCH  16  17
ENDBRANCH   2  16
TORSDOF 7
ENDMDL
MODEL 6
REMARK VINA RESULT:      -8.0      6.763     12.247
REMARK  7 active torsions:
REMARK  status: ('A' for Active; 'I' for Inactive)
REMARK    1  A    between atoms: C14_20  and  O1_1 
REMARK    2  A    between atoms: C3_9  and  O1_1 
REMARK    3  A    between atoms: C2_8  and  N1_6 
REMARK       I    between atoms: C6_12  and  N1_6 
REMARK    4  A    between atoms: C1_7  and  C2_8 
REMARK    5  A    between atoms: C1_7  and  C3_9 
REMARK    6  A    between atoms: C4_10  and  C6_12 
REMARK    7  A    between atoms: C14_20  and  C15_21 
ROOT
HETATM    1  O3  UNK     1      20.962  -4.452  37.128  1.00  0.00    -0.267 OA
HETATM    2  N1  UNK     1      18.793  -5.025  36.497  1.00  0.00    -0.357 N 
HETATM    3  C6  UNK     1      19.849  -4.155  36.701  1.00  0.00     0.257 C 
HETATM    4  H7  UNK     1      17.916  -4.684  36.114  1.00  0.00     0.162 HD
ENDROOT
BRANCH   3   5
HETATM    5  C4  UNK     1      19.522  -2.769  36.346  1.00  0.00     0.108 A 
HETATM    6  C7  UNK     1      18.800  -2.083  37.241  1.00  0.00     0.037 A 
HETATM    7  C5  UNK     1      18.426  -0.703  36.978  1.00  0.00    -0.001 A 
HETATM    8  C10 UNK     1      17.672   0.050  37.882  1.00  0.00     0.014 A 
HETATM    9  C8  UNK     1      18.830  -0.111  35.785  1.00  0.00     0.089 A 
HETATM   10  C12 UNK     1      17.338   1.375  37.583  1.00  0.00     0.001 A 
HETATM   11  C13 UNK     1      17.753   1.951  36.381  1.00  0.00     0.003 A 
HETATM   12  C11 UNK     1      18.504   1.208  35.474  1.00  0.00     0.038 A 
HETATM   13  O2  UNK     1      19.590  -0.837  34.848  1.00  0.00    -0.274 OA
HETATM   14  C9  UNK     1      19.963  -2.159  35.071  1.00  0.00     0.304 A 
HETATM   15  O4  UNK     1      20.625  -2.785  34.249  1.00  0.00    -0.259 OA
ENDBRANCH   3   5
BRANCH   2  16
HETATM   16  C2  UNK     1      18.875  -6.441  36.771  1.00  0.00     0.125 C 
BRANCH  16  17
HETATM   17  C1  UNK     1      19.393  -7.236  35.580  1.00  0.00     0.046 C 
BRANCH  17  18
HETATM   18  C3  UNK     1      20.853  -7.645  35.733  1.00  0.00     0.180 C 
BRANCH  18  19
HETATM   19  O1  UNK     1      21.213  -8.474  34.636  1.00  0.00    -0.321 OA
BRANCH  19  20
HETATM   20  C14 UNK     1      21.660  -9.729  34.956  1.00  0.00     0.258 C 
HETATM   21  O5  UNK     1      21.850 -10.641  34.162  1.00  0.00    -0.265 OA
BRANCH  20  22
HETATM   22  C15 UNK     1      21.884  -9.814  36.447  1.00  0.00     0.106 C 
HETATM   23  C16 UNK     1      21.049 -10.907  37.091  1.00  0.00     0.015 C 
ENDBRANCH  20  22
ENDBRANCH  19  20
ENDBRANCH  18  19
ENDBRANCH  17  18
ENDBRANCH  16  17
ENDBRANCH   2  16
TORSDOF 7
ENDMDL
MODEL 7
REMARK VINA RESULT:      -7.8      3.544      6.478
REMARK  7 active torsions:
REMARK  status: ('A' for Active; 'I' for Inactive)
REMARK    1  A    between atoms: C14_20  and  O1_1 
REMARK    2  A    between atoms: C3_9  and  O1_1 
REMARK    3  A    between atoms: C2_8  and  N1_6 
REMARK       I    between atoms: C6_12  and  N1_6 
REMARK    4  A    between atoms: C1_7  and  C2_8 
REMARK    5  A    between atoms: C1_7  and  C3_9 
REMARK    6  A    between atoms: C4_10  and  C6_12 
REMARK    7  A    between atoms: C14_20  and  C15_21 
ROOT
HETATM    1  O3  UNK     1      21.151  -2.919  32.647  1.00  0.00    -0.267 OA
HETATM    2  N1  UNK     1      19.661  -1.578  31.458  1.00  0.00    -0.357 N 
HETATM    3  C6  UNK     1      20.213  -2.126  32.602  1.00  0.00     0.257 C 
HETATM    4  H7  UNK     1      18.901  -0.908  31.527  1.00  0.00     0.162 HD
ENDROOT
BRANCH   3   5
HETATM    5  C4  UNK     1      19.560  -1.660  33.830  1.00  0.00     0.108 A 
HETATM    6  C7  UNK     1      18.370  -1.066  33.679  1.00  0.00     0.037 A 
HETATM    7  C5  UNK     1      17.646  -0.569  34.838  1.00  0.00    -0.001 A 
HETATM    8  C10 UNK     1      16.402   0.058  34.727  1.00  0.00     0.014 A 
HETATM    9  C8  UNK     1      18.210  -0.721  36.101  1.00  0.00     0.089 A 
HETATM   10  C12 UNK     1      15.745   0.518  35.872  1.00  0.00     0.001 A 
HETATM   11  C13 UNK     1      16.327   0.357  37.130  1.00  0.00     0.003 A 
HETATM   12  C11 UNK     1      17.567  -0.266  37.250  1.00  0.00     0.038 A 
HETATM   13  O2  UNK     1      19.462  -1.347  36.253  1.00  0.00    -0.274 OA
HETATM   14  C9  UNK     1      20.179  -1.832  35.164  1.00  0.00     0.304 A 
HETATM   15  O4  UNK     1      21.270  -2.375  35.306  1.00  0.00    -0.259 OA
ENDBRANCH   3   5
BRANCH   2  16
HETATM   16  C2  UNK     1      20.138  -1.885  30.128  1.00  0.00     0.125 C 
BRANCH  16  17
HETATM   17  C1  UNK     1      20.620  -0.647  29.383  1.00  0.00     0.046 C 
BRANCH  17  18
HETATM   18  C3  UNK     1      19.507   0.050  28.612  1.00  0.00     0.180 C 
BRANCH  18  19
HETATM   19  O1  UNK     1      18.651   0.706  29.538  1.00  0.00    -0.321 OA
BRANCH  19  20
HETATM   20  C14 UNK     1      18.355   2.014  29.256  1.00  0.00     0.258 C 
HETATM   21  O5  UNK     1      17.946   2.435  28.182  1.00  0.00    -0.265 OA
BRANCH  20  22
HETATM   22  C15 UNK     1      18.611   2.859  30.481  1.00  0.00     0.106 C 
HETATM   23  C16 UNK     1      18.972   4.291  30.124  1.00  0.00     0.015 C 
ENDBRANCH  20  22
ENDBRANCH  19  20
ENDBRANCH  18  19
ENDBRANCH  17  18
ENDBRANCH  16  17
ENDBRANCH   2  16
TORSDOF 7
ENDMDL
MODEL 8
REMARK VINA RESULT:      -7.8      4.624      9.091
REMARK  7 active torsions:
REMARK  status: ('A' for Active; 'I' for Inactive)
REMARK    1  A    between atoms: C14_20  and  O1_1 
REMARK    2  A    between atoms: C3_9  and  O1_1 
REMARK    3  A    between atoms: C2_8  and  N1_6 
REMARK       I    between atoms: C6_12  and  N1_6 
REMARK    4  A    between atoms: C1_7  and  C2_8 
REMARK    5  A    between atoms: C1_7  and  C3_9 
REMARK    6  A    between atoms: C4_10  and  C6_12 
REMARK    7  A    between atoms: C14_20  and  C15_21 
ROOT
HETATM    1  O3  UNK     1      17.025  -0.729  35.510  1.00  0.00    -0.267 OA
HETATM    2  N1  UNK     1      18.967  -2.018  35.518  1.00  0.00    -0.357 N 
HETATM    3  C6  UNK     1      18.065  -1.117  34.982  1.00  0.00     0.257 C 
HETATM    4  H7  UNK     1      19.815  -2.256  35.012  1.00  0.00     0.162 HD
ENDROOT
BRANCH   3   5
HETATM    5  C4  UNK     1      18.467  -0.626  33.659  1.00  0.00     0.108 A 
HETATM    6  C7  UNK     1      19.122  -1.495  32.879  1.00  0.00     0.037 A 
HETATM    7  C5  UNK     1      19.562  -1.101  31.550  1.00  0.00    -0.001 A 
HETATM    8  C10 UNK     1      20.248  -1.974  30.703  1.00  0.00     0.014 A 
HETATM    9  C8  UNK     1      19.293   0.191  31.107  1.00  0.00     0.089 A 
HETATM   10  C12 UNK     1      20.650  -1.547  29.434  1.00  0.00     0.001 A 
HETATM   11  C13 UNK     1      20.371  -0.247  29.007  1.00  0.00     0.003 A 
HETATM   12  C11 UNK     1      19.688   0.630  29.845  1.00  0.00     0.038 A 
HETATM   13  O2  UNK     1      18.603   1.100  31.932  1.00  0.00    -0.274 OA
HETATM   14  C9  UNK     1      18.169   0.753  33.208  1.00  0.00     0.304 A 
HETATM   15  O4  UNK     1      17.571   1.552  33.920  1.00  0.00    -0.259 OA
ENDBRANCH   3   5
BRANCH   2  16
HETATM   16  C2  UNK     1      18.789  -2.636  36.812  1.00  0.00     0.125 C 
BRANCH  16  17
HETATM   17  C1  UNK     1      20.099  -3.143  37.401  1.00  0.00     0.046 C 
BRANCH  17  18
HETATM   18  C3  UNK     1      20.380  -4.599  37.050  1.00  0.00     0.180 C 
BRANCH  18  19
HETATM   19  O1  UNK     1      20.034  -4.815  35.689  1.00  0.00    -0.321 OA
BRANCH  19  20
HETATM   20  C14 UNK     1      19.938  -6.125  35.297  1.00  0.00     0.258 C 
HETATM   21  O5  UNK     1      20.778  -6.738  34.651  1.00  0.00    -0.265 OA
BRANCH  20  22
HETATM   22  C15 UNK     1      18.630  -6.699  35.789  1.00  0.00     0.106 C 
HETATM   23  C16 UNK     1      18.797  -8.094  36.364  1.00  0.00     0.015 C 
ENDBRANCH  20  22
ENDBRANCH  19  20
ENDBRANCH  18  19
ENDBRANCH  17  18
ENDBRANCH  16  17
ENDBRANCH   2  16
TORSDOF 7
ENDMDL
MODEL 9
REMARK VINA RESULT:      -7.8      2.636      8.697
REMARK  7 active torsions:
REMARK  status: ('A' for Active; 'I' for Inactive)
REMARK    1  A    between atoms: C14_20  and  O1_1 
REMARK    2  A    between atoms: C3_9  and  O1_1 
REMARK    3  A    between atoms: C2_8  and  N1_6 
REMARK       I    between atoms: C6_12  and  N1_6 
REMARK    4  A    between atoms: C1_7  and  C2_8 
REMARK    5  A    between atoms: C1_7  and  C3_9 
REMARK    6  A    between atoms: C4_10  and  C6_12 
REMARK    7  A    between atoms: C14_20  and  C15_21 
ROOT
HETATM    1  O3  UNK     1      18.290   3.810  33.884  1.00  0.00    -0.267 OA
HETATM    2  N1  UNK     1      18.032   4.209  31.603  1.00  0.00    -0.357 N 
HETATM    3  C6  UNK     1      18.130   4.572  32.934  1.00  0.00     0.257 C 
HETATM    4  H7  UNK     1      17.926   4.920  30.885  1.00  0.00     0.162 HD
ENDROOT
BRANCH   3   5
HETATM    5  C4  UNK     1      18.025   6.022  33.139  1.00  0.00     0.108 A 
HETATM    6  C7  UNK     1      19.115   6.631  33.621  1.00  0.00     0.037 A 
HETATM    7  C5  UNK     1      19.108   8.066  33.858  1.00  0.00    -0.001 A 
HETATM    8  C10 UNK     1      20.222   8.744  34.360  1.00  0.00     0.014 A 
HETATM    9  C8  UNK     1      17.953   8.790  33.578  1.00  0.00     0.089 A 
HETATM   10  C12 UNK     1      20.166  10.124  34.571  1.00  0.00     0.001 A 
HETATM   11  C13 UNK     1      18.997  10.833  34.284  1.00  0.00     0.003 A 
HETATM   12  C11 UNK     1      17.882  10.166  33.784  1.00  0.00     0.038 A 
HETATM   13  O2  UNK     1      16.810   8.142  33.071  1.00  0.00    -0.274 OA
HETATM   14  C9  UNK     1      16.785   6.772  32.833  1.00  0.00     0.304 A 
HETATM   15  O4  UNK     1      15.785   6.216  32.393  1.00  0.00    -0.259 OA
ENDBRANCH   3   5
BRANCH   2  16
HETATM   16  C2  UNK     1      18.109   2.838  31.152  1.00  0.00     0.125 C 
BRANCH  16  17
HETATM   17  C1  UNK     1      18.498   2.728  29.684  1.00  0.00     0.046 C 
BRANCH  17  18
HETATM   18  C3  UNK     1      18.415   1.301  29.156  1.00  0.00     0.180 C 
BRANCH  18  19
HETATM   19  O1  UNK     1      19.730   0.770  29.068  1.00  0.00    -0.321 OA
BRANCH  19  20
HETATM   20  C14 UNK     1      19.830  -0.498  28.558  1.00  0.00     0.258 C 
HETATM   21  O5  UNK     1      19.215  -0.926  27.590  1.00  0.00    -0.265 OA
BRANCH  20  22
HETATM   22  C15 UNK     1      20.823  -1.289  29.377  1.00  0.00     0.106 C 
HETATM   23  C16 UNK     1      20.151  -2.071  30.493  1.00  0.00     0.015 C 
ENDBRANCH  20  22
ENDBRANCH  19  20
ENDBRANCH  18  19
ENDBRANCH  17  18
ENDBRANCH  16  17
ENDBRANCH   2  16
TORSDOF 7
ENDMDL
MODEL 10
REMARK VINA RESULT:      -7.8     13.532     16.975
REMARK  7 active torsions:
REMARK  status: ('A' for Active; 'I' for Inactive)
REMARK    1  A    between atoms: C14_20  and  O1_1 
REMARK    2  A    between atoms: C3_9  and  O1_1 
REMARK    3  A    between atoms: C2_8  and  N1_6 
REMARK       I    between atoms: C6_12  and  N1_6 
REMARK    4  A    between atoms: C1_7  and  C2_8 
REMARK    5  A    between atoms: C1_7  and  C3_9 
REMARK    6  A    between atoms: C4_10  and  C6_12 
REMARK    7  A    between atoms: C14_20  and  C15_21 
ROOT
HETATM    1  O3  UNK     1      17.408  -2.959  16.070  1.00  0.00    -0.267 OA
HETATM    2  N1  UNK     1      19.645  -3.177  15.454  1.00  0.00    -0.357 N 
HETATM    3  C6  UNK     1      18.532  -2.491  15.904  1.00  0.00     0.257 C 
HETATM    4  H7  UNK     1      20.540  -2.704  15.375  1.00  0.00     0.162 HD
ENDROOT
BRANCH   3   5
HETATM    5  C4  UNK     1      18.809  -1.078  16.188  1.00  0.00     0.108 A 
HETATM    6  C7  UNK     1      18.702  -0.700  17.468  1.00  0.00     0.037 A 
HETATM    7  C5  UNK     1      18.956   0.681  17.848  1.00  0.00    -0.001 A 
HETATM    8  C10 UNK     1      18.856   1.120  19.171  1.00  0.00     0.014 A 
HETATM    9  C8  UNK     1      19.311   1.597  16.863  1.00  0.00     0.089 A 
HETATM   10  C12 UNK     1      19.111   2.457  19.486  1.00  0.00     0.001 A 
HETATM   11  C13 UNK     1      19.465   3.362  18.483  1.00  0.00     0.003 A 
HETATM   12  C11 UNK     1      19.568   2.933  17.162  1.00  0.00     0.038 A 
HETATM   13  O2  UNK     1      19.423   1.193  15.518  1.00  0.00    -0.274 OA
HETATM   14  C9  UNK     1      19.186  -0.120  15.123  1.00  0.00     0.304 A 
HETATM   15  O4  UNK     1      19.284  -0.463  13.950  1.00  0.00    -0.259 OA
ENDBRANCH   3   5
BRANCH   2  16
HETATM   16  C2  UNK     1      19.620  -4.581  15.112  1.00  0.00     0.125 C 
BRANCH  16  17
HETATM   17  C1  UNK     1      21.005  -5.128  14.791  1.00  0.00     0.046 C 
BRANCH  17  18
HETATM   18  C3  UNK     1      21.830  -5.414  16.040  1.00  0.00     0.180 C 
BRANCH  18  19
HETATM   19  O1  UNK     1      22.984  -4.584  16.025  1.00  0.00    -0.321 OA
BRANCH  19  20
HETATM   20  C14 UNK     1      22.973  -3.530  16.901  1.00  0.00     0.258 C 
HETATM   21  O5  UNK     1      21.973  -2.960  17.317  1.00  0.00    -0.265 OA
BRANCH  20  22
HETATM   22  C15 UNK     1      24.394  -3.181  17.279  1.00  0.00     0.106 C 
HETATM   23  C16 UNK     1      25.411  -3.977  16.481  1.00  0.00     0.015 C 
ENDBRANCH  20  22
ENDBRANCH  19  20
ENDBRANCH  18  19
ENDBRANCH  17  18
ENDBRANCH  16  17
ENDBRANCH   2  16
TORSDOF 7
ENDMDL
