MODEL 1
REMARK VINA RESULT:      -9.0      0.000      0.000
REMARK  2 active torsions:
REMARK  status: ('A' for Active; 'I' for Inactive)
REMARK    1  A    between atoms: C1_7  and  C8_14 
REMARK    2  A    between atoms: C6_12  and  C9_15 
ROOT
HETATM    1  O1  UNK     1      28.017 -10.595  39.175  1.00  0.00    -0.293 OA
HETATM    2  N1  UNK     1      28.589  -6.114  37.491  1.00  0.00    -0.357 N 
HETATM    3  N2  UNK     1      30.817  -7.834  38.556  1.00  0.00    -0.375 N 
HETATM    4  C1  UNK     1      25.560  -8.172  38.287  1.00  0.00     0.031 C 
HETATM    5  C2  UNK     1      26.428  -6.911  38.212  1.00  0.00     0.067 C 
HETATM    6  C3  UNK     1      28.442  -8.407  38.314  1.00  0.00     0.037 C 
HETATM    7  C4  UNK     1      27.913  -7.198  38.022  1.00  0.00     0.022 C 
HETATM    8  C5  UNK     1      26.154  -9.128  39.312  1.00  0.00     0.093 C 
HETATM    9  C6  UNK     1      29.869  -8.800  38.029  1.00  0.00     0.160 C 
HETATM   10  C7  UNK     1      27.573  -9.473  38.932  1.00  0.00     0.160 C 
HETATM   11  C10 UNK     1      29.953  -5.758  37.526  1.00  0.00     0.059 A 
HETATM   12  C11 UNK     1      30.978  -6.538  38.088  1.00  0.00     0.055 A 
HETATM   13  C16 UNK     1      30.282  -4.487  37.000  1.00  0.00     0.032 A 
HETATM   14  C17 UNK     1      32.282  -5.996  38.146  1.00  0.00     0.031 A 
HETATM   15  C21 UNK     1      31.580  -3.979  37.051  1.00  0.00     0.002 A 
HETATM   16  C22 UNK     1      32.583  -4.734  37.635  1.00  0.00     0.002 A 
HETATM   17  H7  UNK     1      27.985  -5.386  37.121  1.00  0.00     0.166 HD
HETATM   18  H8  UNK     1      31.593  -8.218  39.089  1.00  0.00     0.160 HD
ENDROOT
BRANCH   9  19
HETATM   19  C9  UNK     1      30.126  -9.066  36.574  1.00  0.00     0.042 A 
HETATM   20  C14 UNK     1      31.518  -9.350  36.141  1.00  0.00     0.195 A 
HETATM   21  O3  UNK     1      32.454  -9.373  36.930  1.00  0.00    -0.287 OA
HETATM   22  C18 UNK     1      31.715  -9.603  34.702  1.00  0.00     0.048 A 
HETATM   23  C23 UNK     1      30.612  -9.563  33.849  1.00  0.00     0.089 A 
HETATM   24  C25 UNK     1      32.988  -9.879  34.195  1.00  0.00     0.018 A 
HETATM   25  O2  UNK     1      29.341  -9.297  34.292  1.00  0.00    -0.321 OA
HETATM   26  C26 UNK     1      30.776  -9.800  32.483  1.00  0.00     0.038 A 
HETATM   27  C15 UNK     1      29.173  -9.064  35.635  1.00  0.00     0.156 A 
HETATM   28  C28 UNK     1      32.045 -10.075  31.974  1.00  0.00     0.003 A 
HETATM   29  C27 UNK     1      33.148 -10.115  32.829  1.00  0.00     0.001 A 
ENDBRANCH   9  19
BRANCH   4  30
HETATM   30  C8  UNK     1      24.106  -7.845  38.574  1.00  0.00    -0.053 A 
HETATM   31  C12 UNK     1      23.097  -8.638  38.033  1.00  0.00     0.009 A 
HETATM   32  C19 UNK     1      21.760  -8.337  38.295  1.00  0.00     0.024 A 
HETATM   33  C24 UNK     1      21.436  -7.244  39.099  1.00  0.00     0.034 A 
HETATM   34  C20 UNK     1      22.450  -6.450  39.640  1.00  0.00     0.024 A 
HETATM   35 Cl1  UNK     1      19.787  -6.871  39.423  1.00  0.00    -0.084 Cl
HETATM   36  C13 UNK     1      23.785  -6.752  39.377  1.00  0.00     0.009 A 
ENDBRANCH   4  30
TORSDOF 2
ENDMDL
MODEL 2
REMARK VINA RESULT:      -9.0      4.559      7.507
REMARK  2 active torsions:
REMARK  status: ('A' for Active; 'I' for Inactive)
REMARK    1  A    between atoms: C1_7  and  C8_14 
REMARK    2  A    between atoms: C6_12  and  C9_15 
ROOT
HETATM    1  O1  UNK     1      34.197  -8.511  33.524  1.00  0.00    -0.293 OA
HETATM    2  N1  UNK     1      29.603  -8.688  32.072  1.00  0.00    -0.357 N 
HETATM    3  N2  UNK     1      31.974  -9.256  30.307  1.00  0.00    -0.375 N 
HETATM    4  C1  UNK     1      31.239  -7.464  35.212  1.00  0.00     0.031 C 
HETATM    5  C2  UNK     1      30.242  -7.462  34.051  1.00  0.00     0.067 C 
HETATM    6  C3  UNK     1      31.963  -8.689  32.696  1.00  0.00     0.037 C 
HETATM    7  C4  UNK     1      30.673  -8.321  32.868  1.00  0.00     0.022 C 
HETATM    8  C5  UNK     1      32.631  -7.150  34.680  1.00  0.00     0.093 C 
HETATM    9  C6  UNK     1      32.438  -9.642  31.628  1.00  0.00     0.160 C 
HETATM   10  C7  UNK     1      33.021  -8.164  33.632  1.00  0.00     0.160 C 
HETATM   11  C10 UNK     1      29.541  -9.093  30.722  1.00  0.00     0.059 A 
HETATM   12  C11 UNK     1      30.652  -9.289  29.885  1.00  0.00     0.055 A 
HETATM   13  C16 UNK     1      28.246  -9.251  30.175  1.00  0.00     0.032 A 
HETATM   14  C17 UNK     1      30.424  -9.589  28.522  1.00  0.00     0.031 A 
HETATM   15  C21 UNK     1      28.044  -9.567  28.832  1.00  0.00     0.002 A 
HETATM   16  C22 UNK     1      29.139  -9.727  28.000  1.00  0.00     0.002 A 
HETATM   17  H7  UNK     1      28.693  -8.515  32.490  1.00  0.00     0.166 HD
HETATM   18  H8  UNK     1      32.678  -9.245  29.574  1.00  0.00     0.160 HD
ENDROOT
BRANCH   9  19
HETATM   19  C9  UNK     1      32.094 -11.072  31.922  1.00  0.00     0.042 A 
HETATM   20  C14 UNK     1      32.409 -12.102  30.899  1.00  0.00     0.195 A 
HETATM   21  O3  UNK     1      32.937 -11.818  29.831  1.00  0.00    -0.287 OA
HETATM   22  C18 UNK     1      32.050 -13.491  31.237  1.00  0.00     0.048 A 
HETATM   23  C23 UNK     1      31.450 -13.755  32.469  1.00  0.00     0.089 A 
HETATM   24  C25 UNK     1      32.305 -14.532  30.340  1.00  0.00     0.018 A 
HETATM   25  O2  UNK     1      31.176 -12.773  33.387  1.00  0.00    -0.321 OA
HETATM   26  C26 UNK     1      31.102 -15.063  32.809  1.00  0.00     0.038 A 
HETATM   27  C15 UNK     1      31.517 -11.484  33.057  1.00  0.00     0.156 A 
HETATM   28  C28 UNK     1      31.355 -16.104  31.916  1.00  0.00     0.003 A 
HETATM   29  C27 UNK     1      31.956 -15.838  30.684  1.00  0.00     0.001 A 
ENDBRANCH   9  19
BRANCH   4  30
HETATM   30  C8  UNK     1      30.819  -6.521  36.325  1.00  0.00    -0.053 A 
HETATM   31  C12 UNK     1      30.090  -7.007  37.407  1.00  0.00     0.009 A 
HETATM   32  C19 UNK     1      29.702  -6.140  38.430  1.00  0.00     0.024 A 
HETATM   33  C24 UNK     1      30.045  -4.790  38.367  1.00  0.00     0.034 A 
HETATM   34  C20 UNK     1      30.776  -4.306  37.281  1.00  0.00     0.024 A 
HETATM   35 Cl1  UNK     1      29.568  -3.720  39.628  1.00  0.00    -0.084 Cl
HETATM   36  C13 UNK     1      31.163  -5.172  36.260  1.00  0.00     0.009 A 
ENDBRANCH   4  30
TORSDOF 2
ENDMDL
MODEL 3
REMARK VINA RESULT:      -8.8     33.856     35.430
REMARK  2 active torsions:
REMARK  status: ('A' for Active; 'I' for Inactive)
REMARK    1  A    between atoms: C1_7  and  C8_14 
REMARK    2  A    between atoms: C6_12  and  C9_15 
ROOT
HETATM    1  O1  UNK     1      18.513  13.027  12.222  1.00  0.00    -0.293 OA
HETATM    2  N1  UNK     1      19.786  12.627   7.590  1.00  0.00    -0.357 N 
HETATM    3  N2  UNK     1      20.341  15.033   9.310  1.00  0.00    -0.375 N 
HETATM    4  C1  UNK     1      17.615  10.547   9.826  1.00  0.00     0.031 C 
HETATM    5  C2  UNK     1      18.047  11.242   8.532  1.00  0.00     0.067 C 
HETATM    6  C3  UNK     1      19.249  12.929   9.951  1.00  0.00     0.037 C 
HETATM    7  C4  UNK     1      19.072  12.351   8.742  1.00  0.00     0.022 C 
HETATM    8  C5  UNK     1      17.204  11.599  10.847  1.00  0.00     0.093 C 
HETATM    9  C6  UNK     1      20.328  13.935  10.261  1.00  0.00     0.160 C 
HETATM   10  C7  UNK     1      18.353  12.545  11.101  1.00  0.00     0.160 C 
HETATM   11  C10 UNK     1      20.495  13.776   7.185  1.00  0.00     0.059 A 
HETATM   12  C11 UNK     1      20.691  14.924   7.972  1.00  0.00     0.055 A 
HETATM   13  C16 UNK     1      20.991  13.773   5.860  1.00  0.00     0.032 A 
HETATM   14  C17 UNK     1      21.331  16.041   7.387  1.00  0.00     0.031 A 
HETATM   15  C21 UNK     1      21.636  14.878   5.309  1.00  0.00     0.002 A 
HETATM   16  C22 UNK     1      21.798  16.022   6.073  1.00  0.00     0.002 A 
HETATM   17  H7  UNK     1      19.676  11.933   6.855  1.00  0.00     0.166 HD
HETATM   18  H8  UNK     1      20.382  15.966   9.710  1.00  0.00     0.160 HD
ENDROOT
BRANCH   9  19
HETATM   19  C9  UNK     1      21.689  13.315  10.385  1.00  0.00     0.042 A 
HETATM   20  C14 UNK     1      22.630  13.867  11.395  1.00  0.00     0.195 A 
HETATM   21  O3  UNK     1      22.328  14.804  12.122  1.00  0.00    -0.287 OA
HETATM   22  C18 UNK     1      23.954  13.223  11.475  1.00  0.00     0.048 A 
HETATM   23  C23 UNK     1      24.243  12.159  10.620  1.00  0.00     0.089 A 
HETATM   24  C25 UNK     1      24.909  13.669  12.392  1.00  0.00     0.018 A 
HETATM   25  O2  UNK     1      23.344  11.680   9.701  1.00  0.00    -0.321 OA
HETATM   26  C26 UNK     1      25.489  11.535  10.679  1.00  0.00     0.038 A 
HETATM   27  C15 UNK     1      22.114  12.290   9.638  1.00  0.00     0.156 A 
HETATM   28  C28 UNK     1      26.445  11.979  11.594  1.00  0.00     0.003 A 
HETATM   29  C27 UNK     1      26.154  13.044  12.448  1.00  0.00     0.001 A 
ENDBRANCH   9  19
BRANCH   4  30
HETATM   30  C8  UNK     1      16.525   9.519   9.584  1.00  0.00    -0.053 A 
HETATM   31  C12 UNK     1      15.367   9.884   8.902  1.00  0.00     0.009 A 
HETATM   32  C19 UNK     1      14.364   8.939   8.679  1.00  0.00     0.024 A 
HETATM   33  C24 UNK     1      14.523   7.632   9.139  1.00  0.00     0.034 A 
HETATM   34  C20 UNK     1      15.685   7.270   9.823  1.00  0.00     0.024 A 
HETATM   35 Cl1  UNK     1      13.287   6.466   8.866  1.00  0.00    -0.084 Cl
HETATM   36  C13 UNK     1      16.686   8.214  10.045  1.00  0.00     0.009 A 
ENDBRANCH   4  30
TORSDOF 2
ENDMDL
MODEL 4
REMARK VINA RESULT:      -8.8      5.160      9.907
REMARK  2 active torsions:
REMARK  status: ('A' for Active; 'I' for Inactive)
REMARK    1  A    between atoms: C1_7  and  C8_14 
REMARK    2  A    between atoms: C6_12  and  C9_15 
ROOT
HETATM    1  O1  UNK     1      32.058 -11.071  35.062  1.00  0.00    -0.293 OA
HETATM    2  N1  UNK     1      31.623  -7.502  31.850  1.00  0.00    -0.357 N 
HETATM    3  N2  UNK     1      29.311  -8.843  33.233  1.00  0.00    -0.375 N 
HETATM    4  C1  UNK     1      34.522  -9.610  32.942  1.00  0.00     0.031 C 
HETATM    5  C2  UNK     1      33.627  -8.843  31.964  1.00  0.00     0.067 C 
HETATM    6  C3  UNK     1      31.711  -9.270  33.530  1.00  0.00     0.037 C 
HETATM    7  C4  UNK     1      32.229  -8.561  32.501  1.00  0.00     0.022 C 
HETATM    8  C5  UNK     1      33.778 -10.842  33.441  1.00  0.00     0.093 C 
HETATM    9  C6  UNK     1      30.394  -8.962  34.195  1.00  0.00     0.160 C 
HETATM   10  C7  UNK     1      32.486 -10.430  34.102  1.00  0.00     0.160 C 
HETATM   11  C10 UNK     1      30.265  -7.153  31.700  1.00  0.00     0.059 A 
HETATM   12  C11 UNK     1      29.187  -7.829  32.295  1.00  0.00     0.055 A 
HETATM   13  C16 UNK     1      29.989  -6.071  30.831  1.00  0.00     0.032 A 
HETATM   14  C17 UNK     1      27.873  -7.427  31.961  1.00  0.00     0.031 A 
HETATM   15  C21 UNK     1      28.685  -5.679  30.531  1.00  0.00     0.002 A 
HETATM   16  C22 UNK     1      27.622  -6.366  31.091  1.00  0.00     0.002 A 
HETATM   17  H7  UNK     1      32.254  -6.950  31.275  1.00  0.00     0.166 HD
HETATM   18  H8  UNK     1      28.463  -9.357  33.454  1.00  0.00     0.160 HD
ENDROOT
BRANCH   9  19
HETATM   19  C9  UNK     1      30.454  -7.758  35.087  1.00  0.00     0.042 A 
HETATM   20  C14 UNK     1      29.339  -7.526  36.041  1.00  0.00     0.195 A 
HETATM   21  O3  UNK     1      28.380  -8.283  36.118  1.00  0.00    -0.287 OA
HETATM   22  C18 UNK     1      29.447  -6.328  36.894  1.00  0.00     0.048 A 
HETATM   23  C23 UNK     1      30.563  -5.500  36.762  1.00  0.00     0.089 A 
HETATM   24  C25 UNK     1      28.449  -6.022  37.823  1.00  0.00     0.018 A 
HETATM   25  O2  UNK     1      31.572  -5.752  35.867  1.00  0.00    -0.321 OA
HETATM   26  C26 UNK     1      30.685  -4.361  37.559  1.00  0.00     0.038 A 
HETATM   27  C15 UNK     1      31.457  -6.871  35.079  1.00  0.00     0.156 A 
HETATM   28  C28 UNK     1      29.690  -4.053  38.487  1.00  0.00     0.003 A 
HETATM   29  C27 UNK     1      28.575  -4.883  38.618  1.00  0.00     0.001 A 
ENDBRANCH   9  19
BRANCH   4  30
HETATM   30  C8  UNK     1      35.868  -9.954  32.332  1.00  0.00    -0.053 A 
HETATM   31  C12 UNK     1      36.014  -9.987  30.948  1.00  0.00     0.009 A 
HETATM   32  C19 UNK     1      37.252 -10.303  30.387  1.00  0.00     0.024 A 
HETATM   33  C24 UNK     1      38.340 -10.586  31.212  1.00  0.00     0.034 A 
HETATM   34  C20 UNK     1      38.191 -10.553  32.600  1.00  0.00     0.024 A 
HETATM   35 Cl1  UNK     1      39.867 -10.978  30.521  1.00  0.00    -0.084 Cl
HETATM   36  C13 UNK     1      36.954 -10.237  33.159  1.00  0.00     0.009 A 
ENDBRANCH   4  30
TORSDOF 2
ENDMDL
MODEL 5
REMARK VINA RESULT:      -8.7     34.978     36.397
REMARK  2 active torsions:
REMARK  status: ('A' for Active; 'I' for Inactive)
REMARK    1  A    between atoms: C1_7  and  C8_14 
REMARK    2  A    between atoms: C6_12  and  C9_15 
ROOT
HETATM    1  O1  UNK     1      17.787   8.258   9.693  1.00  0.00    -0.293 OA
HETATM    2  N1  UNK     1      15.336  12.410   9.712  1.00  0.00    -0.357 N 
HETATM    3  N2  UNK     1      18.003  11.996  11.044  1.00  0.00    -0.375 N 
HETATM    4  C1  UNK     1      14.456   8.934   8.624  1.00  0.00     0.031 C 
HETATM    5  C2  UNK     1      14.234  10.310   9.258  1.00  0.00     0.067 C 
HETATM    6  C3  UNK     1      16.700  10.386   9.727  1.00  0.00     0.037 C 
HETATM    7  C4  UNK     1      15.525  11.044   9.602  1.00  0.00     0.022 C 
HETATM    8  C5  UNK     1      15.424   8.135   9.486  1.00  0.00     0.093 C 
HETATM    9  C6  UNK     1      18.032  11.059   9.935  1.00  0.00     0.160 C 
HETATM   10  C7  UNK     1      16.728   8.882   9.621  1.00  0.00     0.160 C 
HETATM   11  C10 UNK     1      16.077  13.402  10.386  1.00  0.00     0.059 A 
HETATM   12  C11 UNK     1      17.288  13.185  11.064  1.00  0.00     0.055 A 
HETATM   13  C16 UNK     1      15.507  14.697  10.416  1.00  0.00     0.032 A 
HETATM   14  C17 UNK     1      17.857  14.260  11.787  1.00  0.00     0.031 A 
HETATM   15  C21 UNK     1      16.096  15.747  11.118  1.00  0.00     0.002 A 
HETATM   16  C22 UNK     1      17.271  15.525  11.815  1.00  0.00     0.002 A 
HETATM   17  H7  UNK     1      14.443  12.737   9.354  1.00  0.00     0.166 HD
HETATM   18  H8  UNK     1      18.767  11.921  11.709  1.00  0.00     0.160 HD
ENDROOT
BRANCH   9  19
HETATM   19  C9  UNK     1      18.559  11.715   8.692  1.00  0.00     0.042 A 
HETATM   20  C14 UNK     1      19.939  12.264   8.711  1.00  0.00     0.195 A 
HETATM   21  O3  UNK     1      20.652  12.199   9.704  1.00  0.00    -0.287 OA
HETATM   22  C18 UNK     1      20.407  12.899   7.465  1.00  0.00     0.048 A 
HETATM   23  C23 UNK     1      19.550  12.945   6.365  1.00  0.00     0.089 A 
HETATM   24  C25 UNK     1      21.690  13.446   7.383  1.00  0.00     0.018 A 
HETATM   25  O2  UNK     1      18.281  12.424   6.390  1.00  0.00    -0.321 OA
HETATM   26  C26 UNK     1      19.973  13.540   5.176  1.00  0.00     0.038 A 
HETATM   27  C15 UNK     1      17.859  11.837   7.558  1.00  0.00     0.156 A 
HETATM   28  C28 UNK     1      21.253  14.088   5.091  1.00  0.00     0.003 A 
HETATM   29  C27 UNK     1      22.109  14.040   6.192  1.00  0.00     0.001 A 
ENDBRANCH   9  19
BRANCH   4  30
HETATM   30  C8  UNK     1      13.149   8.199   8.388  1.00  0.00    -0.053 A 
HETATM   31  C12 UNK     1      13.117   7.093   7.543  1.00  0.00     0.009 A 
HETATM   32  C19 UNK     1      11.916   6.418   7.325  1.00  0.00     0.024 A 
HETATM   33  C24 UNK     1      10.748   6.851   7.954  1.00  0.00     0.034 A 
HETATM   34  C20 UNK     1      10.783   7.960   8.801  1.00  0.00     0.024 A 
HETATM   35 Cl1  UNK     1       9.266   6.020   7.685  1.00  0.00    -0.084 Cl
HETATM   36  C13 UNK     1      11.984   8.634   9.018  1.00  0.00     0.009 A 
ENDBRANCH   4  30
TORSDOF 2
ENDMDL
MODEL 6
REMARK VINA RESULT:      -8.6      6.266      9.055
REMARK  2 active torsions:
REMARK  status: ('A' for Active; 'I' for Inactive)
REMARK    1  A    between atoms: C1_7  and  C8_14 
REMARK    2  A    between atoms: C6_12  and  C9_15 
ROOT
HETATM    1  O1  UNK     1      32.897 -12.620  29.978  1.00  0.00    -0.293 OA
HETATM    2  N1  UNK     1      31.522 -11.711  34.509  1.00  0.00    -0.357 N 
HETATM    3  N2  UNK     1      33.317  -9.927  32.879  1.00  0.00    -0.375 N 
HETATM    4  C1  UNK     1      31.185 -14.716  32.296  1.00  0.00     0.031 C 
HETATM    5  C2  UNK     1      31.423 -13.944  33.597  1.00  0.00     0.067 C 
HETATM    6  C3  UNK     1      32.242 -12.027  32.198  1.00  0.00     0.037 C 
HETATM    7  C4  UNK     1      31.778 -12.477  33.385  1.00  0.00     0.022 C 
HETATM    8  C5  UNK     1      32.356 -14.481  31.352  1.00  0.00     0.093 C 
HETATM    9  C6  UNK     1      32.487 -10.574  31.878  1.00  0.00     0.160 C 
HETATM   10  C7  UNK     1      32.510 -13.004  31.082  1.00  0.00     0.160 C 
HETATM   11  C10 UNK     1      32.043 -10.470  34.929  1.00  0.00     0.059 A 
HETATM   12  C11 UNK     1      32.936  -9.676  34.189  1.00  0.00     0.055 A 
HETATM   13  C16 UNK     1      31.668 -10.039  36.223  1.00  0.00     0.032 A 
HETATM   14  C17 UNK     1      33.456  -8.507  34.792  1.00  0.00     0.031 A 
HETATM   15  C21 UNK     1      32.178  -8.873  36.791  1.00  0.00     0.002 A 
HETATM   16  C22 UNK     1      33.084  -8.108  36.076  1.00  0.00     0.002 A 
HETATM   17  H7  UNK     1      30.959 -12.179  35.213  1.00  0.00     0.166 HD
HETATM   18  H8  UNK     1      34.093  -9.375  32.524  1.00  0.00     0.160 HD
ENDROOT
BRANCH   9  19
HETATM   19  C9  UNK     1      31.221  -9.801  31.649  1.00  0.00     0.042 A 
HETATM   20  C14 UNK     1      31.323  -8.358  31.312  1.00  0.00     0.195 A 
HETATM   21  O3  UNK     1      32.402  -7.786  31.217  1.00  0.00    -0.287 OA
HETATM   22  C18 UNK     1      30.050  -7.645  31.099  1.00  0.00     0.048 A 
HETATM   23  C23 UNK     1      28.851  -8.348  31.221  1.00  0.00     0.089 A 
HETATM   24  C25 UNK     1      30.040  -6.285  30.778  1.00  0.00     0.018 A 
HETATM   25  O2  UNK     1      28.802  -9.683  31.534  1.00  0.00    -0.321 OA
HETATM   26  C26 UNK     1      27.635  -7.694  31.022  1.00  0.00     0.038 A 
HETATM   27  C15 UNK     1      29.996 -10.333  31.730  1.00  0.00     0.156 A 
HETATM   28  C28 UNK     1      27.622  -6.336  30.703  1.00  0.00     0.003 A 
HETATM   29  C27 UNK     1      28.823  -5.634  30.581  1.00  0.00     0.001 A 
ENDBRANCH   9  19
BRANCH   4  30
HETATM   30  C8  UNK     1      30.932 -16.191  32.548  1.00  0.00    -0.053 A 
HETATM   31  C12 UNK     1      31.344 -17.136  31.611  1.00  0.00     0.009 A 
HETATM   32  C19 UNK     1      31.110 -18.492  31.843  1.00  0.00     0.024 A 
HETATM   33  C24 UNK     1      30.465 -18.899  33.010  1.00  0.00     0.034 A 
HETATM   34  C20 UNK     1      30.053 -17.950  33.947  1.00  0.00     0.024 A 
HETATM   35 Cl1  UNK     1      30.175 -20.572  33.296  1.00  0.00    -0.084 Cl
HETATM   36  C13 UNK     1      30.287 -16.595  33.715  1.00  0.00     0.009 A 
ENDBRANCH   4  30
TORSDOF 2
ENDMDL
MODEL 7
REMARK VINA RESULT:      -8.5     33.471     35.418
REMARK  2 active torsions:
REMARK  status: ('A' for Active; 'I' for Inactive)
REMARK    1  A    between atoms: C1_7  and  C8_14 
REMARK    2  A    between atoms: C6_12  and  C9_15 
ROOT
HETATM    1  O1  UNK     1      19.201  11.293   7.258  1.00  0.00    -0.293 OA
HETATM    2  N1  UNK     1      17.123  12.211  11.510  1.00  0.00    -0.357 N 
HETATM    3  N2  UNK     1      15.665  12.141   8.878  1.00  0.00    -0.375 N 
HETATM    4  C1  UNK     1      20.698  11.891  10.435  1.00  0.00     0.031 C 
HETATM    5  C2  UNK     1      19.504  12.466  11.202  1.00  0.00     0.067 C 
HETATM    6  C3  UNK     1      18.043  11.704   9.307  1.00  0.00     0.037 C 
HETATM    7  C4  UNK     1      18.153  12.110  10.592  1.00  0.00     0.022 C 
HETATM    8  C5  UNK     1      20.562  12.239   8.959  1.00  0.00     0.093 C 
HETATM    9  C6  UNK     1      16.764  11.212   8.679  1.00  0.00     0.160 C 
HETATM   10  C7  UNK     1      19.262  11.692   8.420  1.00  0.00     0.160 C 
HETATM   11  C10 UNK     1      15.735  12.388  11.338  1.00  0.00     0.059 A 
HETATM   12  C11 UNK     1      15.072  12.423  10.100  1.00  0.00     0.055 A 
HETATM   13  C16 UNK     1      14.980  12.603  12.516  1.00  0.00     0.032 A 
HETATM   14  C17 UNK     1      13.689  12.720  10.085  1.00  0.00     0.031 A 
HETATM   15  C21 UNK     1      13.614  12.875  12.479  1.00  0.00     0.002 A 
HETATM   16  C22 UNK     1      12.967  12.943  11.256  1.00  0.00     0.002 A 
HETATM   17  H7  UNK     1      17.432  12.299  12.475  1.00  0.00     0.166 HD
HETATM   18  H8  UNK     1      15.120  12.368   8.052  1.00  0.00     0.160 HD
ENDROOT
BRANCH   9  19
HETATM   19  C9  UNK     1      16.385   9.830   9.123  1.00  0.00     0.042 A 
HETATM   20  C14 UNK     1      15.099   9.259   8.646  1.00  0.00     0.195 A 
HETATM   21  O3  UNK     1      14.346   9.880   7.907  1.00  0.00    -0.287 OA
HETATM   22  C18 UNK     1      14.775   7.899   9.112  1.00  0.00     0.048 A 
HETATM   23  C23 UNK     1      15.671   7.239   9.954  1.00  0.00     0.089 A 
HETATM   24  C25 UNK     1      13.588   7.275   8.719  1.00  0.00     0.018 A 
HETATM   25  O2  UNK     1      16.850   7.803  10.372  1.00  0.00    -0.321 OA
HETATM   26  C26 UNK     1      15.384   5.951  10.407  1.00  0.00     0.038 A 
HETATM   27  C15 UNK     1      17.138   9.071   9.928  1.00  0.00     0.156 A 
HETATM   28  C28 UNK     1      14.199   5.326  10.017  1.00  0.00     0.003 A 
HETATM   29  C27 UNK     1      13.304   5.987   9.174  1.00  0.00     0.001 A 
ENDBRANCH   9  19
BRANCH   4  30
HETATM   30  C8  UNK     1      22.022  12.350  11.018  1.00  0.00    -0.053 A 
HETATM   31  C12 UNK     1      23.125  12.521  10.185  1.00  0.00     0.009 A 
HETATM   32  C19 UNK     1      24.343  12.942  10.721  1.00  0.00     0.024 A 
HETATM   33  C24 UNK     1      24.454  13.191  12.089  1.00  0.00     0.034 A 
HETATM   34  C20 UNK     1      23.347  13.019  12.922  1.00  0.00     0.024 A 
HETATM   35 Cl1  UNK     1      25.956  13.710  12.751  1.00  0.00    -0.084 Cl
HETATM   36  C13 UNK     1      22.131  12.598  12.385  1.00  0.00     0.009 A 
ENDBRANCH   4  30
TORSDOF 2
ENDMDL
MODEL 8
REMARK VINA RESULT:      -8.5     33.197     34.867
REMARK  2 active torsions:
REMARK  status: ('A' for Active; 'I' for Inactive)
REMARK    1  A    between atoms: C1_7  and  C8_14 
REMARK    2  A    between atoms: C6_12  and  C9_15 
ROOT
HETATM    1  O1  UNK     1      16.773  13.030  12.137  1.00  0.00    -0.293 OA
HETATM    2  N1  UNK     1      19.891  11.929   8.629  1.00  0.00    -0.357 N 
HETATM    3  N2  UNK     1      19.489  14.693   9.749  1.00  0.00    -0.375 N 
HETATM    4  C1  UNK     1      17.152   9.998  10.305  1.00  0.00     0.031 C 
HETATM    5  C2  UNK     1      18.030  10.480   9.147  1.00  0.00     0.067 C 
HETATM    6  C3  UNK     1      18.395  12.605  10.435  1.00  0.00     0.037 C 
HETATM    7  C4  UNK     1      18.784  11.771   9.444  1.00  0.00     0.022 C 
HETATM    8  C5  UNK     1      16.272  11.146  10.780  1.00  0.00     0.093 C 
HETATM    9  C6  UNK     1      19.165  13.826  10.869  1.00  0.00     0.160 C 
HETATM   10  C7  UNK     1      17.133  12.311  11.206  1.00  0.00     0.160 C 
HETATM   11  C10 UNK     1      20.613  13.079   8.250  1.00  0.00     0.059 A 
HETATM   12  C11 UNK     1      20.373  14.378   8.728  1.00  0.00     0.055 A 
HETATM   13  C16 UNK     1      21.615  12.894   7.268  1.00  0.00     0.032 A 
HETATM   14  C17 UNK     1      21.110  15.448   8.169  1.00  0.00     0.031 A 
HETATM   15  C21 UNK     1      22.344  13.961   6.746  1.00  0.00     0.002 A 
HETATM   16  C22 UNK     1      22.084  15.245   7.192  1.00  0.00     0.002 A 
HETATM   17  H7  UNK     1      20.152  11.092   8.114  1.00  0.00     0.166 HD
HETATM   18  H8  UNK     1      19.287  15.680   9.879  1.00  0.00     0.160 HD
ENDROOT
BRANCH   9  19
HETATM   19  C9  UNK     1      20.393  13.494  11.664  1.00  0.00     0.042 A 
HETATM   20  C14 UNK     1      21.142  14.603  12.309  1.00  0.00     0.195 A 
HETATM   21  O3  UNK     1      20.788  15.770  12.211  1.00  0.00    -0.287 OA
HETATM   22  C18 UNK     1      22.341  14.222  13.078  1.00  0.00     0.048 A 
HETATM   23  C23 UNK     1      22.697  12.875  13.155  1.00  0.00     0.089 A 
HETATM   24  C25 UNK     1      23.113  15.193  13.722  1.00  0.00     0.018 A 
HETATM   25  O2  UNK     1      21.977  11.881  12.543  1.00  0.00    -0.321 OA
HETATM   26  C26 UNK     1      23.828  12.493  13.877  1.00  0.00     0.038 A 
HETATM   27  C15 UNK     1      20.862  12.251  11.831  1.00  0.00     0.156 A 
HETATM   28  C28 UNK     1      24.601  13.460  14.520  1.00  0.00     0.003 A 
HETATM   29  C27 UNK     1      24.243  14.807  14.442  1.00  0.00     0.001 A 
ENDBRANCH   9  19
BRANCH   4  30
HETATM   30  C8  UNK     1      16.346   8.767   9.933  1.00  0.00    -0.053 A 
HETATM   31  C12 UNK     1      15.100   8.910   9.327  1.00  0.00     0.009 A 
HETATM   32  C19 UNK     1      14.358   7.779   8.986  1.00  0.00     0.024 A 
HETATM   33  C24 UNK     1      14.865   6.506   9.251  1.00  0.00     0.034 A 
HETATM   34  C20 UNK     1      16.114   6.366   9.858  1.00  0.00     0.024 A 
HETATM   35 Cl1  UNK     1      13.951   5.110   8.830  1.00  0.00    -0.084 Cl
HETATM   36  C13 UNK     1      16.854   7.497  10.199  1.00  0.00     0.009 A 
ENDBRANCH   4  30
TORSDOF 2
ENDMDL
MODEL 9
REMARK VINA RESULT:      -8.5      5.101      7.925
REMARK  2 active torsions:
REMARK  status: ('A' for Active; 'I' for Inactive)
REMARK    1  A    between atoms: C1_7  and  C8_14 
REMARK    2  A    between atoms: C6_12  and  C9_15 
ROOT
HETATM    1  O1  UNK     1      35.608  -5.889  33.701  1.00  0.00    -0.293 OA
HETATM    2  N1  UNK     1      31.554  -7.970  32.125  1.00  0.00    -0.357 N 
HETATM    3  N2  UNK     1      33.955  -7.390  30.405  1.00  0.00    -0.375 N 
HETATM    4  C1  UNK     1      32.472  -6.287  35.345  1.00  0.00     0.031 C 
HETATM    5  C2  UNK     1      31.582  -6.668  34.158  1.00  0.00     0.067 C 
HETATM    6  C3  UNK     1      33.677  -6.979  32.810  1.00  0.00     0.037 C 
HETATM    7  C4  UNK     1      32.353  -7.210  32.960  1.00  0.00     0.022 C 
HETATM    8  C5  UNK     1      33.597  -5.383  34.859  1.00  0.00     0.093 C 
HETATM    9  C6  UNK     1      34.527  -7.590  31.725  1.00  0.00     0.160 C 
HETATM   10  C7  UNK     1      34.396  -6.088  33.790  1.00  0.00     0.160 C 
HETATM   11  C10 UNK     1      31.686  -8.307  30.762  1.00  0.00     0.059 A 
HETATM   12  C11 UNK     1      32.781  -7.972  29.948  1.00  0.00     0.055 A 
HETATM   13  C16 UNK     1      30.591  -8.986  30.176  1.00  0.00     0.032 A 
HETATM   14  C17 UNK     1      32.718  -8.285  28.571  1.00  0.00     0.031 A 
HETATM   15  C21 UNK     1      30.559  -9.303  28.820  1.00  0.00     0.002 A 
HETATM   16  C22 UNK     1      31.623  -8.943  28.011  1.00  0.00     0.002 A 
HETATM   17  H7  UNK     1      30.655  -8.223  32.525  1.00  0.00     0.166 HD
HETATM   18  H8  UNK     1      34.593  -7.047  29.692  1.00  0.00     0.160 HD
ENDROOT
BRANCH   9  19
HETATM   19  C9  UNK     1      34.832  -9.040  31.964  1.00  0.00     0.042 A 
HETATM   20  C14 UNK     1      35.711  -9.748  30.998  1.00  0.00     0.195 A 
HETATM   21  O3  UNK     1      36.189  -9.187  30.021  1.00  0.00    -0.287 OA
HETATM   22  C18 UNK     1      35.977 -11.171  31.278  1.00  0.00     0.048 A 
HETATM   23  C23 UNK     1      35.404 -11.758  32.407  1.00  0.00     0.089 A 
HETATM   24  C25 UNK     1      36.791 -11.924  30.429  1.00  0.00     0.018 A 
HETATM   25  O2  UNK     1      34.597 -11.066  33.275  1.00  0.00    -0.321 OA
HETATM   26  C26 UNK     1      35.643 -13.103  32.692  1.00  0.00     0.038 A 
HETATM   27  C15 UNK     1      34.358  -9.742  33.000  1.00  0.00     0.156 A 
HETATM   28  C28 UNK     1      36.455 -13.858  31.845  1.00  0.00     0.003 A 
HETATM   29  C27 UNK     1      37.028 -13.269  30.717  1.00  0.00     0.001 A 
ENDBRANCH   9  19
BRANCH   4  30
HETATM   30  C8  UNK     1      31.675  -5.663  36.476  1.00  0.00    -0.053 A 
HETATM   31  C12 UNK     1      31.116  -6.474  37.460  1.00  0.00     0.009 A 
HETATM   32  C19 UNK     1      30.382  -5.901  38.499  1.00  0.00     0.024 A 
HETATM   33  C24 UNK     1      30.210  -4.518  38.552  1.00  0.00     0.034 A 
HETATM   34  C20 UNK     1      30.772  -3.707  37.563  1.00  0.00     0.024 A 
HETATM   35 Cl1  UNK     1      29.306  -3.809  39.833  1.00  0.00    -0.084 Cl
HETATM   36  C13 UNK     1      31.505  -4.281  36.525  1.00  0.00     0.009 A 
ENDBRANCH   4  30
TORSDOF 2
ENDMDL
MODEL 10
REMARK VINA RESULT:      -8.3      6.195     10.486
REMARK  2 active torsions:
REMARK  status: ('A' for Active; 'I' for Inactive)
REMARK    1  A    between atoms: C1_7  and  C8_14 
REMARK    2  A    between atoms: C6_12  and  C9_15 
ROOT
HETATM    1  O1  UNK     1      35.246  -6.622  31.360  1.00  0.00    -0.293 OA
HETATM    2  N1  UNK     1      33.385  -9.728  34.544  1.00  0.00    -0.357 N 
HETATM    3  N2  UNK     1      32.825  -6.771  34.516  1.00  0.00    -0.375 N 
HETATM    4  C1  UNK     1      36.057 -10.043  31.936  1.00  0.00     0.031 C 
HETATM    5  C2  UNK     1      35.376 -10.267  33.289  1.00  0.00     0.067 C 
HETATM    6  C3  UNK     1      34.213  -8.066  32.960  1.00  0.00     0.037 C 
HETATM    7  C4  UNK     1      34.279  -9.255  33.600  1.00  0.00     0.022 C 
HETATM    8  C5  UNK     1      36.493  -8.589  31.828  1.00  0.00     0.093 C 
HETATM    9  C6  UNK     1      33.088  -7.076  33.121  1.00  0.00     0.160 C 
HETATM   10  C7  UNK     1      35.298  -7.681  31.986  1.00  0.00     0.160 C 
HETATM   11  C10 UNK     1      32.508  -9.052  35.417  1.00  0.00     0.059 A 
HETATM   12  C11 UNK     1      32.304  -7.662  35.443  1.00  0.00     0.055 A 
HETATM   13  C16 UNK     1      31.835  -9.852  36.371  1.00  0.00     0.032 A 
HETATM   14  C17 UNK     1      31.474  -7.122  36.452  1.00  0.00     0.031 A 
HETATM   15  C21 UNK     1      31.005  -9.300  37.345  1.00  0.00     0.002 A 
HETATM   16  C22 UNK     1      30.831  -7.927  37.392  1.00  0.00     0.002 A 
HETATM   17  H7  UNK     1      33.464 -10.723  34.731  1.00  0.00     0.166 HD
HETATM   18  H8  UNK     1      32.742  -5.785  34.747  1.00  0.00     0.160 HD
ENDROOT
BRANCH   9  19
HETATM   19  C9  UNK     1      31.831  -7.497  32.417  1.00  0.00     0.042 A 
HETATM   20  C14 UNK     1      30.643  -6.608  32.495  1.00  0.00     0.195 A 
HETATM   21  O3  UNK     1      30.661  -5.551  33.113  1.00  0.00    -0.287 OA
HETATM   22  C18 UNK     1      29.434  -7.069  31.788  1.00  0.00     0.048 A 
HETATM   23  C23 UNK     1      29.473  -8.282  31.101  1.00  0.00     0.089 A 
HETATM   24  C25 UNK     1      28.265  -6.304  31.802  1.00  0.00     0.018 A 
HETATM   25  O2  UNK     1      30.592  -9.074  31.054  1.00  0.00    -0.321 OA
HETATM   26  C26 UNK     1      28.340  -8.737  30.424  1.00  0.00     0.038 A 
HETATM   27  C15 UNK     1      31.711  -8.631  31.718  1.00  0.00     0.156 A 
HETATM   28  C28 UNK     1      27.171  -7.976  30.437  1.00  0.00     0.003 A 
HETATM   29  C27 UNK     1      27.135  -6.761  31.125  1.00  0.00     0.001 A 
ENDBRANCH   9  19
BRANCH   4  30
HETATM   30  C8  UNK     1      37.205 -11.010  31.710  1.00  0.00    -0.053 A 
HETATM   31  C12 UNK     1      36.955 -12.269  31.170  1.00  0.00     0.009 A 
HETATM   32  C19 UNK     1      38.010 -13.159  30.964  1.00  0.00     0.024 A 
HETATM   33  C24 UNK     1      39.312 -12.787  31.298  1.00  0.00     0.034 A 
HETATM   34  C20 UNK     1      39.560 -11.524  31.840  1.00  0.00     0.024 A 
HETATM   35 Cl1  UNK     1      40.614 -13.883  31.045  1.00  0.00    -0.084 Cl
HETATM   36  C13 UNK     1      38.505 -10.636  32.046  1.00  0.00     0.009 A 
ENDBRANCH   4  30
TORSDOF 2
ENDMDL
