MODEL 1
REMARK VINA RESULT:      -9.5      0.000      0.000
REMARK  3 active torsions:
REMARK  status: ('A' for Active; 'I' for Inactive)
REMARK    1  A    between atoms: C15_20  and  O2_2 
REMARK       I    between atoms: C11_16  and  N1_5 
REMARK    2  A    between atoms: C4_9  and  N1_5 
REMARK    3  A    between atoms: C10_15  and  C11_16 
ROOT
HETATM    1  O1  UNK     1      16.448   7.560  32.796  1.00  0.00    -0.275 OA
HETATM    2  O4  UNK     1      15.184   9.217  33.735  1.00  0.00    -0.260 OA
HETATM    3  C1  UNK     1      18.865   7.557  33.145  1.00  0.00     0.004 A 
HETATM    4  C2  UNK     1      17.719   6.986  32.592  1.00  0.00     0.092 A 
HETATM    5  C3  UNK     1      18.725   8.777  33.952  1.00  0.00    -0.043 A 
HETATM    6  C4  UNK     1      18.991   5.216  31.578  1.00  0.00     0.037 A 
HETATM    7  C5  UNK     1      17.764   5.828  31.813  1.00  0.00     0.067 A 
HETATM    8  C6  UNK     1      20.092   6.926  32.896  1.00  0.00     0.017 A 
HETATM    9  C7  UNK     1      20.152   5.764  32.118  1.00  0.00     0.030 A 
HETATM   10  C8  UNK     1      17.504   9.301  34.129  1.00  0.00     0.090 A 
HETATM   11  C9  UNK     1      19.939   9.416  34.560  1.00  0.00     0.049 C 
HETATM   12  C12 UNK     1      16.284   8.710  33.551  1.00  0.00     0.288 A 
ENDROOT
BRANCH   6  13
HETATM   13  N1  UNK     1      19.058   4.057  30.804  1.00  0.00    -0.323 N 
HETATM   14  C11 UNK     1      18.546   2.814  31.152  1.00  0.00     0.256 C 
HETATM   15  O3  UNK     1      17.953   2.502  32.179  1.00  0.00    -0.267 OA
HETATM   16  H5  UNK     1      19.573   4.163  29.935  1.00  0.00     0.169 HD
BRANCH  14  17
HETATM   17  C10 UNK     1      18.733   1.760  30.120  1.00  0.00     0.035 A 
HETATM   18  C13 UNK     1      19.693   0.791  30.325  1.00  0.00     0.053 A 
HETATM   19  C15 UNK     1      19.867  -0.198  29.357  1.00  0.00     0.069 A 
HETATM   20  C17 UNK     1      19.079  -0.195  28.207  1.00  0.00     0.037 A 
HETATM   21  C16 UNK     1      18.115   0.796  28.025  1.00  0.00     0.004 A 
HETATM   22  C14 UNK     1      17.941   1.785  28.992  1.00  0.00     0.017 A 
BRANCH  19  23
HETATM   23  O2  UNK     1      20.808  -1.166  29.535  1.00  0.00    -0.356 OA
HETATM   24  C18 UNK     1      20.460  -2.264  30.377  1.00  0.00     0.210 C 
ENDBRANCH  19  23
ENDBRANCH  14  17
ENDBRANCH   6  13
TORSDOF 3
ENDMDL
MODEL 2
REMARK VINA RESULT:      -9.2      8.136     13.667
REMARK  3 active torsions:
REMARK  status: ('A' for Active; 'I' for Inactive)
REMARK    1  A    between atoms: C15_20  and  O2_2 
REMARK       I    between atoms: C11_16  and  N1_5 
REMARK    2  A    between atoms: C4_9  and  N1_5 
REMARK    3  A    between atoms: C10_15  and  C11_16 
ROOT
HETATM    1  O1  UNK     1      21.015  -8.594  34.982  1.00  0.00    -0.275 OA
HETATM    2  O4  UNK     1      22.083 -10.437  34.151  1.00  0.00    -0.260 OA
HETATM    3  C1  UNK     1      19.750  -8.783  37.063  1.00  0.00     0.004 A 
HETATM    4  C2  UNK     1      20.209  -8.023  35.987  1.00  0.00     0.092 A 
HETATM    5  C3  UNK     1      20.122 -10.203  37.131  1.00  0.00    -0.043 A 
HETATM    6  C4  UNK     1      19.111  -6.048  36.808  1.00  0.00     0.037 A 
HETATM    7  C5  UNK     1      19.901  -6.668  35.846  1.00  0.00     0.067 A 
HETATM    8  C6  UNK     1      18.953  -8.141  38.020  1.00  0.00     0.017 A 
HETATM    9  C7  UNK     1      18.637  -6.783  37.893  1.00  0.00     0.030 A 
HETATM   10  C8  UNK     1      20.889 -10.720  36.162  1.00  0.00     0.090 A 
HETATM   11  C9  UNK     1      19.643 -11.048  38.275  1.00  0.00     0.049 C 
HETATM   12  C12 UNK     1      21.382  -9.930  35.020  1.00  0.00     0.288 A 
ENDROOT
BRANCH   6  13
HETATM   13  N1  UNK     1      18.792  -4.695  36.687  1.00  0.00    -0.323 N 
HETATM   14  C11 UNK     1      19.700  -3.644  36.655  1.00  0.00     0.256 C 
HETATM   15  O3  UNK     1      20.923  -3.700  36.727  1.00  0.00    -0.267 OA
HETATM   16  H5  UNK     1      17.796  -4.499  36.666  1.00  0.00     0.169 HD
BRANCH  14  17
HETATM   17  C10 UNK     1      19.083  -2.302  36.487  1.00  0.00     0.035 A 
HETATM   18  C13 UNK     1      19.219  -1.653  35.278  1.00  0.00     0.053 A 
HETATM   19  C15 UNK     1      18.640  -0.395  35.120  1.00  0.00     0.069 A 
HETATM   20  C17 UNK     1      17.937   0.187  36.176  1.00  0.00     0.037 A 
HETATM   21  C16 UNK     1      17.813  -0.491  37.388  1.00  0.00     0.004 A 
HETATM   22  C14 UNK     1      18.393  -1.750  37.546  1.00  0.00     0.017 A 
BRANCH  19  23
HETATM   23  O2  UNK     1      18.760   0.267  33.937  1.00  0.00    -0.356 OA
HETATM   24  C18 UNK     1      18.204   1.579  33.867  1.00  0.00     0.210 C 
ENDBRANCH  19  23
ENDBRANCH  14  17
ENDBRANCH   6  13
TORSDOF 3
ENDMDL
MODEL 3
REMARK VINA RESULT:      -9.1      8.458     13.714
REMARK  3 active torsions:
REMARK  status: ('A' for Active; 'I' for Inactive)
REMARK    1  A    between atoms: C15_20  and  O2_2 
REMARK       I    between atoms: C11_16  and  N1_5 
REMARK    2  A    between atoms: C4_9  and  N1_5 
REMARK    3  A    between atoms: C10_15  and  C11_16 
ROOT
HETATM    1  O1  UNK     1      19.097  -9.030  38.455  1.00  0.00    -0.275 OA
HETATM    2  O4  UNK     1      19.115 -11.084  39.458  1.00  0.00    -0.260 OA
HETATM    3  C1  UNK     1      20.291  -8.719  36.347  1.00  0.00     0.004 A 
HETATM    4  C2  UNK     1      19.503  -8.213  37.382  1.00  0.00     0.092 A 
HETATM    5  C3  UNK     1      20.695 -10.131  36.396  1.00  0.00    -0.043 A 
HETATM    6  C4  UNK     1      19.444  -6.029  36.378  1.00  0.00     0.037 A 
HETATM    7  C5  UNK     1      19.076  -6.883  37.411  1.00  0.00     0.067 A 
HETATM    8  C6  UNK     1      20.652  -7.841  35.316  1.00  0.00     0.017 A 
HETATM    9  C7  UNK     1      20.231  -6.507  35.332  1.00  0.00     0.030 A 
HETATM   10  C8  UNK     1      20.295 -10.884  37.430  1.00  0.00     0.090 A 
HETATM   11  C9  UNK     1      21.543 -10.705  35.300  1.00  0.00     0.049 C 
HETATM   12  C12 UNK     1      19.463 -10.365  38.529  1.00  0.00     0.288 A 
ENDROOT
BRANCH   6  13
HETATM   13  N1  UNK     1      19.028  -4.698  36.388  1.00  0.00    -0.323 N 
HETATM   14  C11 UNK     1      19.842  -3.590  36.587  1.00  0.00     0.256 C 
HETATM   15  O3  UNK     1      21.052  -3.569  36.788  1.00  0.00    -0.267 OA
HETATM   16  H5  UNK     1      18.027  -4.570  36.279  1.00  0.00     0.169 HD
BRANCH  14  17
HETATM   17  C10 UNK     1      19.136  -2.284  36.515  1.00  0.00     0.035 A 
HETATM   18  C13 UNK     1      19.257  -1.524  35.371  1.00  0.00     0.053 A 
HETATM   19  C15 UNK     1      18.593  -0.299  35.304  1.00  0.00     0.069 A 
HETATM   20  C17 UNK     1      17.825   0.138  36.383  1.00  0.00     0.037 A 
HETATM   21  C16 UNK     1      17.719  -0.651  37.528  1.00  0.00     0.004 A 
HETATM   22  C14 UNK     1      18.382  -1.875  37.595  1.00  0.00     0.017 A 
BRANCH  19  23
HETATM   23  O2  UNK     1      18.696   0.471  34.186  1.00  0.00    -0.356 OA
HETATM   24  C18 UNK     1      18.047   1.741  34.210  1.00  0.00     0.210 C 
ENDBRANCH  19  23
ENDBRANCH  14  17
ENDBRANCH   6  13
TORSDOF 3
ENDMDL
MODEL 4
REMARK VINA RESULT:      -9.1      1.831      8.551
REMARK  3 active torsions:
REMARK  status: ('A' for Active; 'I' for Inactive)
REMARK    1  A    between atoms: C15_20  and  O2_2 
REMARK       I    between atoms: C11_16  and  N1_5 
REMARK    2  A    between atoms: C4_9  and  N1_5 
REMARK    3  A    between atoms: C10_15  and  C11_16 
ROOT
HETATM    1  O1  UNK     1      19.247  -0.098  32.811  1.00  0.00    -0.275 OA
HETATM    2  O4  UNK     1      20.004  -2.193  33.324  1.00  0.00    -0.260 OA
HETATM    3  C1  UNK     1      19.344   0.674  30.495  1.00  0.00     0.004 A 
HETATM    4  C2  UNK     1      19.019   0.893  31.835  1.00  0.00     0.092 A 
HETATM    5  C3  UNK     1      19.933  -0.617  30.116  1.00  0.00    -0.043 A 
HETATM    6  C4  UNK     1      18.208   3.106  31.361  1.00  0.00     0.037 A 
HETATM    7  C5  UNK     1      18.457   2.091  32.279  1.00  0.00     0.067 A 
HETATM    8  C6  UNK     1      19.087   1.709  29.586  1.00  0.00     0.017 A 
HETATM    9  C7  UNK     1      18.522   2.915  30.017  1.00  0.00     0.030 A 
HETATM   10  C8  UNK     1      20.139  -1.540  31.065  1.00  0.00     0.090 A 
HETATM   11  C9  UNK     1      20.295  -0.883  28.684  1.00  0.00     0.049 C 
HETATM   12  C12 UNK     1      19.801  -1.325  32.483  1.00  0.00     0.288 A 
ENDROOT
BRANCH   6  13
HETATM   13  N1  UNK     1      17.645   4.310  31.784  1.00  0.00    -0.323 N 
HETATM   14  C11 UNK     1      18.339   5.480  32.063  1.00  0.00     0.256 C 
HETATM   15  O3  UNK     1      19.548   5.676  31.995  1.00  0.00    -0.267 OA
HETATM   16  H5  UNK     1      16.641   4.276  31.930  1.00  0.00     0.169 HD
BRANCH  14  17
HETATM   17  C10 UNK     1      17.481   6.625  32.466  1.00  0.00     0.035 A 
HETATM   18  C13 UNK     1      18.081   7.817  32.816  1.00  0.00     0.053 A 
HETATM   19  C15 UNK     1      17.275   8.891  33.193  1.00  0.00     0.069 A 
HETATM   20  C17 UNK     1      15.888   8.749  33.211  1.00  0.00     0.037 A 
HETATM   21  C16 UNK     1      15.306   7.533  32.852  1.00  0.00     0.004 A 
HETATM   22  C14 UNK     1      16.112   6.459  32.475  1.00  0.00     0.017 A 
BRANCH  19  23
HETATM   23  O2  UNK     1      17.843  10.078  33.543  1.00  0.00    -0.356 OA
HETATM   24  C18 UNK     1      17.004  11.032  34.191  1.00  0.00     0.210 C 
ENDBRANCH  19  23
ENDBRANCH  14  17
ENDBRANCH   6  13
TORSDOF 3
ENDMDL
MODEL 5
REMARK VINA RESULT:      -8.8      1.832      8.541
REMARK  3 active torsions:
REMARK  status: ('A' for Active; 'I' for Inactive)
REMARK    1  A    between atoms: C15_20  and  O2_2 
REMARK       I    between atoms: C11_16  and  N1_5 
REMARK    2  A    between atoms: C4_9  and  N1_5 
REMARK    3  A    between atoms: C10_15  and  C11_16 
ROOT
HETATM    1  O1  UNK     1      19.564   0.954  29.477  1.00  0.00    -0.275 OA
HETATM    2  O4  UNK     1      20.524  -0.619  28.124  1.00  0.00    -0.260 OA
HETATM    3  C1  UNK     1      19.137   0.414  31.821  1.00  0.00     0.004 A 
HETATM    4  C2  UNK     1      19.085   1.311  30.753  1.00  0.00     0.092 A 
HETATM    5  C3  UNK     1      19.705  -0.921  31.591  1.00  0.00    -0.043 A 
HETATM    6  C4  UNK     1      18.074   3.009  32.123  1.00  0.00     0.037 A 
HETATM    7  C5  UNK     1      18.561   2.599  30.887  1.00  0.00     0.067 A 
HETATM    8  C6  UNK     1      18.640   0.846  33.058  1.00  0.00     0.017 A 
HETATM    9  C7  UNK     1      18.113   2.134  33.207  1.00  0.00     0.030 A 
HETATM   10  C8  UNK     1      20.152  -1.234  30.367  1.00  0.00     0.090 A 
HETATM   11  C9  UNK     1      19.774  -1.910  32.718  1.00  0.00     0.049 C 
HETATM   12  C12 UNK     1      20.105  -0.298  29.230  1.00  0.00     0.288 A 
ENDROOT
BRANCH   6  13
HETATM   13  N1  UNK     1      17.548   4.291  32.278  1.00  0.00    -0.323 N 
HETATM   14  C11 UNK     1      18.264   5.430  32.625  1.00  0.00     0.256 C 
HETATM   15  O3  UNK     1      19.465   5.525  32.856  1.00  0.00    -0.267 OA
HETATM   16  H5  UNK     1      16.541   4.349  32.161  1.00  0.00     0.169 HD
BRANCH  14  17
HETATM   17  C10 UNK     1      17.452   6.673  32.689  1.00  0.00     0.035 A 
HETATM   18  C13 UNK     1      18.054   7.841  33.111  1.00  0.00     0.053 A 
HETATM   19  C15 UNK     1      17.292   9.007  33.170  1.00  0.00     0.069 A 
HETATM   20  C17 UNK     1      15.945   8.980  32.807  1.00  0.00     0.037 A 
HETATM   21  C16 UNK     1      15.361   7.786  32.384  1.00  0.00     0.004 A 
HETATM   22  C14 UNK     1      16.123   6.620  32.324  1.00  0.00     0.017 A 
BRANCH  19  23
HETATM   23  O2  UNK     1      17.862  10.172  33.583  1.00  0.00    -0.356 OA
HETATM   24  C18 UNK     1      17.003  11.136  34.190  1.00  0.00     0.210 C 
ENDBRANCH  19  23
ENDBRANCH  14  17
ENDBRANCH   6  13
TORSDOF 3
ENDMDL
MODEL 6
REMARK VINA RESULT:      -8.7      7.677     12.851
REMARK  3 active torsions:
REMARK  status: ('A' for Active; 'I' for Inactive)
REMARK    1  A    between atoms: C15_20  and  O2_2 
REMARK       I    between atoms: C11_16  and  N1_5 
REMARK    2  A    between atoms: C4_9  and  N1_5 
REMARK    3  A    between atoms: C10_15  and  C11_16 
ROOT
HETATM    1  O1  UNK     1      22.449  -6.658  38.359  1.00  0.00    -0.275 OA
HETATM    2  O4  UNK     1      24.048  -8.027  39.254  1.00  0.00    -0.260 OA
HETATM    3  C1  UNK     1      21.213  -7.396  36.386  1.00  0.00     0.004 A 
HETATM    4  C2  UNK     1      21.470  -6.440  37.369  1.00  0.00     0.092 A 
HETATM    5  C3  UNK     1      21.985  -8.645  36.400  1.00  0.00    -0.043 A 
HETATM    6  C4  UNK     1      19.803  -4.955  36.478  1.00  0.00     0.037 A 
HETATM    7  C5  UNK     1      20.782  -5.226  37.428  1.00  0.00     0.067 A 
HETATM    8  C6  UNK     1      20.224  -7.102  35.438  1.00  0.00     0.017 A 
HETATM    9  C7  UNK     1      19.524  -5.891  35.485  1.00  0.00     0.030 A 
HETATM   10  C8  UNK     1      22.910  -8.826  37.352  1.00  0.00     0.090 A 
HETATM   11  C9  UNK     1      21.732  -9.693  35.355  1.00  0.00     0.049 C 
HETATM   12  C12 UNK     1      23.194  -7.826  38.397  1.00  0.00     0.288 A 
ENDROOT
BRANCH   6  13
HETATM   13  N1  UNK     1      19.102  -3.749  36.520  1.00  0.00    -0.323 N 
HETATM   14  C11 UNK     1      19.557  -2.526  36.044  1.00  0.00     0.256 C 
HETATM   15  O3  UNK     1      20.633  -2.275  35.512  1.00  0.00    -0.267 OA
HETATM   16  H5  UNK     1      18.202  -3.803  36.984  1.00  0.00     0.169 HD
BRANCH  14  17
HETATM   17  C10 UNK     1      18.586  -1.409  36.189  1.00  0.00     0.035 A 
HETATM   18  C13 UNK     1      18.290  -0.636  35.086  1.00  0.00     0.053 A 
HETATM   19  C15 UNK     1      17.380   0.411  35.222  1.00  0.00     0.069 A 
HETATM   20  C17 UNK     1      16.786   0.662  36.459  1.00  0.00     0.037 A 
HETATM   21  C16 UNK     1      17.102  -0.135  37.559  1.00  0.00     0.004 A 
HETATM   22  C14 UNK     1      18.013  -1.182  37.423  1.00  0.00     0.017 A 
BRANCH  19  23
HETATM   23  O2  UNK     1      17.070   1.189  34.149  1.00  0.00    -0.356 OA
HETATM   24  C18 UNK     1      18.150   1.857  33.499  1.00  0.00     0.210 C 
ENDBRANCH  19  23
ENDBRANCH  14  17
ENDBRANCH   6  13
TORSDOF 3
ENDMDL
MODEL 7
REMARK VINA RESULT:      -8.6      7.292      9.937
REMARK  3 active torsions:
REMARK  status: ('A' for Active; 'I' for Inactive)
REMARK    1  A    between atoms: C15_20  and  O2_2 
REMARK       I    between atoms: C11_16  and  N1_5 
REMARK    2  A    between atoms: C4_9  and  N1_5 
REMARK    3  A    between atoms: C10_15  and  C11_16 
ROOT
HETATM    1  O1  UNK     1      18.959  -0.453  34.021  1.00  0.00    -0.275 OA
HETATM    2  O4  UNK     1      18.328   1.350  32.764  1.00  0.00    -0.260 OA
HETATM    3  C1  UNK     1      18.349  -0.535  36.384  1.00  0.00     0.004 A 
HETATM    4  C2  UNK     1      18.967  -1.105  35.270  1.00  0.00     0.092 A 
HETATM    5  C3  UNK     1      17.684   0.766  36.232  1.00  0.00    -0.043 A 
HETATM    6  C4  UNK     1      19.660  -3.028  36.535  1.00  0.00     0.037 A 
HETATM    7  C5  UNK     1      19.621  -2.337  35.329  1.00  0.00     0.067 A 
HETATM    8  C6  UNK     1      18.402  -1.246  37.591  1.00  0.00     0.017 A 
HETATM    9  C7  UNK     1      19.052  -2.483  37.664  1.00  0.00     0.030 A 
HETATM   10  C8  UNK     1      17.693   1.363  35.033  1.00  0.00     0.090 A 
HETATM   11  C9  UNK     1      17.012   1.405  37.412  1.00  0.00     0.049 C 
HETATM   12  C12 UNK     1      18.341   0.775  33.847  1.00  0.00     0.288 A 
ENDROOT
BRANCH   6  13
HETATM   13  N1  UNK     1      20.307  -4.261  36.615  1.00  0.00    -0.323 N 
HETATM   14  C11 UNK     1      19.697  -5.507  36.546  1.00  0.00     0.256 C 
HETATM   15  O3  UNK     1      18.504  -5.758  36.405  1.00  0.00    -0.267 OA
HETATM   16  H5  UNK     1      21.306  -4.201  36.782  1.00  0.00     0.169 HD
BRANCH  14  17
HETATM   17  C10 UNK     1      20.634  -6.658  36.628  1.00  0.00     0.035 A 
HETATM   18  C13 UNK     1      20.641  -7.586  35.608  1.00  0.00     0.053 A 
HETATM   19  C15 UNK     1      21.521  -8.665  35.685  1.00  0.00     0.069 A 
HETATM   20  C17 UNK     1      22.374  -8.792  36.781  1.00  0.00     0.037 A 
HETATM   21  C16 UNK     1      22.348  -7.839  37.799  1.00  0.00     0.004 A 
HETATM   22  C14 UNK     1      21.468  -6.760  37.722  1.00  0.00     0.017 A 
BRANCH  19  23
HETATM   23  O2  UNK     1      21.547  -9.595  34.692  1.00  0.00    -0.356 OA
HETATM   24  C18 UNK     1      21.772 -10.950  35.076  1.00  0.00     0.210 C 
ENDBRANCH  19  23
ENDBRANCH  14  17
ENDBRANCH   6  13
TORSDOF 3
ENDMDL
MODEL 8
REMARK VINA RESULT:      -8.5      7.961     12.560
REMARK  3 active torsions:
REMARK  status: ('A' for Active; 'I' for Inactive)
REMARK    1  A    between atoms: C15_20  and  O2_2 
REMARK       I    between atoms: C11_16  and  N1_5 
REMARK    2  A    between atoms: C4_9  and  N1_5 
REMARK    3  A    between atoms: C10_15  and  C11_16 
ROOT
HETATM    1  O1  UNK     1      19.097  -8.193  37.089  1.00  0.00    -0.275 OA
HETATM    2  O4  UNK     1      19.040 -10.450  37.447  1.00  0.00    -0.260 OA
HETATM    3  C1  UNK     1      20.933  -6.881  38.022  1.00  0.00     0.004 A 
HETATM    4  C2  UNK     1      19.750  -6.960  37.287  1.00  0.00     0.092 A 
HETATM    5  C3  UNK     1      21.492  -8.114  38.591  1.00  0.00    -0.043 A 
HETATM    6  C4  UNK     1      19.752  -4.592  36.873  1.00  0.00     0.037 A 
HETATM    7  C5  UNK     1      19.152  -5.836  36.712  1.00  0.00     0.067 A 
HETATM    8  C6  UNK     1      21.521  -5.617  38.174  1.00  0.00     0.017 A 
HETATM    9  C7  UNK     1      20.934  -4.483  37.603  1.00  0.00     0.030 A 
HETATM   10  C8  UNK     1      20.850  -9.272  38.387  1.00  0.00     0.090 A 
HETATM   11  C9  UNK     1      22.763  -8.062  39.388  1.00  0.00     0.049 C 
HETATM   12  C12 UNK     1      19.600  -9.373  37.613  1.00  0.00     0.288 A 
ENDROOT
BRANCH   6  13
HETATM   13  N1  UNK     1      19.172  -3.457  36.307  1.00  0.00    -0.323 N 
HETATM   14  C11 UNK     1      18.844  -2.287  36.980  1.00  0.00     0.256 C 
HETATM   15  O3  UNK     1      18.996  -2.033  38.170  1.00  0.00    -0.267 OA
HETATM   16  H5  UNK     1      18.946  -3.549  35.321  1.00  0.00     0.169 HD
BRANCH  14  17
HETATM   17  C10 UNK     1      18.265  -1.222  36.119  1.00  0.00     0.035 A 
HETATM   18  C13 UNK     1      18.788  -1.027  34.858  1.00  0.00     0.053 A 
HETATM   19  C15 UNK     1      18.244  -0.028  34.051  1.00  0.00     0.069 A 
HETATM   20  C17 UNK     1      17.190   0.753  34.524  1.00  0.00     0.037 A 
HETATM   21  C16 UNK     1      16.679   0.535  35.803  1.00  0.00     0.004 A 
HETATM   22  C14 UNK     1      17.223  -0.464  36.610  1.00  0.00     0.017 A 
BRANCH  19  23
HETATM   23  O2  UNK     1      18.742   0.185  32.802  1.00  0.00    -0.356 OA
HETATM   24  C18 UNK     1      19.135  -0.965  32.055  1.00  0.00     0.210 C 
ENDBRANCH  19  23
ENDBRANCH  14  17
ENDBRANCH   6  13
TORSDOF 3
ENDMDL
MODEL 9
REMARK VINA RESULT:      -8.5      7.394     12.835
REMARK  3 active torsions:
REMARK  status: ('A' for Active; 'I' for Inactive)
REMARK    1  A    between atoms: C15_20  and  O2_2 
REMARK       I    between atoms: C11_16  and  N1_5 
REMARK    2  A    between atoms: C4_9  and  N1_5 
REMARK    3  A    between atoms: C10_15  and  C11_16 
ROOT
HETATM    1  O1  UNK     1      20.953  -8.154  34.801  1.00  0.00    -0.275 OA
HETATM    2  O4  UNK     1      21.715 -10.242  34.264  1.00  0.00    -0.260 OA
HETATM    3  C1  UNK     1      20.713  -7.537  37.152  1.00  0.00     0.004 A 
HETATM    4  C2  UNK     1      20.607  -7.219  35.797  1.00  0.00     0.092 A 
HETATM    5  C3  UNK     1      21.195  -8.873  37.526  1.00  0.00    -0.043 A 
HETATM    6  C4  UNK     1      19.802  -5.009  36.294  1.00  0.00     0.037 A 
HETATM    7  C5  UNK     1      20.157  -5.973  35.356  1.00  0.00     0.067 A 
HETATM    8  C6  UNK     1      20.348  -6.553  38.080  1.00  0.00     0.017 A 
HETATM    9  C7  UNK     1      19.897  -5.299  37.654  1.00  0.00     0.030 A 
HETATM   10  C8  UNK     1      21.517  -9.741  36.557  1.00  0.00     0.090 A 
HETATM   11  C9  UNK     1      21.320  -9.246  38.974  1.00  0.00     0.049 C 
HETATM   12  C12 UNK     1      21.411  -9.421  35.123  1.00  0.00     0.288 A 
ENDROOT
BRANCH   6  13
HETATM   13  N1  UNK     1      19.351  -3.757  35.875  1.00  0.00    -0.323 N 
HETATM   14  C11 UNK     1      20.152  -2.671  35.545  1.00  0.00     0.256 C 
HETATM   15  O3  UNK     1      21.376  -2.604  35.559  1.00  0.00    -0.267 OA
HETATM   16  H5  UNK     1      18.341  -3.657  35.864  1.00  0.00     0.169 HD
BRANCH  14  17
HETATM   17  C10 UNK     1      19.404  -1.466  35.100  1.00  0.00     0.035 A 
HETATM   18  C13 UNK     1      19.127  -0.476  36.019  1.00  0.00     0.053 A 
HETATM   19  C15 UNK     1      18.426   0.654  35.600  1.00  0.00     0.069 A 
HETATM   20  C17 UNK     1      18.016   0.768  34.272  1.00  0.00     0.037 A 
HETATM   21  C16 UNK     1      18.310  -0.248  33.362  1.00  0.00     0.004 A 
HETATM   22  C14 UNK     1      19.011  -1.378  33.781  1.00  0.00     0.017 A 
BRANCH  19  23
HETATM   23  O2  UNK     1      18.141   1.646  36.488  1.00  0.00    -0.356 OA
HETATM   24  C18 UNK     1      16.942   1.510  37.250  1.00  0.00     0.210 C 
ENDBRANCH  19  23
ENDBRANCH  14  17
ENDBRANCH   6  13
TORSDOF 3
ENDMDL
MODEL 10
REMARK VINA RESULT:      -8.5      7.810     12.390
REMARK  3 active torsions:
REMARK  status: ('A' for Active; 'I' for Inactive)
REMARK    1  A    between atoms: C15_20  and  O2_2 
REMARK       I    between atoms: C11_16  and  N1_5 
REMARK    2  A    between atoms: C4_9  and  N1_5 
REMARK    3  A    between atoms: C10_15  and  C11_16 
ROOT
HETATM    1  O1  UNK     1      22.396  -6.117  38.319  1.00  0.00    -0.275 OA
HETATM    2  O4  UNK     1      23.942  -7.440  39.361  1.00  0.00    -0.260 OA
HETATM    3  C1  UNK     1      20.139  -6.977  37.954  1.00  0.00     0.004 A 
HETATM    4  C2  UNK     1      21.083  -5.956  37.833  1.00  0.00     0.092 A 
HETATM    5  C3  UNK     1      20.540  -8.233  38.603  1.00  0.00    -0.043 A 
HETATM    6  C4  UNK     1      19.504  -4.516  36.733  1.00  0.00     0.037 A 
HETATM    7  C5  UNK     1      20.784  -4.733  37.230  1.00  0.00     0.067 A 
HETATM    8  C6  UNK     1      18.855  -6.739  37.445  1.00  0.00     0.017 A 
HETATM    9  C7  UNK     1      18.541  -5.517  36.840  1.00  0.00     0.030 A 
HETATM   10  C8  UNK     1      21.795  -8.358  39.055  1.00  0.00     0.090 A 
HETATM   11  C9  UNK     1      19.549  -9.350  38.748  1.00  0.00     0.049 C 
HETATM   12  C12 UNK     1      22.803  -7.290  38.934  1.00  0.00     0.288 A 
ENDROOT
BRANCH   6  13
HETATM   13  N1  UNK     1      19.184  -3.300  36.128  1.00  0.00    -0.323 N 
HETATM   14  C11 UNK     1      18.826  -2.131  36.788  1.00  0.00     0.256 C 
HETATM   15  O3  UNK     1      18.722  -1.947  37.996  1.00  0.00    -0.267 OA
HETATM   16  H5  UNK     1      19.184  -3.323  35.113  1.00  0.00     0.169 HD
BRANCH  14  17
HETATM   17  C10 UNK     1      18.567  -0.973  35.893  1.00  0.00     0.035 A 
HETATM   18  C13 UNK     1      18.690  -1.143  34.530  1.00  0.00     0.053 A 
HETATM   19  C15 UNK     1      18.447  -0.057  33.691  1.00  0.00     0.069 A 
HETATM   20  C17 UNK     1      18.088   1.177  34.234  1.00  0.00     0.037 A 
HETATM   21  C16 UNK     1      17.970   1.323  35.616  1.00  0.00     0.004 A 
HETATM   22  C14 UNK     1      18.213   0.236  36.455  1.00  0.00     0.017 A 
BRANCH  19  23
HETATM   23  O2  UNK     1      18.561  -0.199  32.342  1.00  0.00    -0.356 OA
HETATM   24  C18 UNK     1      19.318  -1.311  31.867  1.00  0.00     0.210 C 
ENDBRANCH  19  23
ENDBRANCH  14  17
ENDBRANCH   6  13
TORSDOF 3
ENDMDL
