MODEL 1
REMARK VINA RESULT:      -7.8      0.000      0.000
REMARK  3 active torsions:
REMARK  status: ('A' for Active; 'I' for Inactive)
REMARK    1  A    between atoms: C13_19  and  O3_3 
REMARK    2  A    between atoms: C1_7  and  C10_16 
REMARK    3  A    between atoms: C13_19  and  C6_12 
ROOT
HETATM    1  O1  UNK     1      30.342  -9.317  34.218  1.00  0.00    -0.293 OA
HETATM    2  N1  UNK     1      31.437  -4.709  34.328  1.00  0.00    -0.362 N 
HETATM    3  C1  UNK     1      31.081  -7.068  35.866  1.00  0.00     0.104 C 
HETATM    4  C2  UNK     1      30.813  -6.995  34.366  1.00  0.00     0.024 C 
HETATM    5  C3  UNK     1      30.975  -5.841  33.684  1.00  0.00     0.020 C 
HETATM    6  C4  UNK     1      30.677  -5.700  32.214  1.00  0.00     0.058 C 
HETATM    7  C5  UNK     1      29.736  -6.787  31.711  1.00  0.00     0.014 C 
HETATM    8  C6  UNK     1      31.722  -5.791  36.414  1.00  0.00     0.052 C 
HETATM    9  C7  UNK     1      30.223  -8.162  32.133  1.00  0.00     0.084 C 
HETATM   10  C8  UNK     1      30.427  -8.240  33.630  1.00  0.00     0.158 C 
HETATM   11  C9  UNK     1      31.848  -4.681  35.651  1.00  0.00     0.018 C 
HETATM   12  C12 UNK     1      32.417  -3.365  36.109  1.00  0.00     0.069 C 
HETATM   13  H8  UNK     1      31.547  -3.864  33.780  1.00  0.00     0.165 HD
ENDROOT
BRANCH   3  14
HETATM   14  C10 UNK     1      29.807  -7.370  36.609  1.00  0.00     0.029 A 
HETATM   15  C11 UNK     1      29.792  -8.512  37.557  1.00  0.00     0.194 A 
HETATM   16  O4  UNK     1      30.780  -9.209  37.752  1.00  0.00    -0.287 OA
HETATM   17  C15 UNK     1      28.520  -8.763  38.257  1.00  0.00     0.048 A 
HETATM   18  C16 UNK     1      27.427  -7.936  37.997  1.00  0.00     0.089 A 
HETATM   19  C17 UNK     1      28.405  -9.815  39.170  1.00  0.00     0.018 A 
HETATM   20  O2  UNK     1      27.483  -6.889  37.112  1.00  0.00    -0.321 OA
HETATM   21  C18 UNK     1      26.213  -8.156  38.649  1.00  0.00     0.038 A 
HETATM   22  C14 UNK     1      28.676  -6.667  36.466  1.00  0.00     0.154 A 
HETATM   23  C20 UNK     1      26.096  -9.204  39.561  1.00  0.00     0.003 A 
HETATM   24  C19 UNK     1      27.189 -10.032  39.821  1.00  0.00     0.001 A 
ENDBRANCH   3  14
BRANCH   8  25
HETATM   25  C13 UNK     1      32.237  -5.855  37.792  1.00  0.00     0.291 C 
HETATM   26  O5  UNK     1      31.809  -5.164  38.698  1.00  0.00    -0.260 OA
BRANCH  25  27
HETATM   27  O3  UNK     1      33.222  -6.784  37.837  1.00  0.00    -0.323 OA
HETATM   28  C21 UNK     1      34.521  -6.307  37.472  1.00  0.00     0.213 C 
ENDBRANCH  25  27
ENDBRANCH   8  25
TORSDOF 3
ENDMDL
MODEL 2
REMARK VINA RESULT:      -7.8      2.119      5.242
REMARK  3 active torsions:
REMARK  status: ('A' for Active; 'I' for Inactive)
REMARK    1  A    between atoms: C13_19  and  O3_3 
REMARK    2  A    between atoms: C1_7  and  C10_16 
REMARK    3  A    between atoms: C13_19  and  C6_12 
ROOT
HETATM    1  O1  UNK     1      33.147  -7.390  33.717  1.00  0.00    -0.293 OA
HETATM    2  N1  UNK     1      31.451  -4.201  36.781  1.00  0.00    -0.362 N 
HETATM    3  C1  UNK     1      30.895  -6.571  35.322  1.00  0.00     0.104 C 
HETATM    4  C2  UNK     1      32.196  -5.786  35.185  1.00  0.00     0.024 C 
HETATM    5  C3  UNK     1      32.401  -4.650  35.885  1.00  0.00     0.020 C 
HETATM    6  C4  UNK     1      33.644  -3.809  35.751  1.00  0.00     0.058 C 
HETATM    7  C5  UNK     1      34.378  -4.073  34.442  1.00  0.00     0.014 C 
HETATM    8  C6  UNK     1      30.003  -6.044  36.448  1.00  0.00     0.052 C 
HETATM    9  C7  UNK     1      34.591  -5.561  34.231  1.00  0.00     0.084 C 
HETATM   10  C8  UNK     1      33.285  -6.321  34.309  1.00  0.00     0.158 C 
HETATM   11  C9  UNK     1      30.294  -4.895  37.100  1.00  0.00     0.018 C 
HETATM   12  C12 UNK     1      29.458  -4.268  38.184  1.00  0.00     0.069 C 
HETATM   13  H8  UNK     1      31.645  -3.346  37.289  1.00  0.00     0.165 HD
ENDROOT
BRANCH   3  14
HETATM   14  C10 UNK     1      30.144  -6.566  34.018  1.00  0.00     0.029 A 
HETATM   15  C11 UNK     1      29.662  -7.859  33.471  1.00  0.00     0.194 A 
HETATM   16  O4  UNK     1      29.856  -8.922  34.047  1.00  0.00    -0.287 OA
HETATM   17  C15 UNK     1      28.932  -7.797  32.192  1.00  0.00     0.048 A 
HETATM   18  C16 UNK     1      28.739  -6.558  31.581  1.00  0.00     0.089 A 
HETATM   19  C17 UNK     1      28.438  -8.960  31.596  1.00  0.00     0.018 A 
HETATM   20  O2  UNK     1      29.202  -5.384  32.121  1.00  0.00    -0.321 OA
HETATM   21  C18 UNK     1      28.051  -6.475  30.370  1.00  0.00     0.038 A 
HETATM   22  C14 UNK     1      29.880  -5.458  33.313  1.00  0.00     0.154 A 
HETATM   23  C20 UNK     1      27.557  -7.634  29.773  1.00  0.00     0.003 A 
HETATM   24  C19 UNK     1      27.750  -8.874  30.384  1.00  0.00     0.001 A 
ENDBRANCH   3  14
BRANCH   8  25
HETATM   25  C13 UNK     1      28.847  -6.879  36.814  1.00  0.00     0.291 C 
HETATM   26  O5  UNK     1      27.720  -6.678  36.401  1.00  0.00    -0.260 OA
BRANCH  25  27
HETATM   27  O3  UNK     1      29.272  -7.855  37.653  1.00  0.00    -0.323 OA
HETATM   28  C21 UNK     1      28.692  -9.143  37.427  1.00  0.00     0.213 C 
ENDBRANCH  25  27
ENDBRANCH   8  25
TORSDOF 3
ENDMDL
MODEL 3
REMARK VINA RESULT:      -7.7      2.134      5.568
REMARK  3 active torsions:
REMARK  status: ('A' for Active; 'I' for Inactive)
REMARK    1  A    between atoms: C13_19  and  O3_3 
REMARK    2  A    between atoms: C1_7  and  C10_16 
REMARK    3  A    between atoms: C13_19  and  C6_12 
ROOT
HETATM    1  O1  UNK     1      32.517  -8.715  35.005  1.00  0.00    -0.293 OA
HETATM    2  N1  UNK     1      30.506  -6.237  38.505  1.00  0.00    -0.362 N 
HETATM    3  C1  UNK     1      30.061  -8.037  36.356  1.00  0.00     0.104 C 
HETATM    4  C2  UNK     1      31.425  -7.435  36.679  1.00  0.00     0.024 C 
HETATM    5  C3  UNK     1      31.579  -6.564  37.699  1.00  0.00     0.020 C 
HETATM    6  C4  UNK     1      32.891  -5.903  38.031  1.00  0.00     0.058 C 
HETATM    7  C5  UNK     1      33.856  -5.914  36.851  1.00  0.00     0.014 C 
HETATM    8  C6  UNK     1      29.004  -7.704  37.411  1.00  0.00     0.052 C 
HETATM    9  C7  UNK     1      33.977  -7.309  36.265  1.00  0.00     0.084 C 
HETATM   10  C8  UNK     1      32.622  -7.870  35.892  1.00  0.00     0.158 C 
HETATM   11  C9  UNK     1      29.252  -6.819  38.404  1.00  0.00     0.018 C 
HETATM   12  C12 UNK     1      28.267  -6.388  39.458  1.00  0.00     0.069 C 
HETATM   13  H8  UNK     1      30.664  -5.582  39.261  1.00  0.00     0.165 HD
ENDROOT
BRANCH   3  14
HETATM   14  C10 UNK     1      29.600  -7.583  34.998  1.00  0.00     0.029 A 
HETATM   15  C11 UNK     1      29.202  -8.610  34.003  1.00  0.00     0.194 A 
HETATM   16  O4  UNK     1      29.237  -9.808  34.255  1.00  0.00    -0.287 OA
HETATM   17  C15 UNK     1      28.760  -8.111  32.688  1.00  0.00     0.048 A 
HETATM   18  C16 UNK     1      28.739  -6.736  32.457  1.00  0.00     0.089 A 
HETATM   19  C17 UNK     1      28.365  -9.000  31.685  1.00  0.00     0.018 A 
HETATM   20  O2  UNK     1      29.116  -5.818  33.405  1.00  0.00    -0.321 OA
HETATM   21  C18 UNK     1      28.324  -6.241  31.220  1.00  0.00     0.038 A 
HETATM   22  C14 UNK     1      29.527  -6.298  34.625  1.00  0.00     0.154 A 
HETATM   23  C20 UNK     1      27.929  -7.125  30.217  1.00  0.00     0.003 A 
HETATM   24  C19 UNK     1      27.949  -8.501  30.449  1.00  0.00     0.001 A 
ENDBRANCH   3  14
BRANCH   8  25
HETATM   25  C13 UNK     1      27.729  -8.433  37.315  1.00  0.00     0.291 C 
HETATM   26  O5  UNK     1      26.701  -7.930  36.900  1.00  0.00    -0.260 OA
BRANCH  25  27
HETATM   27  O3  UNK     1      27.926  -9.699  37.757  1.00  0.00    -0.323 OA
HETATM   28  C21 UNK     1      27.319 -10.002  39.016  1.00  0.00     0.213 C 
ENDBRANCH  25  27
ENDBRANCH   8  25
TORSDOF 3
ENDMDL
MODEL 4
REMARK VINA RESULT:      -7.6      2.812      5.215
REMARK  3 active torsions:
REMARK  status: ('A' for Active; 'I' for Inactive)
REMARK    1  A    between atoms: C13_19  and  O3_3 
REMARK    2  A    between atoms: C1_7  and  C10_16 
REMARK    3  A    between atoms: C13_19  and  C6_12 
ROOT
HETATM    1  O1  UNK     1      32.591  -8.867  34.420  1.00  0.00    -0.293 OA
HETATM    2  N1  UNK     1      28.901  -9.899  31.635  1.00  0.00    -0.362 N 
HETATM    3  C1  UNK     1      30.222  -7.868  33.114  1.00  0.00     0.104 C 
HETATM    4  C2  UNK     1      30.670  -9.326  33.104  1.00  0.00     0.024 C 
HETATM    5  C3  UNK     1      29.992 -10.259  32.402  1.00  0.00     0.020 C 
HETATM    6  C4  UNK     1      30.360 -11.720  32.397  1.00  0.00     0.058 C 
HETATM    7  C5  UNK     1      31.209 -12.103  33.602  1.00  0.00     0.014 C 
HETATM    8  C6  UNK     1      29.099  -7.588  32.113  1.00  0.00     0.052 C 
HETATM    9  C7  UNK     1      32.381 -11.152  33.762  1.00  0.00     0.084 C 
HETATM   10  C8  UNK     1      31.919  -9.713  33.832  1.00  0.00     0.158 C 
HETATM   11  C9  UNK     1      28.479  -8.591  31.449  1.00  0.00     0.018 C 
HETATM   12  C12 UNK     1      27.335  -8.426  30.485  1.00  0.00     0.069 C 
HETATM   13  H8  UNK     1      28.421 -10.628  31.121  1.00  0.00     0.165 HD
ENDROOT
BRANCH   3  14
HETATM   14  C10 UNK     1      29.796  -7.463  34.499  1.00  0.00     0.029 A 
HETATM   15  C11 UNK     1      30.406  -6.252  35.104  1.00  0.00     0.194 A 
HETATM   16  O4  UNK     1      31.238  -5.577  34.511  1.00  0.00    -0.287 OA
HETATM   17  C15 UNK     1      29.953  -5.901  36.462  1.00  0.00     0.048 A 
HETATM   18  C16 UNK     1      29.002  -6.705  37.089  1.00  0.00     0.089 A 
HETATM   19  C17 UNK     1      30.468  -4.779  37.116  1.00  0.00     0.018 A 
HETATM   20  O2  UNK     1      28.463  -7.819  36.494  1.00  0.00    -0.321 OA
HETATM   21  C18 UNK     1      28.560  -6.392  38.375  1.00  0.00     0.038 A 
HETATM   22  C14 UNK     1      28.895  -8.133  35.228  1.00  0.00     0.154 A 
HETATM   23  C20 UNK     1      29.071  -5.272  39.030  1.00  0.00     0.003 A 
HETATM   24  C19 UNK     1      30.022  -4.468  38.403  1.00  0.00     0.001 A 
ENDBRANCH   3  14
BRANCH   8  25
HETATM   25  C13 UNK     1      28.768  -6.173  31.877  1.00  0.00     0.291 C 
HETATM   26  O5  UNK     1      27.900  -5.579  32.490  1.00  0.00    -0.260 OA
BRANCH  25  27
HETATM   27  O3  UNK     1      29.578  -5.702  30.899  1.00  0.00    -0.323 OA
HETATM   28  C21 UNK     1      29.900  -4.311  30.998  1.00  0.00     0.213 C 
ENDBRANCH  25  27
ENDBRANCH   8  25
TORSDOF 3
ENDMDL
MODEL 5
REMARK VINA RESULT:      -7.5     20.517     24.388
REMARK  3 active torsions:
REMARK  status: ('A' for Active; 'I' for Inactive)
REMARK    1  A    between atoms: C13_19  and  O3_3 
REMARK    2  A    between atoms: C1_7  and  C10_16 
REMARK    3  A    between atoms: C13_19  and  C6_12 
ROOT
HETATM    1  O1  UNK     1      20.467  -1.508  13.738  1.00  0.00    -0.293 OA
HETATM    2  N1  UNK     1      18.508  -5.506  12.120  1.00  0.00    -0.362 N 
HETATM    3  C1  UNK     1      19.208  -4.009  14.428  1.00  0.00     0.104 C 
HETATM    4  C2  UNK     1      19.553  -3.573  13.007  1.00  0.00     0.024 C 
HETATM    5  C3  UNK     1      19.218  -4.334  11.944  1.00  0.00     0.020 C 
HETATM    6  C4  UNK     1      19.577  -3.977  10.525  1.00  0.00     0.058 C 
HETATM    7  C5  UNK     1      20.739  -2.993  10.456  1.00  0.00     0.014 C 
HETATM    8  C6  UNK     1      18.300  -5.241  14.463  1.00  0.00     0.052 C 
HETATM    9  C7  UNK     1      20.497  -1.806  11.370  1.00  0.00     0.084 C 
HETATM   10  C8  UNK     1      20.216  -2.249  12.789  1.00  0.00     0.158 C 
HETATM   11  C9  UNK     1      18.014  -5.940  13.341  1.00  0.00     0.018 C 
HETATM   12  C12 UNK     1      17.176  -7.188  13.277  1.00  0.00     0.069 C 
HETATM   13  H8  UNK     1      18.273  -6.046  11.296  1.00  0.00     0.165 HD
ENDROOT
BRANCH   3  14
HETATM   14  C10 UNK     1      20.465  -4.267  15.213  1.00  0.00     0.029 A 
HETATM   15  C11 UNK     1      20.820  -3.333  16.312  1.00  0.00     0.194 A 
HETATM   16  O4  UNK     1      20.123  -2.367  16.595  1.00  0.00    -0.287 OA
HETATM   17  C15 UNK     1      22.061  -3.631  17.049  1.00  0.00     0.048 A 
HETATM   18  C16 UNK     1      22.816  -4.746  16.683  1.00  0.00     0.089 A 
HETATM   19  C17 UNK     1      22.481  -2.812  18.099  1.00  0.00     0.018 A 
HETATM   20  O2  UNK     1      22.452  -5.585  15.660  1.00  0.00    -0.321 OA
HETATM   21  C18 UNK     1      23.994  -5.048  17.366  1.00  0.00     0.038 A 
HETATM   22  C14 UNK     1      21.292  -5.294  14.982  1.00  0.00     0.154 A 
HETATM   23  C20 UNK     1      24.415  -4.232  18.416  1.00  0.00     0.003 A 
HETATM   24  C19 UNK     1      23.660  -3.117  18.782  1.00  0.00     0.001 A 
ENDBRANCH   3  14
BRANCH   8  25
HETATM   25  C13 UNK     1      17.720  -5.590  15.771  1.00  0.00     0.291 C 
HETATM   26  O5  UNK     1      18.012  -6.601  16.383  1.00  0.00    -0.260 OA
BRANCH  25  27
HETATM   27  O3  UNK     1      16.849  -4.615  16.126  1.00  0.00    -0.323 OA
HETATM   28  C21 UNK     1      15.889  -4.992  17.117  1.00  0.00     0.213 C 
ENDBRANCH  25  27
ENDBRANCH   8  25
TORSDOF 3
ENDMDL
MODEL 6
REMARK VINA RESULT:      -7.5      1.537      4.466
REMARK  3 active torsions:
REMARK  status: ('A' for Active; 'I' for Inactive)
REMARK    1  A    between atoms: C13_19  and  O3_3 
REMARK    2  A    between atoms: C1_7  and  C10_16 
REMARK    3  A    between atoms: C13_19  and  C6_12 
ROOT
HETATM    1  O1  UNK     1      30.356  -4.525  36.972  1.00  0.00    -0.293 OA
HETATM    2  N1  UNK     1      32.250  -6.845  33.302  1.00  0.00    -0.362 N 
HETATM    3  C1  UNK     1      29.959  -6.543  34.950  1.00  0.00     0.104 C 
HETATM    4  C2  UNK     1      31.266  -5.792  35.183  1.00  0.00     0.024 C 
HETATM    5  C3  UNK     1      32.335  -5.989  34.383  1.00  0.00     0.020 C 
HETATM    6  C4  UNK     1      33.664  -5.312  34.596  1.00  0.00     0.058 C 
HETATM    7  C5  UNK     1      33.830  -4.809  36.025  1.00  0.00     0.014 C 
HETATM    8  C6  UNK     1      29.960  -7.338  33.643  1.00  0.00     0.052 C 
HETATM    9  C7  UNK     1      32.625  -3.994  36.455  1.00  0.00     0.084 C 
HETATM   10  C8  UNK     1      31.339  -4.772  36.276  1.00  0.00     0.158 C 
HETATM   11  C9  UNK     1      31.083  -7.477  32.902  1.00  0.00     0.018 C 
HETATM   12  C12 UNK     1      31.199  -8.277  31.632  1.00  0.00     0.069 C 
HETATM   13  H8  UNK     1      33.073  -6.963  32.725  1.00  0.00     0.165 HD
ENDROOT
BRANCH   3  14
HETATM   14  C10 UNK     1      29.668  -7.454  36.112  1.00  0.00     0.029 A 
HETATM   15  C11 UNK     1      28.320  -7.403  36.734  1.00  0.00     0.194 A 
HETATM   16  O4  UNK     1      27.445  -6.648  36.329  1.00  0.00    -0.287 OA
HETATM   17  C15 UNK     1      28.089  -8.315  37.868  1.00  0.00     0.048 A 
HETATM   18  C16 UNK     1      29.122  -9.155  38.285  1.00  0.00     0.089 A 
HETATM   19  C17 UNK     1      26.853  -8.343  38.520  1.00  0.00     0.018 A 
HETATM   20  O2  UNK     1      30.355  -9.170  37.683  1.00  0.00    -0.321 OA
HETATM   21  C18 UNK     1      28.925 -10.027  39.357  1.00  0.00     0.038 A 
HETATM   22  C14 UNK     1      30.556  -8.314  36.627  1.00  0.00     0.154 A 
HETATM   23  C20 UNK     1      27.692 -10.056  40.009  1.00  0.00     0.003 A 
HETATM   24  C19 UNK     1      26.659  -9.217  39.591  1.00  0.00     0.001 A 
ENDBRANCH   3  14
BRANCH   8  25
HETATM   25  C13 UNK     1      28.666  -7.897  33.215  1.00  0.00     0.291 C 
HETATM   26  O5  UNK     1      28.402  -9.084  33.265  1.00  0.00    -0.260 OA
BRANCH  25  27
HETATM   27  O3  UNK     1      27.884  -6.879  32.781  1.00  0.00    -0.323 OA
HETATM   28  C21 UNK     1      27.569  -6.910  31.385  1.00  0.00     0.213 C 
ENDBRANCH  25  27
ENDBRANCH   8  25
TORSDOF 3
ENDMDL
MODEL 7
REMARK VINA RESULT:      -7.5      2.351      5.761
REMARK  3 active torsions:
REMARK  status: ('A' for Active; 'I' for Inactive)
REMARK    1  A    between atoms: C13_19  and  O3_3 
REMARK    2  A    between atoms: C1_7  and  C10_16 
REMARK    3  A    between atoms: C13_19  and  C6_12 
ROOT
HETATM    1  O1  UNK     1      30.322  -3.764  37.380  1.00  0.00    -0.293 OA
HETATM    2  N1  UNK     1      29.793  -8.370  38.352  1.00  0.00    -0.362 N 
HETATM    3  C1  UNK     1      31.214  -6.449  36.821  1.00  0.00     0.104 C 
HETATM    4  C2  UNK     1      30.056  -6.094  37.747  1.00  0.00     0.024 C 
HETATM    5  C3  UNK     1      29.396  -7.049  38.436  1.00  0.00     0.020 C 
HETATM    6  C4  UNK     1      28.215  -6.761  39.326  1.00  0.00     0.058 C 
HETATM    7  C5  UNK     1      27.550  -5.433  38.987  1.00  0.00     0.014 C 
HETATM    8  C6  UNK     1      31.635  -7.916  36.937  1.00  0.00     0.052 C 
HETATM    9  C7  UNK     1      28.577  -4.318  38.912  1.00  0.00     0.084 C 
HETATM   10  C8  UNK     1      29.689  -4.656  37.943  1.00  0.00     0.158 C 
HETATM   11  C9  UNK     1      30.912  -8.803  37.658  1.00  0.00     0.018 C 
HETATM   12  C12 UNK     1      31.214 -10.271  37.795  1.00  0.00     0.069 C 
HETATM   13  H8  UNK     1      29.274  -9.056  38.887  1.00  0.00     0.165 HD
ENDROOT
BRANCH   3  14
HETATM   14  C10 UNK     1      30.859  -6.122  35.395  1.00  0.00     0.029 A 
HETATM   15  C11 UNK     1      29.595  -6.663  34.836  1.00  0.00     0.194 A 
HETATM   16  O4  UNK     1      28.837  -7.361  35.498  1.00  0.00    -0.287 OA
HETATM   17  C15 UNK     1      29.296  -6.313  33.436  1.00  0.00     0.048 A 
HETATM   18  C16 UNK     1      30.195  -5.514  32.730  1.00  0.00     0.089 A 
HETATM   19  C17 UNK     1      28.129  -6.774  32.820  1.00  0.00     0.018 A 
HETATM   20  O2  UNK     1      31.355  -5.034  33.284  1.00  0.00    -0.321 OA
HETATM   21  C18 UNK     1      29.933  -5.171  31.403  1.00  0.00     0.038 A 
HETATM   22  C14 UNK     1      31.620  -5.369  34.590  1.00  0.00     0.154 A 
HETATM   23  C20 UNK     1      28.769  -5.628  30.786  1.00  0.00     0.003 A 
HETATM   24  C19 UNK     1      27.870  -6.428  31.492  1.00  0.00     0.001 A 
ENDBRANCH   3  14
BRANCH   8  25
HETATM   25  C13 UNK     1      32.891  -8.292  36.267  1.00  0.00     0.291 C 
HETATM   26  O5  UNK     1      32.935  -9.014  35.288  1.00  0.00    -0.260 OA
BRANCH  25  27
HETATM   27  O3  UNK     1      33.920  -7.705  36.925  1.00  0.00    -0.323 OA
HETATM   28  C21 UNK     1      34.771  -6.890  36.114  1.00  0.00     0.213 C 
ENDBRANCH  25  27
ENDBRANCH   8  25
TORSDOF 3
ENDMDL
MODEL 8
REMARK VINA RESULT:      -7.3      2.002      5.241
REMARK  3 active torsions:
REMARK  status: ('A' for Active; 'I' for Inactive)
REMARK    1  A    between atoms: C13_19  and  O3_3 
REMARK    2  A    between atoms: C1_7  and  C10_16 
REMARK    3  A    between atoms: C13_19  and  C6_12 
ROOT
HETATM    1  O1  UNK     1      32.205  -9.187  36.218  1.00  0.00    -0.293 OA
HETATM    2  N1  UNK     1      31.488  -4.979  38.272  1.00  0.00    -0.362 N 
HETATM    3  C1  UNK     1      30.260  -7.327  37.254  1.00  0.00     0.104 C 
HETATM    4  C2  UNK     1      31.759  -7.056  37.165  1.00  0.00     0.024 C 
HETATM    5  C3  UNK     1      32.290  -5.912  37.644  1.00  0.00     0.020 C 
HETATM    6  C4  UNK     1      33.754  -5.572  37.538  1.00  0.00     0.058 C 
HETATM    7  C5  UNK     1      34.451  -6.366  36.441  1.00  0.00     0.014 C 
HETATM    8  C6  UNK     1      29.521  -6.285  38.097  1.00  0.00     0.052 C 
HETATM    9  C7  UNK     1      34.150  -7.848  36.570  1.00  0.00     0.084 C 
HETATM   10  C8  UNK     1      32.659  -8.108  36.596  1.00  0.00     0.158 C 
HETATM   11  C9  UNK     1      30.141  -5.167  38.540  1.00  0.00     0.018 C 
HETATM   12  C12 UNK     1      29.492  -4.063  39.331  1.00  0.00     0.069 C 
HETATM   13  H8  UNK     1      31.926  -4.135  38.620  1.00  0.00     0.165 HD
ENDROOT
BRANCH   3  14
HETATM   14  C10 UNK     1      29.661  -7.398  35.875  1.00  0.00     0.029 A 
HETATM   15  C11 UNK     1      29.955  -6.304  34.916  1.00  0.00     0.194 A 
HETATM   16  O4  UNK     1      30.668  -5.353  35.212  1.00  0.00    -0.287 OA
HETATM   17  C15 UNK     1      29.344  -6.423  33.580  1.00  0.00     0.048 A 
HETATM   18  C16 UNK     1      28.542  -7.529  33.297  1.00  0.00     0.089 A 
HETATM   19  C17 UNK     1      29.561  -5.444  32.607  1.00  0.00     0.018 A 
HETATM   20  O2  UNK     1      28.295  -8.520  34.214  1.00  0.00    -0.321 OA
HETATM   21  C18 UNK     1      27.953  -7.662  32.039  1.00  0.00     0.038 A 
HETATM   22  C14 UNK     1      28.871  -8.395  35.455  1.00  0.00     0.154 A 
HETATM   23  C20 UNK     1      28.168  -6.687  31.066  1.00  0.00     0.003 A 
HETATM   24  C19 UNK     1      28.970  -5.581  31.349  1.00  0.00     0.001 A 
ENDBRANCH   3  14
BRANCH   8  25
HETATM   25  C13 UNK     1      28.122  -6.591  38.439  1.00  0.00     0.291 C 
HETATM   26  O5  UNK     1      27.176  -6.245  37.756  1.00  0.00    -0.260 OA
BRANCH  25  27
HETATM   27  O3  UNK     1      28.110  -7.293  39.598  1.00  0.00    -0.323 OA
HETATM   28  C21 UNK     1      27.461  -8.567  39.528  1.00  0.00     0.213 C 
ENDBRANCH  25  27
ENDBRANCH   8  25
TORSDOF 3
ENDMDL
MODEL 9
REMARK VINA RESULT:      -7.3      5.568      8.565
REMARK  3 active torsions:
REMARK  status: ('A' for Active; 'I' for Inactive)
REMARK    1  A    between atoms: C13_19  and  O3_3 
REMARK    2  A    between atoms: C1_7  and  C10_16 
REMARK    3  A    between atoms: C13_19  and  C6_12 
ROOT
HETATM    1  O1  UNK     1      34.245 -12.251  31.082  1.00  0.00    -0.293 OA
HETATM    2  N1  UNK     1      29.695 -11.871  29.822  1.00  0.00    -0.362 N 
HETATM    3  C1  UNK     1      32.221 -10.580  29.887  1.00  0.00     0.104 C 
HETATM    4  C2  UNK     1      31.963 -11.951  30.503  1.00  0.00     0.024 C 
HETATM    5  C3  UNK     1      30.736 -12.511  30.466  1.00  0.00     0.020 C 
HETATM    6  C4  UNK     1      30.413 -13.839  31.101  1.00  0.00     0.058 C 
HETATM    7  C5  UNK     1      31.423 -14.224  32.175  1.00  0.00     0.014 C 
HETATM    8  C6  UNK     1      31.027 -10.057  29.087  1.00  0.00     0.052 C 
HETATM    9  C7  UNK     1      32.842 -14.096  31.653  1.00  0.00     0.084 C 
HETATM   10  C8  UNK     1      33.105 -12.712  31.100  1.00  0.00     0.158 C 
HETATM   11  C9  UNK     1      29.832 -10.692  29.106  1.00  0.00     0.018 C 
HETATM   12  C12 UNK     1      28.587 -10.234  28.395  1.00  0.00     0.069 C 
HETATM   13  H8  UNK     1      28.790 -12.326  29.814  1.00  0.00     0.165 HD
ENDROOT
BRANCH   3  14
HETATM   14  C10 UNK     1      32.602  -9.592  30.957  1.00  0.00     0.029 A 
HETATM   15  C11 UNK     1      33.875  -8.843  30.811  1.00  0.00     0.194 A 
HETATM   16  O4  UNK     1      34.618  -9.003  29.851  1.00  0.00    -0.287 OA
HETATM   17  C15 UNK     1      34.200  -7.888  31.886  1.00  0.00     0.048 A 
HETATM   18  C16 UNK     1      33.316  -7.745  32.956  1.00  0.00     0.089 A 
HETATM   19  C17 UNK     1      35.376  -7.135  31.840  1.00  0.00     0.018 A 
HETATM   20  O2  UNK     1      32.147  -8.458  33.053  1.00  0.00    -0.321 OA
HETATM   21  C18 UNK     1      33.603  -6.848  33.985  1.00  0.00     0.038 A 
HETATM   22  C14 UNK     1      31.858  -9.344  32.043  1.00  0.00     0.154 A 
HETATM   23  C20 UNK     1      34.776  -6.095  33.941  1.00  0.00     0.003 A 
HETATM   24  C19 UNK     1      35.660  -6.238  32.871  1.00  0.00     0.001 A 
ENDBRANCH   3  14
BRANCH   8  25
HETATM   25  C13 UNK     1      31.263  -8.862  28.261  1.00  0.00     0.291 C 
HETATM   26  O5  UNK     1      31.977  -8.861  27.275  1.00  0.00    -0.260 OA
BRANCH  25  27
HETATM   27  O3  UNK     1      30.566  -7.829  28.793  1.00  0.00    -0.323 OA
HETATM   28  C21 UNK     1      31.348  -6.678  29.126  1.00  0.00     0.213 C 
ENDBRANCH  25  27
ENDBRANCH   8  25
TORSDOF 3
ENDMDL
MODEL 10
REMARK VINA RESULT:      -7.3      2.111      4.615
REMARK  3 active torsions:
REMARK  status: ('A' for Active; 'I' for Inactive)
REMARK    1  A    between atoms: C13_19  and  O3_3 
REMARK    2  A    between atoms: C1_7  and  C10_16 
REMARK    3  A    between atoms: C13_19  and  C6_12 
ROOT
HETATM    1  O1  UNK     1      32.993  -4.984  36.882  1.00  0.00    -0.293 OA
HETATM    2  N1  UNK     1      33.523  -7.180  32.718  1.00  0.00    -0.362 N 
HETATM    3  C1  UNK     1      31.666  -6.180  34.617  1.00  0.00     0.104 C 
HETATM    4  C2  UNK     1      33.176  -6.167  34.831  1.00  0.00     0.024 C 
HETATM    5  C3  UNK     1      34.016  -6.677  33.906  1.00  0.00     0.020 C 
HETATM    6  C4  UNK     1      35.511  -6.734  34.087  1.00  0.00     0.058 C 
HETATM    7  C5  UNK     1      35.916  -6.639  35.553  1.00  0.00     0.014 C 
HETATM    8  C6  UNK     1      31.274  -6.628  33.208  1.00  0.00     0.052 C 
HETATM    9  C7  UNK     1      35.238  -5.460  36.226  1.00  0.00     0.084 C 
HETATM   10  C8  UNK     1      33.736  -5.518  36.059  1.00  0.00     0.158 C 
HETATM   11  C9  UNK     1      32.189  -7.123  32.343  1.00  0.00     0.018 C 
HETATM   12  C12 UNK     1      31.898  -7.634  30.958  1.00  0.00     0.069 C 
HETATM   13  H8  UNK     1      34.187  -7.551  32.048  1.00  0.00     0.165 HD
ENDROOT
BRANCH   3  14
HETATM   14  C10 UNK     1      31.003  -7.058  35.645  1.00  0.00     0.029 A 
HETATM   15  C11 UNK     1      30.028  -6.442  36.581  1.00  0.00     0.194 A 
HETATM   16  O4  UNK     1      29.750  -5.250  36.540  1.00  0.00    -0.287 OA
HETATM   17  C15 UNK     1      29.408  -7.345  37.566  1.00  0.00     0.048 A 
HETATM   18  C16 UNK     1      29.761  -8.695  37.566  1.00  0.00     0.089 A 
HETATM   19  C17 UNK     1      28.479  -6.862  38.491  1.00  0.00     0.018 A 
HETATM   20  O2  UNK     1      30.668  -9.224  36.682  1.00  0.00    -0.321 OA
HETATM   21  C18 UNK     1      29.187  -9.568  38.490  1.00  0.00     0.038 A 
HETATM   22  C14 UNK     1      31.238  -8.370  35.770  1.00  0.00     0.154 A 
HETATM   23  C20 UNK     1      28.259  -9.088  39.413  1.00  0.00     0.003 A 
HETATM   24  C19 UNK     1      27.905  -7.739  39.414  1.00  0.00     0.001 A 
ENDBRANCH   3  14
BRANCH   8  25
HETATM   25  C13 UNK     1      29.862  -6.444  32.830  1.00  0.00     0.291 C 
HETATM   26  O5  UNK     1      29.031  -7.330  32.900  1.00  0.00    -0.260 OA
BRANCH  25  27
HETATM   27  O3  UNK     1      29.694  -5.165  32.416  1.00  0.00    -0.323 OA
HETATM   28  C21 UNK     1      29.407  -5.013  31.022  1.00  0.00     0.213 C 
ENDBRANCH  25  27
ENDBRANCH   8  25
TORSDOF 3
ENDMDL
