MODEL 1
REMARK VINA RESULT:      -8.2      0.000      0.000
REMARK  5 active torsions:
REMARK  status: ('A' for Active; 'I' for Inactive)
REMARK    1  A    between atoms: C16_22  and  O3_3 
REMARK    2  A    between atoms: C1_7  and  N1_5 
REMARK    3  A    between atoms: C5_11  and  N1_5 
REMARK    4  A    between atoms: C4_10  and  N2_6 
REMARK    5  A    between atoms: C16_22  and  C7_13 
ROOT
HETATM    1  O1  UNK     1      19.258  -1.381  34.880  1.00  0.00    -0.273 OA
HETATM    2  O2  UNK     1      20.034  -2.066  32.857  1.00  0.00    -0.257 OA
HETATM    3  C1  UNK     1      18.098   0.865  33.603  1.00  0.00     0.078 A 
HETATM    4  C2  UNK     1      17.964   0.676  35.063  1.00  0.00     0.027 A 
HETATM    5  C3  UNK     1      18.550  -0.444  35.649  1.00  0.00     0.092 A 
HETATM    6  C4  UNK     1      18.783  -0.045  32.878  1.00  0.00     0.130 A 
HETATM    7  C6  UNK     1      17.282   1.555  35.920  1.00  0.00     0.017 A 
HETATM    8  C8  UNK     1      18.476  -0.706  37.021  1.00  0.00     0.038 A 
HETATM    9  C9  UNK     1      19.408  -1.236  33.513  1.00  0.00     0.317 A 
HETATM   10  C11 UNK     1      17.197   1.309  37.297  1.00  0.00     0.001 A 
HETATM   11  C12 UNK     1      17.794   0.178  37.847  1.00  0.00     0.003 A 
ENDROOT
BRANCH   3  12
HETATM   12  N1  UNK     1      17.512   1.970  33.037  1.00  0.00    -0.353 N 
HETATM   13  H1  UNK     1      16.696   1.762  32.470  1.00  0.00     0.166 HD
BRANCH  12  14
HETATM   14  C5  UNK     1      18.112   3.203  32.795  1.00  0.00     0.049 A 
HETATM   15  C10 UNK     1      18.322   4.098  33.857  1.00  0.00     0.030 A 
HETATM   16  C14 UNK     1      18.921   5.338  33.635  1.00  0.00     0.002 A 
HETATM   17  C15 UNK     1      19.322   5.699  32.349  1.00  0.00     0.001 A 
HETATM   18  C13 UNK     1      19.121   4.822  31.284  1.00  0.00     0.020 A 
HETATM   19  C7  UNK     1      18.521   3.581  31.505  1.00  0.00     0.064 A 
BRANCH  19  20
HETATM   20  C16 UNK     1      18.324   2.687  30.371  1.00  0.00     0.178 C 
HETATM   21  O4  UNK     1      17.240   2.221  30.011  1.00  0.00    -0.646 OA
BRANCH  20  22
HETATM   22  O3  UNK     1      19.488   2.407  29.726  1.00  0.00    -0.773 OA
HETATM   23  H12 UNK     1      19.899   3.214  29.347  1.00  0.00     0.167 HD
ENDBRANCH  20  22
ENDBRANCH  19  20
ENDBRANCH  12  14
ENDBRANCH   3  12
BRANCH   6  24
HETATM   24  N2  UNK     1      18.971   0.026  31.522  1.00  0.00    -0.392 N 
HETATM   25  H10 UNK     1      19.311   0.882  31.102  1.00  0.00     0.156 HD
HETATM   26  H9  UNK     1      18.768  -0.780  30.943  1.00  0.00     0.156 HD
ENDBRANCH   6  24
TORSDOF 5
ENDMDL
MODEL 2
REMARK VINA RESULT:      -8.1     24.530     26.170
REMARK  5 active torsions:
REMARK  status: ('A' for Active; 'I' for Inactive)
REMARK    1  A    between atoms: C16_22  and  O3_3 
REMARK    2  A    between atoms: C1_7  and  N1_5 
REMARK    3  A    between atoms: C5_11  and  N1_5 
REMARK    4  A    between atoms: C4_10  and  N2_6 
REMARK    5  A    between atoms: C16_22  and  C7_13 
ROOT
HETATM    1  O1  UNK     1      15.881   6.358   9.836  1.00  0.00    -0.273 OA
HETATM    2  O2  UNK     1      15.451   4.131   9.692  1.00  0.00    -0.257 OA
HETATM    3  C1  UNK     1      13.124   6.852   9.418  1.00  0.00     0.078 A 
HETATM    4  C2  UNK     1      14.071   7.972   9.601  1.00  0.00     0.027 A 
HETATM    5  C3  UNK     1      15.419   7.683   9.805  1.00  0.00     0.092 A 
HETATM    6  C4  UNK     1      13.586   5.583   9.450  1.00  0.00     0.130 A 
HETATM    7  C6  UNK     1      13.711   9.329   9.584  1.00  0.00     0.017 A 
HETATM    8  C8  UNK     1      16.386   8.675   9.987  1.00  0.00     0.038 A 
HETATM    9  C9  UNK     1      15.027   5.283   9.664  1.00  0.00     0.317 A 
HETATM   10  C11 UNK     1      14.666  10.338   9.764  1.00  0.00     0.001 A 
HETATM   11  C12 UNK     1      16.004  10.011   9.967  1.00  0.00     0.003 A 
ENDROOT
BRANCH   3  12
HETATM   12  N1  UNK     1      11.798   7.150   9.224  1.00  0.00    -0.353 N 
HETATM   13  H1  UNK     1      11.276   7.300  10.081  1.00  0.00     0.166 HD
BRANCH  12  14
HETATM   14  C5  UNK     1      11.032   6.856   8.099  1.00  0.00     0.049 A 
HETATM   15  C10 UNK     1      11.517   7.176   6.820  1.00  0.00     0.030 A 
HETATM   16  C14 UNK     1      10.764   6.889   5.681  1.00  0.00     0.002 A 
HETATM   17  C15 UNK     1       9.517   6.277   5.804  1.00  0.00     0.001 A 
HETATM   18  C13 UNK     1       9.021   5.953   7.067  1.00  0.00     0.020 A 
HETATM   19  C7  UNK     1       9.773   6.239   8.206  1.00  0.00     0.064 A 
BRANCH  19  20
HETATM   20  C16 UNK     1       9.227   5.888   9.512  1.00  0.00     0.178 C 
HETATM   21  O4  UNK     1       8.294   6.469  10.072  1.00  0.00    -0.646 OA
BRANCH  20  22
HETATM   22  O3  UNK     1       9.865   4.825  10.070  1.00  0.00    -0.773 OA
HETATM   23  H12 UNK     1      10.523   5.107  10.742  1.00  0.00     0.167 HD
ENDBRANCH  20  22
ENDBRANCH  19  20
ENDBRANCH  12  14
ENDBRANCH   3  12
BRANCH   6  24
HETATM   24  N2  UNK     1      12.803   4.469   9.293  1.00  0.00    -0.392 N 
HETATM   25  H10 UNK     1      11.922   4.394   9.787  1.00  0.00     0.156 HD
HETATM   26  H9  UNK     1      13.108   3.721   8.682  1.00  0.00     0.156 HD
ENDBRANCH   6  24
TORSDOF 5
ENDMDL
MODEL 3
REMARK VINA RESULT:      -8.1      2.492      5.912
REMARK  5 active torsions:
REMARK  status: ('A' for Active; 'I' for Inactive)
REMARK    1  A    between atoms: C16_22  and  O3_3 
REMARK    2  A    between atoms: C1_7  and  N1_5 
REMARK    3  A    between atoms: C5_11  and  N1_5 
REMARK    4  A    between atoms: C4_10  and  N2_6 
REMARK    5  A    between atoms: C16_22  and  C7_13 
ROOT
HETATM    1  O1  UNK     1      19.083   1.261  29.306  1.00  0.00    -0.273 OA
HETATM    2  O2  UNK     1      18.155   3.309  29.628  1.00  0.00    -0.257 OA
HETATM    3  C1  UNK     1      19.010   0.858  32.108  1.00  0.00     0.078 A 
HETATM    4  C2  UNK     1      19.553  -0.185  31.211  1.00  0.00     0.027 A 
HETATM    5  C3  UNK     1      19.569   0.056  29.838  1.00  0.00     0.092 A 
HETATM    6  C4  UNK     1      18.548   2.012  31.579  1.00  0.00     0.130 A 
HETATM    7  C6  UNK     1      20.064  -1.419  31.643  1.00  0.00     0.017 A 
HETATM    8  C8  UNK     1      20.062  -0.870  28.914  1.00  0.00     0.038 A 
HETATM    9  C9  UNK     1      18.572   2.261  30.113  1.00  0.00     0.317 A 
HETATM   10  C11 UNK     1      20.563  -2.359  30.732  1.00  0.00     0.001 A 
HETATM   11  C12 UNK     1      20.561  -2.084  29.367  1.00  0.00     0.003 A 
ENDROOT
BRANCH   3  12
HETATM   12  N1  UNK     1      18.995   0.606  33.457  1.00  0.00    -0.353 N 
HETATM   13  H1  UNK     1      19.884   0.291  33.831  1.00  0.00     0.166 HD
BRANCH  12  14
HETATM   14  C5  UNK     1      17.879   0.321  34.241  1.00  0.00     0.049 A 
HETATM   15  C10 UNK     1      17.035  -0.746  33.892  1.00  0.00     0.030 A 
HETATM   16  C14 UNK     1      15.913  -1.048  34.663  1.00  0.00     0.002 A 
HETATM   17  C15 UNK     1      15.620  -0.288  35.796  1.00  0.00     0.001 A 
HETATM   18  C13 UNK     1      16.448   0.775  36.156  1.00  0.00     0.020 A 
HETATM   19  C7  UNK     1      17.571   1.077  35.385  1.00  0.00     0.064 A 
BRANCH  19  20
HETATM   20  C16 UNK     1      18.416   2.194  35.787  1.00  0.00     0.178 C 
HETATM   21  O4  UNK     1      18.852   3.066  35.031  1.00  0.00    -0.646 OA
BRANCH  20  22
HETATM   22  O3  UNK     1      18.687   2.184  37.120  1.00  0.00    -0.773 OA
HETATM   23  H12 UNK     1      19.548   1.753  37.314  1.00  0.00     0.167 HD
ENDBRANCH  20  22
ENDBRANCH  19  20
ENDBRANCH  12  14
ENDBRANCH   3  12
BRANCH   6  24
HETATM   24  N2  UNK     1      18.024   3.045  32.311  1.00  0.00    -0.392 N 
HETATM   25  H10 UNK     1      18.296   3.171  33.278  1.00  0.00     0.156 HD
HETATM   26  H9  UNK     1      17.363   3.681  31.881  1.00  0.00     0.156 HD
ENDBRANCH   6  24
TORSDOF 5
ENDMDL
MODEL 4
REMARK VINA RESULT:      -7.9      2.743      4.974
REMARK  5 active torsions:
REMARK  status: ('A' for Active; 'I' for Inactive)
REMARK    1  A    between atoms: C16_22  and  O3_3 
REMARK    2  A    between atoms: C1_7  and  N1_5 
REMARK    3  A    between atoms: C5_11  and  N1_5 
REMARK    4  A    between atoms: C4_10  and  N2_6 
REMARK    5  A    between atoms: C16_22  and  C7_13 
ROOT
HETATM    1  O1  UNK     1      18.874   0.644  32.703  1.00  0.00    -0.273 OA
HETATM    2  O2  UNK     1      18.758   0.556  34.971  1.00  0.00    -0.257 OA
HETATM    3  C1  UNK     1      18.075   3.358  32.831  1.00  0.00     0.078 A 
HETATM    4  C2  UNK     1      18.340   2.711  31.528  1.00  0.00     0.027 A 
HETATM    5  C3  UNK     1      18.731   1.374  31.513  1.00  0.00     0.092 A 
HETATM    6  C4  UNK     1      18.216   2.641  33.967  1.00  0.00     0.130 A 
HETATM    7  C6  UNK     1      18.223   3.351  30.284  1.00  0.00     0.017 A 
HETATM    8  C8  UNK     1      19.003   0.679  30.330  1.00  0.00     0.038 A 
HETATM    9  C9  UNK     1      18.631   1.213  33.940  1.00  0.00     0.317 A 
HETATM   10  C11 UNK     1      18.491   2.671  29.088  1.00  0.00     0.001 A 
HETATM   11  C12 UNK     1      18.881   1.335  29.112  1.00  0.00     0.003 A 
ENDROOT
BRANCH   3  12
HETATM   12  N1  UNK     1      17.696   4.677  32.833  1.00  0.00    -0.353 N 
HETATM   13  H1  UNK     1      16.890   4.879  32.249  1.00  0.00     0.166 HD
BRANCH  12  14
HETATM   14  C5  UNK     1      18.490   5.774  33.158  1.00  0.00     0.049 A 
HETATM   15  C10 UNK     1      19.851   5.778  32.811  1.00  0.00     0.030 A 
HETATM   16  C14 UNK     1      20.663   6.866  33.129  1.00  0.00     0.002 A 
HETATM   17  C15 UNK     1      20.127   7.967  33.795  1.00  0.00     0.001 A 
HETATM   18  C13 UNK     1      18.776   7.979  34.146  1.00  0.00     0.020 A 
HETATM   19  C7  UNK     1      17.963   6.891  33.829  1.00  0.00     0.064 A 
BRANCH  19  20
HETATM   20  C16 UNK     1      16.557   6.934  34.211  1.00  0.00     0.178 C 
HETATM   21  O4  UNK     1      15.606   6.950  33.425  1.00  0.00    -0.646 OA
BRANCH  20  22
HETATM   22  O3  UNK     1      16.388   6.955  35.560  1.00  0.00    -0.773 OA
HETATM   23  H12 UNK     1      16.054   6.097  35.899  1.00  0.00     0.167 HD
ENDBRANCH  20  22
ENDBRANCH  19  20
ENDBRANCH  12  14
ENDBRANCH   3  12
BRANCH   6  24
HETATM   24  N2  UNK     1      17.999   3.134  35.227  1.00  0.00    -0.392 N 
HETATM   25  H10 UNK     1      17.510   4.012  35.350  1.00  0.00     0.156 HD
HETATM   26  H9  UNK     1      18.330   2.618  36.033  1.00  0.00     0.156 HD
ENDBRANCH   6  24
TORSDOF 5
ENDMDL
MODEL 5
REMARK VINA RESULT:      -7.8      2.818      5.366
REMARK  5 active torsions:
REMARK  status: ('A' for Active; 'I' for Inactive)
REMARK    1  A    between atoms: C16_22  and  O3_3 
REMARK    2  A    between atoms: C1_7  and  N1_5 
REMARK    3  A    between atoms: C5_11  and  N1_5 
REMARK    4  A    between atoms: C4_10  and  N2_6 
REMARK    5  A    between atoms: C16_22  and  C7_13 
ROOT
HETATM    1  O1  UNK     1      20.619  -2.423  31.859  1.00  0.00    -0.273 OA
HETATM    2  O2  UNK     1      20.694  -3.347  33.933  1.00  0.00    -0.257 OA
HETATM    3  C1  UNK     1      19.115  -0.280  32.937  1.00  0.00     0.078 A 
HETATM    4  C2  UNK     1      19.454  -0.313  31.499  1.00  0.00     0.027 A 
HETATM    5  C3  UNK     1      20.196  -1.387  31.011  1.00  0.00     0.092 A 
HETATM    6  C4  UNK     1      19.528  -1.286  33.739  1.00  0.00     0.130 A 
HETATM    7  C6  UNK     1      19.077   0.670  30.570  1.00  0.00     0.017 A 
HETATM    8  C8  UNK     1      20.564  -1.504  29.667  1.00  0.00     0.038 A 
HETATM    9  C9  UNK     1      20.318  -2.430  33.209  1.00  0.00     0.317 A 
HETATM   10  C11 UNK     1      19.436   0.569  29.218  1.00  0.00     0.001 A 
HETATM   11  C12 UNK     1      20.180  -0.518  28.768  1.00  0.00     0.003 A 
ENDROOT
BRANCH   3  12
HETATM   12  N1  UNK     1      18.388   0.786  33.406  1.00  0.00    -0.353 N 
HETATM   13  H1  UNK     1      18.729   1.690  33.096  1.00  0.00     0.166 HD
BRANCH  12  14
HETATM   14  C5  UNK     1      17.570   0.808  34.533  1.00  0.00     0.049 A 
HETATM   15  C10 UNK     1      16.388   0.051  34.553  1.00  0.00     0.030 A 
HETATM   16  C14 UNK     1      15.555   0.060  35.672  1.00  0.00     0.002 A 
HETATM   17  C15 UNK     1      15.894   0.825  36.788  1.00  0.00     0.001 A 
HETATM   18  C13 UNK     1      17.065   1.583  36.784  1.00  0.00     0.020 A 
HETATM   19  C7  UNK     1      17.898   1.574  35.665  1.00  0.00     0.064 A 
BRANCH  19  20
HETATM   20  C16 UNK     1      19.114   2.377  35.692  1.00  0.00     0.178 C 
HETATM   21  O4  UNK     1      20.163   2.062  36.259  1.00  0.00    -0.646 OA
BRANCH  20  22
HETATM   22  O3  UNK     1      18.977   3.546  35.011  1.00  0.00    -0.773 OA
HETATM   23  H12 UNK     1      18.446   4.201  35.514  1.00  0.00     0.167 HD
ENDBRANCH  20  22
ENDBRANCH  19  20
ENDBRANCH  12  14
ENDBRANCH   3  12
BRANCH   6  24
HETATM   24  N2  UNK     1      19.274  -1.360  35.084  1.00  0.00    -0.392 N 
HETATM   25  H10 UNK     1      18.319  -1.356  35.420  1.00  0.00     0.156 HD
HETATM   26  H9  UNK     1      20.044  -1.418  35.738  1.00  0.00     0.156 HD
ENDBRANCH   6  24
TORSDOF 5
ENDMDL
MODEL 6
REMARK VINA RESULT:      -7.7     13.173     14.251
REMARK  5 active torsions:
REMARK  status: ('A' for Active; 'I' for Inactive)
REMARK    1  A    between atoms: C16_22  and  O3_3 
REMARK    2  A    between atoms: C1_7  and  N1_5 
REMARK    3  A    between atoms: C5_11  and  N1_5 
REMARK    4  A    between atoms: C4_10  and  N2_6 
REMARK    5  A    between atoms: C16_22  and  C7_13 
ROOT
HETATM    1  O1  UNK     1      28.410  -5.863  39.647  1.00  0.00    -0.273 OA
HETATM    2  O2  UNK     1      29.238  -3.749  39.548  1.00  0.00    -0.257 OA
HETATM    3  C1  UNK     1      29.596  -6.377  37.127  1.00  0.00     0.078 A 
HETATM    4  C2  UNK     1      28.826  -7.428  37.825  1.00  0.00     0.027 A 
HETATM    5  C3  UNK     1      28.260  -7.131  39.064  1.00  0.00     0.092 A 
HETATM    6  C4  UNK     1      29.730  -5.162  37.702  1.00  0.00     0.130 A 
HETATM    7  C6  UNK     1      28.615  -8.724  37.327  1.00  0.00     0.017 A 
HETATM    8  C8  UNK     1      27.516  -8.060  39.797  1.00  0.00     0.038 A 
HETATM    9  C9  UNK     1      29.120  -4.853  39.022  1.00  0.00     0.317 A 
HETATM   10  C11 UNK     1      27.871  -9.668  38.048  1.00  0.00     0.001 A 
HETATM   11  C12 UNK     1      27.322  -9.336  39.283  1.00  0.00     0.003 A 
ENDROOT
BRANCH   3  12
HETATM   12  N1  UNK     1      30.153  -6.684  35.910  1.00  0.00    -0.353 N 
HETATM   13  H1  UNK     1      31.145  -6.896  35.949  1.00  0.00     0.166 HD
BRANCH  12  14
HETATM   14  C5  UNK     1      29.664  -6.331  34.655  1.00  0.00     0.049 A 
HETATM   15  C10 UNK     1      28.326  -6.601  34.326  1.00  0.00     0.030 A 
HETATM   16  C14 UNK     1      27.817  -6.256  33.074  1.00  0.00     0.002 A 
HETATM   17  C15 UNK     1      28.638  -5.634  32.134  1.00  0.00     0.001 A 
HETATM   18  C13 UNK     1      29.970  -5.359  32.445  1.00  0.00     0.020 A 
HETATM   19  C7  UNK     1      30.479  -5.704  33.697  1.00  0.00     0.064 A 
BRANCH  19  20
HETATM   20  C16 UNK     1      31.875  -5.404  33.991  1.00  0.00     0.178 C 
HETATM   21  O4  UNK     1      32.839  -6.098  33.656  1.00  0.00    -0.646 OA
BRANCH  20  22
HETATM   22  O3  UNK     1      32.019  -4.248  34.693  1.00  0.00    -0.773 OA
HETATM   23  H12 UNK     1      32.927  -4.149  35.051  1.00  0.00     0.167 HD
ENDBRANCH  20  22
ENDBRANCH  19  20
ENDBRANCH  12  14
ENDBRANCH   3  12
BRANCH   6  24
HETATM   24  N2  UNK     1      30.421  -4.115  37.149  1.00  0.00    -0.392 N 
HETATM   25  H10 UNK     1      30.065  -3.171  37.235  1.00  0.00     0.156 HD
HETATM   26  H9  UNK     1      31.287  -4.289  36.653  1.00  0.00     0.156 HD
ENDBRANCH   6  24
TORSDOF 5
ENDMDL
MODEL 7
REMARK VINA RESULT:      -7.7     23.690     26.254
REMARK  5 active torsions:
REMARK  status: ('A' for Active; 'I' for Inactive)
REMARK    1  A    between atoms: C16_22  and  O3_3 
REMARK    2  A    between atoms: C1_7  and  N1_5 
REMARK    3  A    between atoms: C5_11  and  N1_5 
REMARK    4  A    between atoms: C4_10  and  N2_6 
REMARK    5  A    between atoms: C16_22  and  C7_13 
ROOT
HETATM    1  O1  UNK     1      15.220   6.380  10.641  1.00  0.00    -0.273 OA
HETATM    2  O2  UNK     1      15.152   4.301   9.725  1.00  0.00    -0.257 OA
HETATM    3  C1  UNK     1      13.201   7.178   8.822  1.00  0.00     0.078 A 
HETATM    4  C2  UNK     1      13.760   8.138   9.797  1.00  0.00     0.027 A 
HETATM    5  C3  UNK     1      14.751   7.702  10.674  1.00  0.00     0.092 A 
HETATM    6  C4  UNK     1      13.665   5.909   8.803  1.00  0.00     0.130 A 
HETATM    7  C6  UNK     1      13.362   9.480   9.909  1.00  0.00     0.017 A 
HETATM    8  C8  UNK     1      15.337   8.538  11.629  1.00  0.00     0.038 A 
HETATM    9  C9  UNK     1      14.726   5.453   9.741  1.00  0.00     0.317 A 
HETATM   10  C11 UNK     1      13.939  10.334  10.859  1.00  0.00     0.001 A 
HETATM   11  C12 UNK     1      14.926   9.862  11.720  1.00  0.00     0.003 A 
ENDROOT
BRANCH   3  12
HETATM   12  N1  UNK     1      12.221   7.618   7.968  1.00  0.00    -0.353 N 
HETATM   13  H1  UNK     1      12.494   8.412   7.396  1.00  0.00     0.166 HD
BRANCH  12  14
HETATM   14  C5  UNK     1      10.850   7.414   8.094  1.00  0.00     0.049 A 
HETATM   15  C10 UNK     1      10.185   7.835   9.258  1.00  0.00     0.030 A 
HETATM   16  C14 UNK     1       8.812   7.639   9.404  1.00  0.00     0.002 A 
HETATM   17  C15 UNK     1       8.083   7.021   8.389  1.00  0.00     0.001 A 
HETATM   18  C13 UNK     1       8.728   6.596   7.227  1.00  0.00     0.020 A 
HETATM   19  C7  UNK     1      10.102   6.792   7.080  1.00  0.00     0.064 A 
BRANCH  19  20
HETATM   20  C16 UNK     1      10.746   6.337   5.854  1.00  0.00     0.178 C 
HETATM   21  O4  UNK     1      11.956   6.143   5.716  1.00  0.00    -0.646 OA
BRANCH  20  22
HETATM   22  O3  UNK     1       9.856   6.140   4.845  1.00  0.00    -0.773 OA
HETATM   23  H12 UNK     1      10.141   5.419   4.243  1.00  0.00     0.167 HD
ENDBRANCH  20  22
ENDBRANCH  19  20
ENDBRANCH  12  14
ENDBRANCH   3  12
BRANCH   6  24
HETATM   24  N2  UNK     1      13.223   4.935   7.946  1.00  0.00    -0.392 N 
HETATM   25  H10 UNK     1      13.169   5.120   6.952  1.00  0.00     0.156 HD
HETATM   26  H9  UNK     1      12.949   4.030   8.311  1.00  0.00     0.156 HD
ENDBRANCH   6  24
TORSDOF 5
ENDMDL
MODEL 8
REMARK VINA RESULT:      -7.7     24.655     26.378
REMARK  5 active torsions:
REMARK  status: ('A' for Active; 'I' for Inactive)
REMARK    1  A    between atoms: C16_22  and  O3_3 
REMARK    2  A    between atoms: C1_7  and  N1_5 
REMARK    3  A    between atoms: C5_11  and  N1_5 
REMARK    4  A    between atoms: C4_10  and  N2_6 
REMARK    5  A    between atoms: C16_22  and  C7_13 
ROOT
HETATM    1  O1  UNK     1      14.851   9.550  10.106  1.00  0.00    -0.273 OA
HETATM    2  O2  UNK     1      13.302  11.212  10.163  1.00  0.00    -0.257 OA
HETATM    3  C1  UNK     1      12.759   7.705   9.613  1.00  0.00     0.078 A 
HETATM    4  C2  UNK     1      14.161   7.246   9.711  1.00  0.00     0.027 A 
HETATM    5  C3  UNK     1      15.158   8.189   9.955  1.00  0.00     0.092 A 
HETATM    6  C4  UNK     1      12.481   9.019   9.762  1.00  0.00     0.130 A 
HETATM    7  C6  UNK     1      14.572   5.910   9.578  1.00  0.00     0.017 A 
HETATM    8  C8  UNK     1      16.510   7.848  10.064  1.00  0.00     0.038 A 
HETATM    9  C9  UNK     1      13.551  10.017  10.025  1.00  0.00     0.317 A 
HETATM   10  C11 UNK     1      15.922   5.550   9.685  1.00  0.00     0.001 A 
HETATM   11  C12 UNK     1      16.891   6.520   9.927  1.00  0.00     0.003 A 
ENDROOT
BRANCH   3  12
HETATM   12  N1  UNK     1      11.787   6.768   9.367  1.00  0.00    -0.353 N 
HETATM   13  H1  UNK     1      11.820   5.963   9.985  1.00  0.00     0.166 HD
BRANCH  12  14
HETATM   14  C5  UNK     1      11.088   6.582   8.177  1.00  0.00     0.049 A 
HETATM   15  C10 UNK     1      11.789   6.466   6.966  1.00  0.00     0.030 A 
HETATM   16  C14 UNK     1      11.107   6.280   5.763  1.00  0.00     0.002 A 
HETATM   17  C15 UNK     1       9.715   6.205   5.755  1.00  0.00     0.001 A 
HETATM   18  C13 UNK     1       9.003   6.318   6.949  1.00  0.00     0.020 A 
HETATM   19  C7  UNK     1       9.685   6.504   8.152  1.00  0.00     0.064 A 
BRANCH  19  20
HETATM   20  C16 UNK     1       8.912   6.620   9.383  1.00  0.00     0.178 C 
HETATM   21  O4  UNK     1       8.400   5.678   9.993  1.00  0.00    -0.646 OA
BRANCH  20  22
HETATM   22  O3  UNK     1       8.806   7.907   9.808  1.00  0.00    -0.773 OA
HETATM   23  H12 UNK     1       9.628   8.417   9.637  1.00  0.00     0.167 HD
ENDBRANCH  20  22
ENDBRANCH  19  20
ENDBRANCH  12  14
ENDBRANCH   3  12
BRANCH   6  24
HETATM   24  N2  UNK     1      11.222   9.557   9.690  1.00  0.00    -0.392 N 
HETATM   25  H10 UNK     1      10.942  10.279  10.342  1.00  0.00     0.156 HD
HETATM   26  H9  UNK     1      10.575   9.230   8.983  1.00  0.00     0.156 HD
ENDBRANCH   6  24
TORSDOF 5
ENDMDL
MODEL 9
REMARK VINA RESULT:      -7.7      4.385      7.729
REMARK  5 active torsions:
REMARK  status: ('A' for Active; 'I' for Inactive)
REMARK    1  A    between atoms: C16_22  and  O3_3 
REMARK    2  A    between atoms: C1_7  and  N1_5 
REMARK    3  A    between atoms: C5_11  and  N1_5 
REMARK    4  A    between atoms: C4_10  and  N2_6 
REMARK    5  A    between atoms: C16_22  and  C7_13 
ROOT
HETATM    1  O1  UNK     1      16.517  10.318  33.529  1.00  0.00    -0.273 OA
HETATM    2  O2  UNK     1      14.377   9.919  32.877  1.00  0.00    -0.257 OA
HETATM    3  C1  UNK     1      17.054   7.553  33.236  1.00  0.00     0.078 A 
HETATM    4  C2  UNK     1      18.114   8.483  33.680  1.00  0.00     0.027 A 
HETATM    5  C3  UNK     1      17.805   9.836  33.810  1.00  0.00     0.092 A 
HETATM    6  C4  UNK     1      15.819   8.033  32.970  1.00  0.00     0.130 A 
HETATM    7  C6  UNK     1      19.429   8.102  33.988  1.00  0.00     0.017 A 
HETATM    8  C8  UNK     1      18.741  10.789  34.223  1.00  0.00     0.038 A 
HETATM    9  C9  UNK     1      15.499   9.478  33.115  1.00  0.00     0.317 A 
HETATM   10  C11 UNK     1      20.381   9.043  34.404  1.00  0.00     0.001 A 
HETATM   11  C12 UNK     1      20.036  10.386  34.521  1.00  0.00     0.003 A 
ENDROOT
BRANCH   3  12
HETATM   12  N1  UNK     1      17.372   6.224  33.106  1.00  0.00    -0.353 N 
HETATM   13  H1  UNK     1      17.468   5.732  33.989  1.00  0.00     0.166 HD
BRANCH  12  14
HETATM   14  C5  UNK     1      17.976   5.613  32.010  1.00  0.00     0.049 A 
HETATM   15  C10 UNK     1      18.245   6.362  30.853  1.00  0.00     0.030 A 
HETATM   16  C14 UNK     1      18.848   5.768  29.745  1.00  0.00     0.002 A 
HETATM   17  C15 UNK     1      19.193   4.418  29.777  1.00  0.00     0.001 A 
HETATM   18  C13 UNK     1      18.933   3.659  30.919  1.00  0.00     0.020 A 
HETATM   19  C7  UNK     1      18.329   4.252  32.028  1.00  0.00     0.064 A 
BRANCH  19  20
HETATM   20  C16 UNK     1      18.070   3.433  33.205  1.00  0.00     0.178 C 
HETATM   21  O4  UNK     1      17.528   2.325  33.196  1.00  0.00    -0.646 OA
BRANCH  20  22
HETATM   22  O3  UNK     1      18.497   4.026  34.352  1.00  0.00    -0.773 OA
HETATM   23  H12 UNK     1      19.472   4.140  34.363  1.00  0.00     0.167 HD
ENDBRANCH  20  22
ENDBRANCH  19  20
ENDBRANCH  12  14
ENDBRANCH   3  12
BRANCH   6  24
HETATM   24  N2  UNK     1      14.763   7.267  32.553  1.00  0.00    -0.392 N 
HETATM   25  H10 UNK     1      13.814   7.585  32.706  1.00  0.00     0.156 HD
HETATM   26  H9  UNK     1      14.935   6.382  32.091  1.00  0.00     0.156 HD
ENDBRANCH   6  24
TORSDOF 5
ENDMDL
MODEL 10
REMARK VINA RESULT:      -7.6      2.324      4.636
REMARK  5 active torsions:
REMARK  status: ('A' for Active; 'I' for Inactive)
REMARK    1  A    between atoms: C16_22  and  O3_3 
REMARK    2  A    between atoms: C1_7  and  N1_5 
REMARK    3  A    between atoms: C5_11  and  N1_5 
REMARK    4  A    between atoms: C4_10  and  N2_6 
REMARK    5  A    between atoms: C16_22  and  C7_13 
ROOT
HETATM    1  O1  UNK     1      20.710  -2.301  32.148  1.00  0.00    -0.273 OA
HETATM    2  O2  UNK     1      20.521  -3.149  34.248  1.00  0.00    -0.257 OA
HETATM    3  C1  UNK     1      18.792  -0.335  32.838  1.00  0.00     0.078 A 
HETATM    4  C2  UNK     1      19.386  -0.366  31.484  1.00  0.00     0.027 A 
HETATM    5  C3  UNK     1      20.326  -1.351  31.189  1.00  0.00     0.092 A 
HETATM    6  C4  UNK     1      19.172  -1.258  33.749  1.00  0.00     0.130 A 
HETATM    7  C6  UNK     1      19.067   0.534  30.455  1.00  0.00     0.017 A 
HETATM    8  C8  UNK     1      20.941  -1.458  29.937  1.00  0.00     0.038 A 
HETATM    9  C9  UNK     1      20.175  -2.307  33.423  1.00  0.00     0.317 A 
HETATM   10  C11 UNK     1      19.672   0.442  29.194  1.00  0.00     0.001 A 
HETATM   11  C12 UNK     1      20.609  -0.555  28.936  1.00  0.00     0.003 A 
ENDROOT
BRANCH   3  12
HETATM   12  N1  UNK     1      17.871   0.643  33.118  1.00  0.00    -0.353 N 
HETATM   13  H1  UNK     1      16.913   0.387  32.900  1.00  0.00     0.166 HD
BRANCH  12  14
HETATM   14  C5  UNK     1      18.113   2.009  33.237  1.00  0.00     0.049 A 
HETATM   15  C10 UNK     1      18.063   2.829  32.098  1.00  0.00     0.030 A 
HETATM   16  C14 UNK     1      18.304   4.200  32.197  1.00  0.00     0.002 A 
HETATM   17  C15 UNK     1      18.596   4.770  33.435  1.00  0.00     0.001 A 
HETATM   18  C13 UNK     1      18.649   3.969  34.576  1.00  0.00     0.020 A 
HETATM   19  C7  UNK     1      18.409   2.598  34.479  1.00  0.00     0.064 A 
BRANCH  19  20
HETATM   20  C16 UNK     1      18.473   1.789  35.689  1.00  0.00     0.178 C 
HETATM   21  O4  UNK     1      17.498   1.342  36.299  1.00  0.00    -0.646 OA
BRANCH  20  22
HETATM   22  O3  UNK     1      19.751   1.566  36.095  1.00  0.00    -0.773 OA
HETATM   23  H12 UNK     1      19.973   0.610  36.094  1.00  0.00     0.167 HD
ENDBRANCH  20  22
ENDBRANCH  19  20
ENDBRANCH  12  14
ENDBRANCH   3  12
BRANCH   6  24
HETATM   24  N2  UNK     1      18.691  -1.325  35.031  1.00  0.00    -0.392 N 
HETATM   25  H10 UNK     1      19.326  -1.486  35.802  1.00  0.00     0.156 HD
HETATM   26  H9  UNK     1      17.699  -1.215  35.202  1.00  0.00     0.156 HD
ENDBRANCH   6  24
TORSDOF 5
ENDMDL
