MODEL 1
REMARK VINA RESULT:      -8.4      0.000      0.000
REMARK  2 active torsions:
REMARK  status: ('A' for Active; 'I' for Inactive)
REMARK    1  A    between atoms: C8_14  and  N1_5 
REMARK    2  A    between atoms: C1_7  and  C4_10 
ROOT
HETATM    1  O1  UNK     1      30.811  -5.372  38.286  1.00  0.00    -0.291 OA
HETATM    2  O2  UNK     1      31.628  -7.938  35.084  1.00  0.00    -0.274 OA
HETATM    3  O3  UNK     1      29.398  -8.356  34.845  1.00  0.00    -0.259 OA
HETATM    4  N2  UNK     1      26.043  -4.872  38.756  1.00  0.00    -0.191 NA
HETATM    5  C1  UNK     1      28.591  -6.747  37.093  1.00  0.00     0.109 C 
HETATM    6  C2  UNK     1      30.025  -6.905  36.622  1.00  0.00     0.066 A 
HETATM    7  C3  UNK     1      31.020  -6.243  37.230  1.00  0.00     0.104 A 
HETATM    8  C5  UNK     1      28.439  -5.620  38.110  1.00  0.00     0.086 C 
HETATM    9  C6  UNK     1      32.408  -6.408  36.807  1.00  0.00     0.033 A 
HETATM   10  C7  UNK     1      30.297  -7.786  35.456  1.00  0.00     0.298 A 
HETATM   11  C8  UNK     1      29.517  -5.008  38.651  1.00  0.00     0.159 C 
HETATM   12  C9  UNK     1      32.674  -7.264  35.741  1.00  0.00     0.092 A 
HETATM   13  C12 UNK     1      33.489  -5.759  37.417  1.00  0.00     0.017 A 
HETATM   14  C13 UNK     1      33.968  -7.486  35.273  1.00  0.00     0.038 A 
HETATM   15  C16 UNK     1      34.793  -5.971  36.960  1.00  0.00     0.001 A 
HETATM   16  C17 UNK     1      27.115  -5.207  38.467  1.00  0.00     0.100 C 
HETATM   17  C18 UNK     1      35.032  -6.834  35.889  1.00  0.00     0.003 A 
ENDROOT
BRANCH   5  18
HETATM   18  C4  UNK     1      28.083  -8.036  37.671  1.00  0.00    -0.043 A 
HETATM   19  C10 UNK     1      27.176  -8.803  36.948  1.00  0.00     0.027 A 
HETATM   20  C14 UNK     1      26.704 -10.001  37.486  1.00  0.00     0.011 A 
HETATM   21 Br1  UNK     1      25.469 -11.051  36.514  1.00  0.00    -0.051 Br
HETATM   22  C19 UNK     1      27.142 -10.424  38.741  1.00  0.00     0.019 A 
HETATM   23  C15 UNK     1      28.052  -9.648  39.459  1.00  0.00     0.002 A 
HETATM   24  C11 UNK     1      28.524  -8.450  38.923  1.00  0.00     0.008 A 
ENDBRANCH   5  18
BRANCH  11  25
HETATM   25  N1  UNK     1      29.469  -4.002  39.577  1.00  0.00    -0.379 N 
HETATM   26  H10 UNK     1      29.287  -3.046  39.299  1.00  0.00     0.158 HD
HETATM   27  H9  UNK     1      29.616  -4.229  40.552  1.00  0.00     0.158 HD
ENDBRANCH  11  25
TORSDOF 2
ENDMDL
MODEL 2
REMARK VINA RESULT:      -8.4      3.003      5.851
REMARK  2 active torsions:
REMARK  status: ('A' for Active; 'I' for Inactive)
REMARK    1  A    between atoms: C8_14  and  N1_5 
REMARK    2  A    between atoms: C1_7  and  C4_10 
ROOT
HETATM    1  O1  UNK     1      30.527  -5.183  37.123  1.00  0.00    -0.291 OA
HETATM    2  O2  UNK     1      30.605  -9.366  37.149  1.00  0.00    -0.274 OA
HETATM    3  O3  UNK     1      32.392  -9.345  35.732  1.00  0.00    -0.259 OA
HETATM    4  N2  UNK     1      34.319  -3.530  34.652  1.00  0.00    -0.191 NA
HETATM    5  C1  UNK     1      32.464  -6.481  35.447  1.00  0.00     0.109 C 
HETATM    6  C2  UNK     1      31.483  -7.231  36.329  1.00  0.00     0.066 A 
HETATM    7  C3  UNK     1      30.594  -6.564  37.081  1.00  0.00     0.104 A 
HETATM    8  C5  UNK     1      32.454  -4.979  35.720  1.00  0.00     0.086 C 
HETATM    9  C6  UNK     1      29.624  -7.274  37.912  1.00  0.00     0.033 A 
HETATM   10  C7  UNK     1      31.549  -8.715  36.363  1.00  0.00     0.298 A 
HETATM   11  C8  UNK     1      31.514  -4.413  36.511  1.00  0.00     0.159 C 
HETATM   12  C9  UNK     1      29.655  -8.666  37.916  1.00  0.00     0.092 A 
HETATM   13  C12 UNK     1      28.661  -6.633  38.700  1.00  0.00     0.017 A 
HETATM   14  C13 UNK     1      28.764  -9.425  38.674  1.00  0.00     0.038 A 
HETATM   15  C16 UNK     1      27.760  -7.379  39.466  1.00  0.00     0.001 A 
HETATM   16  C17 UNK     1      33.484  -4.179  35.130  1.00  0.00     0.100 C 
HETATM   17  C18 UNK     1      27.812  -8.774  39.453  1.00  0.00     0.003 A 
ENDROOT
BRANCH   5  18
HETATM   18  C4  UNK     1      32.175  -6.744  33.997  1.00  0.00    -0.043 A 
HETATM   19  C10 UNK     1      30.942  -6.385  33.466  1.00  0.00     0.027 A 
HETATM   20  C14 UNK     1      30.675  -6.630  32.119  1.00  0.00     0.011 A 
HETATM   21 Br1  UNK     1      29.000  -6.148  31.386  1.00  0.00    -0.051 Br
HETATM   22  C19 UNK     1      31.642  -7.229  31.313  1.00  0.00     0.019 A 
HETATM   23  C15 UNK     1      32.877  -7.586  31.854  1.00  0.00     0.002 A 
HETATM   24  C11 UNK     1      33.145  -7.343  33.201  1.00  0.00     0.008 A 
ENDBRANCH   5  18
BRANCH  11  25
HETATM   25  N1  UNK     1      31.424  -3.078  36.794  1.00  0.00    -0.379 N 
HETATM   26  H10 UNK     1      30.558  -2.671  37.123  1.00  0.00     0.158 HD
HETATM   27  H9  UNK     1      32.245  -2.498  36.674  1.00  0.00     0.158 HD
ENDBRANCH  11  25
TORSDOF 2
ENDMDL
MODEL 3
REMARK VINA RESULT:      -8.3     33.938     35.113
REMARK  2 active torsions:
REMARK  status: ('A' for Active; 'I' for Inactive)
REMARK    1  A    between atoms: C8_14  and  N1_5 
REMARK    2  A    between atoms: C1_7  and  C4_10 
ROOT
HETATM    1  O1  UNK     1      16.939   8.444   9.970  1.00  0.00    -0.291 OA
HETATM    2  O2  UNK     1      13.828  10.655  11.684  1.00  0.00    -0.274 OA
HETATM    3  O3  UNK     1      12.526   8.783  11.744  1.00  0.00    -0.259 OA
HETATM    4  N2  UNK     1      15.707   3.788   9.840  1.00  0.00    -0.191 NA
HETATM    5  C1  UNK     1      14.460   7.081  10.458  1.00  0.00     0.109 C 
HETATM    6  C2  UNK     1      14.691   8.543  10.789  1.00  0.00     0.066 A 
HETATM    7  C3  UNK     1      15.870   9.125  10.525  1.00  0.00     0.104 A 
HETATM    8  C5  UNK     1      15.749   6.372  10.051  1.00  0.00     0.086 C 
HETATM    9  C6  UNK     1      16.096  10.540  10.810  1.00  0.00     0.033 A 
HETATM   10  C7  UNK     1      13.593   9.307  11.437  1.00  0.00     0.298 A 
HETATM   11  C8  UNK     1      16.891   7.059   9.823  1.00  0.00     0.159 C 
HETATM   12  C9  UNK     1      15.057  11.271  11.381  1.00  0.00     0.092 A 
HETATM   13  C12 UNK     1      17.298  11.205  10.538  1.00  0.00     0.017 A 
HETATM   14  C13 UNK     1      15.181  12.626  11.682  1.00  0.00     0.038 A 
HETATM   15  C16 UNK     1      17.439  12.564  10.833  1.00  0.00     0.001 A 
HETATM   16  C17 UNK     1      15.726   4.945   9.934  1.00  0.00     0.100 C 
HETATM   17  C18 UNK     1      16.382  13.274  11.405  1.00  0.00     0.003 A 
ENDROOT
BRANCH   5  18
HETATM   18  C4  UNK     1      13.430   6.943   9.374  1.00  0.00    -0.043 A 
HETATM   19  C10 UNK     1      12.194   6.379   9.669  1.00  0.00     0.027 A 
HETATM   20  C14 UNK     1      11.238   6.251   8.661  1.00  0.00     0.011 A 
HETATM   21 Br1  UNK     1       9.554   5.484   9.049  1.00  0.00    -0.051 Br
HETATM   22  C19 UNK     1      11.523   6.688   7.368  1.00  0.00     0.019 A 
HETATM   23  C15 UNK     1      12.766   7.253   7.082  1.00  0.00     0.002 A 
HETATM   24  C11 UNK     1      13.723   7.380   8.088  1.00  0.00     0.008 A 
ENDBRANCH   5  18
BRANCH  11  25
HETATM   25  N1  UNK     1      18.081   6.504   9.443  1.00  0.00    -0.379 N 
HETATM   26  H10 UNK     1      18.311   5.548   9.681  1.00  0.00     0.158 HD
HETATM   27  H9  UNK     1      18.733   7.067   8.911  1.00  0.00     0.158 HD
ENDBRANCH  11  25
TORSDOF 2
ENDMDL
MODEL 4
REMARK VINA RESULT:      -8.2     22.904     24.301
REMARK  2 active torsions:
REMARK  status: ('A' for Active; 'I' for Inactive)
REMARK    1  A    between atoms: C8_14  and  N1_5 
REMARK    2  A    between atoms: C1_7  and  C4_10 
ROOT
HETATM    1  O1  UNK     1      20.796  -2.659  15.366  1.00  0.00    -0.291 OA
HETATM    2  O2  UNK     1      22.689  -6.232  16.439  1.00  0.00    -0.274 OA
HETATM    3  O3  UNK     1      21.741  -7.276  14.647  1.00  0.00    -0.259 OA
HETATM    4  N2  UNK     1      18.542  -3.248  11.149  1.00  0.00    -0.191 NA
HETATM    5  C1  UNK     1      20.232  -4.983  13.779  1.00  0.00     0.109 C 
HETATM    6  C2  UNK     1      21.171  -4.990  14.970  1.00  0.00     0.066 A 
HETATM    7  C3  UNK     1      21.384  -3.871  15.678  1.00  0.00     0.104 A 
HETATM    8  C5  UNK     1      19.804  -3.570  13.391  1.00  0.00     0.086 C 
HETATM    9  C6  UNK     1      22.263  -3.871  16.846  1.00  0.00     0.033 A 
HETATM   10  C7  UNK     1      21.871  -6.255  15.315  1.00  0.00     0.298 A 
HETATM   11  C8  UNK     1      20.086  -2.507  14.177  1.00  0.00     0.159 C 
HETATM   12  C9  UNK     1      22.890  -5.063  17.198  1.00  0.00     0.092 A 
HETATM   13  C12 UNK     1      22.506  -2.740  17.634  1.00  0.00     0.017 A 
HETATM   14  C13 UNK     1      23.740  -5.157  18.299  1.00  0.00     0.038 A 
HETATM   15  C16 UNK     1      23.356  -2.817  18.742  1.00  0.00     0.001 A 
HETATM   16  C17 UNK     1      19.107  -3.393  12.153  1.00  0.00     0.100 C 
HETATM   17  C18 UNK     1      23.972  -4.025  19.073  1.00  0.00     0.003 A 
ENDROOT
BRANCH   5  18
HETATM   18  C4  UNK     1      19.024  -5.831  14.056  1.00  0.00    -0.043 A 
HETATM   19  C10 UNK     1      18.311  -5.646  15.235  1.00  0.00     0.027 A 
HETATM   20  C14 UNK     1      17.188  -6.433  15.492  1.00  0.00     0.011 A 
HETATM   21 Br1  UNK     1      16.211  -6.193  17.093  1.00  0.00    -0.051 Br
HETATM   22  C19 UNK     1      16.786  -7.399  14.569  1.00  0.00     0.019 A 
HETATM   23  C15 UNK     1      17.508  -7.577  13.389  1.00  0.00     0.002 A 
HETATM   24  C11 UNK     1      18.631  -6.791  13.131  1.00  0.00     0.008 A 
ENDBRANCH   5  18
BRANCH  11  25
HETATM   25  N1  UNK     1      19.727  -1.214  13.911  1.00  0.00    -0.379 N 
HETATM   26  H10 UNK     1      19.662  -0.528  14.653  1.00  0.00     0.158 HD
HETATM   27  H9  UNK     1      19.531  -0.949  12.955  1.00  0.00     0.158 HD
ENDBRANCH  11  25
TORSDOF 2
ENDMDL
MODEL 5
REMARK VINA RESULT:      -8.0      1.851      2.539
REMARK  2 active torsions:
REMARK  status: ('A' for Active; 'I' for Inactive)
REMARK    1  A    between atoms: C8_14  and  N1_5 
REMARK    2  A    between atoms: C1_7  and  C4_10 
ROOT
HETATM    1  O1  UNK     1      32.286  -6.623  37.047  1.00  0.00    -0.291 OA
HETATM    2  O2  UNK     1      30.089  -8.287  33.900  1.00  0.00    -0.274 OA
HETATM    3  O3  UNK     1      28.168  -7.437  34.787  1.00  0.00    -0.259 OA
HETATM    4  N2  UNK     1      29.375  -3.923  39.776  1.00  0.00    -0.191 NA
HETATM    5  C1  UNK     1      29.433  -6.308  37.114  1.00  0.00     0.109 C 
HETATM    6  C2  UNK     1      30.170  -7.038  36.006  1.00  0.00     0.066 A 
HETATM    7  C3  UNK     1      31.505  -7.161  36.040  1.00  0.00     0.104 A 
HETATM    8  C5  UNK     1      30.386  -5.578  38.056  1.00  0.00     0.086 C 
HETATM    9  C6  UNK     1      32.224  -7.886  34.996  1.00  0.00     0.033 A 
HETATM   10  C7  UNK     1      29.383  -7.587  34.871  1.00  0.00     0.298 A 
HETATM   11  C8  UNK     1      31.724  -5.766  37.992  1.00  0.00     0.159 C 
HETATM   12  C9  UNK     1      31.488  -8.438  33.951  1.00  0.00     0.092 A 
HETATM   13  C12 UNK     1      33.613  -8.063  34.989  1.00  0.00     0.017 A 
HETATM   14  C13 UNK     1      32.089  -9.151  32.915  1.00  0.00     0.038 A 
HETATM   15  C16 UNK     1      34.232  -8.776  33.958  1.00  0.00     0.001 A 
HETATM   16  C17 UNK     1      29.827  -4.664  39.006  1.00  0.00     0.100 C 
HETATM   17  C18 UNK     1      33.471  -9.319  32.921  1.00  0.00     0.003 A 
ENDROOT
BRANCH   5  18
HETATM   18  C4  UNK     1      28.571  -7.262  37.889  1.00  0.00    -0.043 A 
HETATM   19  C10 UNK     1      27.206  -7.022  37.998  1.00  0.00     0.027 A 
HETATM   20  C14 UNK     1      26.406  -7.908  38.718  1.00  0.00     0.011 A 
HETATM   21 Br1  UNK     1      24.549  -7.591  38.875  1.00  0.00    -0.051 Br
HETATM   22  C19 UNK     1      26.974  -9.029  39.324  1.00  0.00     0.019 A 
HETATM   23  C15 UNK     1      28.345  -9.262  39.209  1.00  0.00     0.002 A 
HETATM   24  C11 UNK     1      29.146  -8.376  38.490  1.00  0.00     0.008 A 
ENDBRANCH   5  18
BRANCH  11  25
HETATM   25  N1  UNK     1      32.644  -5.164  38.805  1.00  0.00    -0.379 N 
HETATM   26  H10 UNK     1      33.620  -5.112  38.540  1.00  0.00     0.158 HD
HETATM   27  H9  UNK     1      32.333  -4.764  39.681  1.00  0.00     0.158 HD
ENDBRANCH  11  25
TORSDOF 2
ENDMDL
MODEL 6
REMARK VINA RESULT:      -8.0      3.985      6.349
REMARK  2 active torsions:
REMARK  status: ('A' for Active; 'I' for Inactive)
REMARK    1  A    between atoms: C8_14  and  N1_5 
REMARK    2  A    between atoms: C1_7  and  C4_10 
ROOT
HETATM    1  O1  UNK     1      32.309  -5.139  35.544  1.00  0.00    -0.291 OA
HETATM    2  O2  UNK     1      28.724  -7.158  36.299  1.00  0.00    -0.274 OA
HETATM    3  O3  UNK     1      29.093  -8.497  34.491  1.00  0.00    -0.259 OA
HETATM    4  N2  UNK     1      34.634  -7.311  31.926  1.00  0.00    -0.191 NA
HETATM    5  C1  UNK     1      31.526  -7.184  33.688  1.00  0.00     0.109 C 
HETATM    6  C2  UNK     1      30.712  -6.809  34.912  1.00  0.00     0.066 A 
HETATM    7  C3  UNK     1      31.128  -5.834  35.735  1.00  0.00     0.104 A 
HETATM    8  C5  UNK     1      32.898  -6.517  33.680  1.00  0.00     0.086 C 
HETATM    9  C6  UNK     1      30.340  -5.441  36.900  1.00  0.00     0.033 A 
HETATM   10  C7  UNK     1      29.463  -7.562  35.194  1.00  0.00     0.298 A 
HETATM   11  C8  UNK     1      33.217  -5.550  34.570  1.00  0.00     0.159 C 
HETATM   12  C9  UNK     1      29.147  -6.117  37.147  1.00  0.00     0.092 A 
HETATM   13  C12 UNK     1      30.713  -4.419  37.781  1.00  0.00     0.017 A 
HETATM   14  C13 UNK     1      28.329  -5.806  38.232  1.00  0.00     0.038 A 
HETATM   15  C16 UNK     1      29.904  -4.094  38.874  1.00  0.00     0.001 A 
HETATM   16  C17 UNK     1      33.857  -6.956  32.711  1.00  0.00     0.100 C 
HETATM   17  C18 UNK     1      28.713  -4.787  39.099  1.00  0.00     0.003 A 
ENDROOT
BRANCH   5  18
HETATM   18  C4  UNK     1      30.777  -6.840  32.433  1.00  0.00    -0.043 A 
HETATM   19  C10 UNK     1      30.595  -7.810  31.454  1.00  0.00     0.027 A 
HETATM   20  C14 UNK     1      29.899  -7.490  30.288  1.00  0.00     0.011 A 
HETATM   21 Br1  UNK     1      29.646  -8.800  28.948  1.00  0.00    -0.051 Br
HETATM   22  C19 UNK     1      29.390  -6.204  30.109  1.00  0.00     0.019 A 
HETATM   23  C15 UNK     1      29.577  -5.237  31.097  1.00  0.00     0.002 A 
HETATM   24  C11 UNK     1      30.274  -5.556  32.262  1.00  0.00     0.008 A 
ENDBRANCH   5  18
BRANCH  11  25
HETATM   25  N1  UNK     1      34.415  -4.892  34.623  1.00  0.00    -0.379 N 
HETATM   26  H10 UNK     1      35.109  -5.012  33.896  1.00  0.00     0.158 HD
HETATM   27  H9  UNK     1      34.599  -4.276  35.404  1.00  0.00     0.158 HD
ENDBRANCH  11  25
TORSDOF 2
ENDMDL
MODEL 7
REMARK VINA RESULT:      -8.0      3.981      6.093
REMARK  2 active torsions:
REMARK  status: ('A' for Active; 'I' for Inactive)
REMARK    1  A    between atoms: C8_14  and  N1_5 
REMARK    2  A    between atoms: C1_7  and  C4_10 
ROOT
HETATM    1  O1  UNK     1      30.687  -6.078  35.355  1.00  0.00    -0.291 OA
HETATM    2  O2  UNK     1      27.951  -9.040  36.468  1.00  0.00    -0.274 OA
HETATM    3  O3  UNK     1      28.298 -10.111  34.485  1.00  0.00    -0.259 OA
HETATM    4  N2  UNK     1      32.756  -7.303  31.179  1.00  0.00    -0.191 NA
HETATM    5  C1  UNK     1      30.115  -8.138  33.439  1.00  0.00     0.109 C 
HETATM    6  C2  UNK     1      29.481  -8.076  34.815  1.00  0.00     0.066 A 
HETATM    7  C3  UNK     1      29.783  -7.079  35.661  1.00  0.00     0.104 A 
HETATM    8  C5  UNK     1      31.243  -7.123  33.276  1.00  0.00     0.086 C 
HETATM    9  C6  UNK     1      29.157  -6.990  36.979  1.00  0.00     0.033 A 
HETATM   10  C7  UNK     1      28.544  -9.157  35.216  1.00  0.00     0.298 A 
HETATM   11  C8  UNK     1      31.468  -6.165  34.203  1.00  0.00     0.159 C 
HETATM   12  C9  UNK     1      28.247  -7.979  37.344  1.00  0.00     0.092 A 
HETATM   13  C12 UNK     1      29.418  -5.963  37.894  1.00  0.00     0.017 A 
HETATM   14  C13 UNK     1      27.599  -7.971  38.578  1.00  0.00     0.038 A 
HETATM   15  C16 UNK     1      28.777  -5.940  39.136  1.00  0.00     0.001 A 
HETATM   16  C17 UNK     1      32.079  -7.223  32.118  1.00  0.00     0.100 C 
HETATM   17  C18 UNK     1      27.868  -6.943  39.477  1.00  0.00     0.003 A 
ENDROOT
BRANCH   5  18
HETATM   18  C4  UNK     1      29.077  -7.932  32.373  1.00  0.00    -0.043 A 
HETATM   19  C10 UNK     1      29.038  -8.788  31.278  1.00  0.00     0.027 A 
HETATM   20  C14 UNK     1      28.074  -8.596  30.288  1.00  0.00     0.011 A 
HETATM   21 Br1  UNK     1      28.012  -9.751  28.793  1.00  0.00    -0.051 Br
HETATM   22  C19 UNK     1      27.156  -7.551  30.400  1.00  0.00     0.019 A 
HETATM   23  C15 UNK     1      27.203  -6.698  31.502  1.00  0.00     0.002 A 
HETATM   24  C11 UNK     1      28.167  -6.888  32.492  1.00  0.00     0.008 A 
ENDBRANCH   5  18
BRANCH  11  25
HETATM   25  N1  UNK     1      32.445  -5.211  34.128  1.00  0.00    -0.379 N 
HETATM   26  H10 UNK     1      32.389  -4.362  34.677  1.00  0.00     0.158 HD
HETATM   27  H9  UNK     1      33.235  -5.369  33.515  1.00  0.00     0.158 HD
ENDBRANCH  11  25
TORSDOF 2
ENDMDL
MODEL 8
REMARK VINA RESULT:      -7.9      5.409      7.768
REMARK  2 active torsions:
REMARK  status: ('A' for Active; 'I' for Inactive)
REMARK    1  A    between atoms: C8_14  and  N1_5 
REMARK    2  A    between atoms: C1_7  and  C4_10 
ROOT
HETATM    1  O1  UNK     1      34.886  -6.742  33.104  1.00  0.00    -0.291 OA
HETATM    2  O2  UNK     1      32.224  -9.574  34.652  1.00  0.00    -0.274 OA
HETATM    3  O3  UNK     1      31.952 -10.462  32.570  1.00  0.00    -0.259 OA
HETATM    4  N2  UNK     1      35.708  -7.697  28.454  1.00  0.00    -0.191 NA
HETATM    5  C1  UNK     1      33.643  -8.544  31.247  1.00  0.00     0.109 C 
HETATM    6  C2  UNK     1      33.384  -8.571  32.741  1.00  0.00     0.066 A 
HETATM    7  C3  UNK     1      33.988  -7.693  33.555  1.00  0.00     0.104 A 
HETATM    8  C5  UNK     1      34.793  -7.611  30.878  1.00  0.00     0.086 C 
HETATM    9  C6  UNK     1      33.725  -7.689  34.992  1.00  0.00     0.033 A 
HETATM   10  C7  UNK     1      32.470  -9.610  33.285  1.00  0.00     0.298 A 
HETATM   11  C8  UNK     1      35.341  -6.773  31.787  1.00  0.00     0.159 C 
HETATM   12  C9  UNK     1      32.838  -8.633  35.501  1.00  0.00     0.092 A 
HETATM   13  C12 UNK     1      34.310  -6.784  35.886  1.00  0.00     0.017 A 
HETATM   14  C13 UNK     1      32.523  -8.699  36.858  1.00  0.00     0.038 A 
HETATM   15  C16 UNK     1      34.005  -6.836  37.249  1.00  0.00     0.001 A 
HETATM   16  C17 UNK     1      35.298  -7.659  29.539  1.00  0.00     0.100 C 
HETATM   17  C18 UNK     1      33.112  -7.793  37.735  1.00  0.00     0.003 A 
ENDROOT
BRANCH   5  18
HETATM   18  C4  UNK     1      32.400  -8.149  30.504  1.00  0.00    -0.043 A 
HETATM   19  C10 UNK     1      31.677  -7.035  30.917  1.00  0.00     0.027 A 
HETATM   20  C14 UNK     1      30.522  -6.668  30.226  1.00  0.00     0.011 A 
HETATM   21 Br1  UNK     1      29.530  -5.157  30.780  1.00  0.00    -0.051 Br
HETATM   22  C19 UNK     1      30.098  -7.415  29.127  1.00  0.00     0.019 A 
HETATM   23  C15 UNK     1      30.829  -8.531  28.720  1.00  0.00     0.002 A 
HETATM   24  C11 UNK     1      31.984  -8.900  29.411  1.00  0.00     0.008 A 
ENDBRANCH   5  18
BRANCH  11  25
HETATM   25  N1  UNK     1      36.361  -5.897  31.537  1.00  0.00    -0.379 N 
HETATM   26  H10 UNK     1      37.265  -6.010  31.978  1.00  0.00     0.158 HD
HETATM   27  H9  UNK     1      36.199  -5.131  30.896  1.00  0.00     0.158 HD
ENDBRANCH  11  25
TORSDOF 2
ENDMDL
MODEL 9
REMARK VINA RESULT:      -7.9      3.829      6.344
REMARK  2 active torsions:
REMARK  status: ('A' for Active; 'I' for Inactive)
REMARK    1  A    between atoms: C8_14  and  N1_5 
REMARK    2  A    between atoms: C1_7  and  C4_10 
ROOT
HETATM    1  O1  UNK     1      32.632  -4.698  35.667  1.00  0.00    -0.291 OA
HETATM    2  O2  UNK     1      30.156  -7.853  36.858  1.00  0.00    -0.274 OA
HETATM    3  O3  UNK     1      31.191  -9.233  35.365  1.00  0.00    -0.259 OA
HETATM    4  N2  UNK     1      35.931  -6.340  32.563  1.00  0.00    -0.191 NA
HETATM    5  C1  UNK     1      32.918  -7.199  34.286  1.00  0.00     0.109 C 
HETATM    6  C2  UNK     1      31.927  -6.973  35.411  1.00  0.00     0.066 A 
HETATM    7  C3  UNK     1      31.834  -5.775  36.009  1.00  0.00     0.104 A 
HETATM    8  C5  UNK     1      33.887  -6.030  34.127  1.00  0.00     0.086 C 
HETATM    9  C6  UNK     1      30.862  -5.535  37.073  1.00  0.00     0.033 A 
HETATM   10  C7  UNK     1      31.083  -8.113  35.855  1.00  0.00     0.298 A 
HETATM   11  C8  UNK     1      33.705  -4.867  34.793  1.00  0.00     0.159 C 
HETATM   12  C9  UNK     1      30.041  -6.589  37.465  1.00  0.00     0.092 A 
HETATM   13  C12 UNK     1      30.707  -4.302  37.718  1.00  0.00     0.017 A 
HETATM   14  C13 UNK     1      29.083  -6.449  38.468  1.00  0.00     0.038 A 
HETATM   15  C16 UNK     1      29.750  -4.145  38.726  1.00  0.00     0.001 A 
HETATM   16  C17 UNK     1      35.016  -6.202  33.263  1.00  0.00     0.100 C 
HETATM   17  C18 UNK     1      28.939  -5.217  39.101  1.00  0.00     0.003 A 
ENDROOT
BRANCH   5  18
HETATM   18  C4  UNK     1      32.198  -7.451  32.993  1.00  0.00    -0.043 A 
HETATM   19  C10 UNK     1      31.249  -6.540  32.545  1.00  0.00     0.027 A 
HETATM   20  C14 UNK     1      30.581  -6.775  31.343  1.00  0.00     0.011 A 
HETATM   21 Br1  UNK     1      29.286  -5.544  30.726  1.00  0.00    -0.051 Br
HETATM   22  C19 UNK     1      30.867  -7.918  30.597  1.00  0.00     0.019 A 
HETATM   23  C15 UNK     1      31.821  -8.827  31.054  1.00  0.00     0.002 A 
HETATM   24  C11 UNK     1      32.489  -8.594  32.256  1.00  0.00     0.008 A 
ENDBRANCH   5  18
BRANCH  11  25
HETATM   25  N1  UNK     1      34.515  -3.769  34.698  1.00  0.00    -0.379 N 
HETATM   26  H10 UNK     1      35.508  -3.867  34.529  1.00  0.00     0.158 HD
HETATM   27  H9  UNK     1      34.103  -2.850  34.795  1.00  0.00     0.158 HD
ENDBRANCH  11  25
TORSDOF 2
ENDMDL
MODEL 10
REMARK VINA RESULT:      -7.8     35.050     36.437
REMARK  2 active torsions:
REMARK  status: ('A' for Active; 'I' for Inactive)
REMARK    1  A    between atoms: C8_14  and  N1_5 
REMARK    2  A    between atoms: C1_7  and  C4_10 
ROOT
HETATM    1  O1  UNK     1      11.361   8.969  10.130  1.00  0.00    -0.291 OA
HETATM    2  O2  UNK     1      13.392   6.099   7.863  1.00  0.00    -0.274 OA
HETATM    3  O3  UNK     1      15.262   6.416   9.130  1.00  0.00    -0.259 OA
HETATM    4  N2  UNK     1      14.154  10.380  13.794  1.00  0.00    -0.191 NA
HETATM    5  C1  UNK     1      14.128   8.511  10.746  1.00  0.00     0.109 C 
HETATM    6  C2  UNK     1      13.380   7.771   9.654  1.00  0.00     0.066 A 
HETATM    7  C3  UNK     1      12.089   8.040   9.408  1.00  0.00     0.104 A 
HETATM    8  C5  UNK     1      13.196   9.352  11.616  1.00  0.00     0.086 C 
HETATM    9  C6  UNK     1      11.364   7.356   8.339  1.00  0.00     0.033 A 
HETATM   10  C7  UNK     1      14.099   6.723   8.885  1.00  0.00     0.298 A 
HETATM   11  C8  UNK     1      11.901   9.546  11.278  1.00  0.00     0.159 C 
HETATM   12  C9  UNK     1      12.045   6.402   7.588  1.00  0.00     0.092 A 
HETATM   13  C12 UNK     1      10.024   7.610   8.024  1.00  0.00     0.017 A 
HETATM   14  C13 UNK     1      11.436   5.705   6.546  1.00  0.00     0.038 A 
HETATM   15  C16 UNK     1       9.397   6.919   6.982  1.00  0.00     0.001 A 
HETATM   16  C17 UNK     1      13.726   9.919  12.819  1.00  0.00     0.100 C 
HETATM   17  C18 UNK     1      10.103   5.968   6.244  1.00  0.00     0.003 A 
ENDROOT
BRANCH   5  18
HETATM   18  C4  UNK     1      15.202   9.377  10.155  1.00  0.00    -0.043 A 
HETATM   19  C10 UNK     1      14.857  10.394   9.273  1.00  0.00     0.027 A 
HETATM   20  C14 UNK     1      15.856  11.199   8.724  1.00  0.00     0.011 A 
HETATM   21 Br1  UNK     1      15.399  12.584   7.521  1.00  0.00    -0.051 Br
HETATM   22  C19 UNK     1      17.192  10.981   9.060  1.00  0.00     0.019 A 
HETATM   23  C15 UNK     1      17.529   9.958   9.946  1.00  0.00     0.002 A 
HETATM   24  C11 UNK     1      16.531   9.152  10.495  1.00  0.00     0.008 A 
ENDBRANCH   5  18
BRANCH  11  25
HETATM   25  N1  UNK     1      11.005  10.294  11.991  1.00  0.00    -0.379 N 
HETATM   26  H10 UNK     1      11.310  11.085  12.545  1.00  0.00     0.158 HD
HETATM   27  H9  UNK     1      10.025  10.048  11.953  1.00  0.00     0.158 HD
ENDBRANCH  11  25
TORSDOF 2
ENDMDL
