MODEL 1
REMARK VINA RESULT:      -9.8      0.000      0.000
REMARK  4 active torsions:
REMARK  status: ('A' for Active; 'I' for Inactive)
REMARK    1  A    between atoms: C6_14  and  O2_2 
REMARK    2  A    between atoms: C3_11  and  N1_7 
REMARK       I    between atoms: C7_15  and  N1_7 
REMARK    3  A    between atoms: C13_21  and  N2_8 
REMARK    4  A    between atoms: C2_10  and  C7_15 
ROOT
HETATM    1  O3  UNK     1      21.353  -4.515  37.031  1.00  0.00    -0.267 OA
HETATM    2  N1  UNK     1      19.099  -5.194  36.982  1.00  0.00    -0.320 N 
HETATM    3  C7  UNK     1      20.155  -4.306  36.844  1.00  0.00     0.262 C 
HETATM    4  H2  UNK     1      18.159  -4.868  36.771  1.00  0.00     0.169 HD
ENDROOT
BRANCH   2   5
HETATM    5  C3  UNK     1      19.159  -6.554  37.373  1.00  0.00     0.068 A 
HETATM    6  C6  UNK     1      18.718  -7.543  36.508  1.00  0.00     0.097 A 
HETATM    7  C11 UNK     1      18.784  -8.878  36.908  1.00  0.00     0.075 A 
HETATM    8  C13 UNK     1      19.290  -9.205  38.165  1.00  0.00     0.105 A 
HETATM    9  C14 UNK     1      19.730  -8.198  39.025  1.00  0.00     0.038 A 
HETATM   10  C9  UNK     1      19.664  -6.863  38.625  1.00  0.00     0.035 A 
BRANCH   6  11
HETATM   11  O2  UNK     1      18.219  -7.245  35.275  1.00  0.00    -0.354 OA
HETATM   12  C17 UNK     1      16.827  -7.472  35.067  1.00  0.00     0.210 C 
ENDBRANCH   6  11
BRANCH   8  13
HETATM   13  N2  UNK     1      19.357 -10.564  38.573  1.00  0.00    -0.116 N 
HETATM   14  O5  UNK     1      19.441 -11.459  37.697  1.00  0.00    -0.532 OA
HETATM   15  O6  UNK     1      19.332 -10.833  39.799  1.00  0.00    -0.532 OA
ENDBRANCH   8  13
ENDBRANCH   2   5
BRANCH   3  16
HETATM   16  C2  UNK     1      19.707  -2.974  36.417  1.00  0.00     0.108 A 
HETATM   17  C10 UNK     1      20.014  -2.435  35.073  1.00  0.00     0.304 A 
HETATM   18  O1  UNK     1      19.534  -1.160  34.786  1.00  0.00    -0.274 OA
HETATM   19  O4  UNK     1      20.660  -3.074  34.250  1.00  0.00    -0.259 OA
HETATM   20  C4  UNK     1      18.791  -0.417  35.724  1.00  0.00     0.089 A 
HETATM   21  C1  UNK     1      18.513  -0.943  36.982  1.00  0.00    -0.001 A 
HETATM   22  C12 UNK     1      18.351   0.850  35.345  1.00  0.00     0.038 A 
HETATM   23  C5  UNK     1      19.002  -2.272  37.313  1.00  0.00     0.037 A 
HETATM   24  C8  UNK     1      17.773  -0.175  37.885  1.00  0.00     0.014 A 
HETATM   25  C15 UNK     1      17.327   1.098  37.519  1.00  0.00     0.001 A 
HETATM   26  C16 UNK     1      17.614   1.608  36.252  1.00  0.00     0.003 A 
ENDBRANCH   3  16
TORSDOF 4
ENDMDL
MODEL 2
REMARK VINA RESULT:      -9.5     19.096     21.885
REMARK  4 active torsions:
REMARK  status: ('A' for Active; 'I' for Inactive)
REMARK    1  A    between atoms: C6_14  and  O2_2 
REMARK    2  A    between atoms: C3_11  and  N1_7 
REMARK       I    between atoms: C7_15  and  N1_7 
REMARK    3  A    between atoms: C13_21  and  N2_8 
REMARK    4  A    between atoms: C2_10  and  C7_15 
ROOT
HETATM    1  O3  UNK     1      17.102  -1.780  17.044  1.00  0.00    -0.267 OA
HETATM    2  N1  UNK     1      19.270  -0.872  16.908  1.00  0.00    -0.320 N 
HETATM    3  C7  UNK     1      18.192  -1.639  16.491  1.00  0.00     0.262 C 
HETATM    4  H2  UNK     1      20.103  -0.847  16.324  1.00  0.00     0.169 HD
ENDROOT
BRANCH   2   5
HETATM    5  C3  UNK     1      19.363  -0.073  18.074  1.00  0.00     0.068 A 
HETATM    6  C6  UNK     1      19.054   1.277  18.014  1.00  0.00     0.097 A 
HETATM    7  C11 UNK     1      19.150   2.050  19.170  1.00  0.00     0.075 A 
HETATM    8  C13 UNK     1      19.553   1.465  20.370  1.00  0.00     0.105 A 
HETATM    9  C14 UNK     1      19.861   0.105  20.414  1.00  0.00     0.038 A 
HETATM   10  C9  UNK     1      19.765  -0.669  19.257  1.00  0.00     0.035 A 
BRANCH   6  11
HETATM   11  O2  UNK     1      18.658   1.869  16.851  1.00  0.00    -0.354 OA
HETATM   12  C17 UNK     1      19.551   2.817  16.271  1.00  0.00     0.210 C 
ENDBRANCH   6  11
BRANCH   8  13
HETATM   13  N2  UNK     1      19.651   2.253  21.547  1.00  0.00    -0.116 N 
HETATM   14  O5  UNK     1      18.612   2.777  22.017  1.00  0.00    -0.532 OA
HETATM   15  O6  UNK     1      20.774   2.402  22.087  1.00  0.00    -0.532 OA
ENDBRANCH   8  13
ENDBRANCH   2   5
BRANCH   3  16
HETATM   16  C2  UNK     1      18.462  -2.334  15.226  1.00  0.00     0.108 A 
HETATM   17  C10 UNK     1      19.049  -1.639  14.059  1.00  0.00     0.304 A 
HETATM   18  O1  UNK     1      19.259  -2.406  12.915  1.00  0.00    -0.274 OA
HETATM   19  O4  UNK     1      19.338  -0.448  14.090  1.00  0.00    -0.259 OA
HETATM   20  C4  UNK     1      18.932  -3.775  12.869  1.00  0.00     0.089 A 
HETATM   21  C1  UNK     1      18.381  -4.409  13.977  1.00  0.00    -0.001 A 
HETATM   22  C12 UNK     1      19.180  -4.459  11.680  1.00  0.00     0.038 A 
HETATM   23  C5  UNK     1      18.149  -3.635  15.187  1.00  0.00     0.037 A 
HETATM   24  C8  UNK     1      18.069  -5.768  13.892  1.00  0.00     0.014 A 
HETATM   25  C15 UNK     1      18.311  -6.467  12.706  1.00  0.00     0.001 A 
HETATM   26  C16 UNK     1      18.866  -5.814  11.603  1.00  0.00     0.003 A 
ENDBRANCH   3  16
TORSDOF 4
ENDMDL
MODEL 3
REMARK VINA RESULT:      -9.5      9.197     13.190
REMARK  4 active torsions:
REMARK  status: ('A' for Active; 'I' for Inactive)
REMARK    1  A    between atoms: C6_14  and  O2_2 
REMARK    2  A    between atoms: C3_11  and  N1_7 
REMARK       I    between atoms: C7_15  and  N1_7 
REMARK    3  A    between atoms: C13_21  and  N2_8 
REMARK    4  A    between atoms: C2_10  and  C7_15 
ROOT
HETATM    1  O3  UNK     1      17.614   3.327  32.898  1.00  0.00    -0.267 OA
HETATM    2  N1  UNK     1      18.634   4.841  31.411  1.00  0.00    -0.320 N 
HETATM    3  C7  UNK     1      18.242   3.593  31.875  1.00  0.00     0.262 C 
HETATM    4  H2  UNK     1      19.138   4.895  30.529  1.00  0.00     0.169 HD
ENDROOT
BRANCH   2   5
HETATM    5  C3  UNK     1      18.397   6.100  32.014  1.00  0.00     0.068 A 
HETATM    6  C6  UNK     1      19.317   6.623  32.910  1.00  0.00     0.097 A 
HETATM    7  C11 UNK     1      19.069   7.864  33.495  1.00  0.00     0.075 A 
HETATM    8  C13 UNK     1      17.907   8.566  33.177  1.00  0.00     0.105 A 
HETATM    9  C14 UNK     1      16.990   8.026  32.274  1.00  0.00     0.038 A 
HETATM   10  C9  UNK     1      17.238   6.785  31.688  1.00  0.00     0.035 A 
BRANCH   6  11
HETATM   11  O2  UNK     1      20.459   5.953  33.234  1.00  0.00    -0.354 OA
HETATM   12  C17 UNK     1      21.654   6.350  32.566  1.00  0.00     0.210 C 
ENDBRANCH   6  11
BRANCH   8  13
HETATM   13  N2  UNK     1      17.654   9.830  33.773  1.00  0.00    -0.116 N 
HETATM   14  O5  UNK     1      16.648   9.965  34.510  1.00  0.00    -0.532 OA
HETATM   15  O6  UNK     1      18.446  10.778  33.547  1.00  0.00    -0.532 OA
ENDBRANCH   8  13
ENDBRANCH   2   5
BRANCH   3  16
HETATM   16  C2  UNK     1      18.666   2.511  30.978  1.00  0.00     0.108 A 
HETATM   17  C10 UNK     1      18.622   2.648  29.505  1.00  0.00     0.304 A 
HETATM   18  O1  UNK     1      19.051   1.552  28.761  1.00  0.00    -0.274 OA
HETATM   19  O4  UNK     1      18.229   3.675  28.961  1.00  0.00    -0.259 OA
HETATM   20  C4  UNK     1      19.506   0.370  29.376  1.00  0.00     0.089 A 
HETATM   21  C1  UNK     1      19.539   0.260  30.762  1.00  0.00    -0.001 A 
HETATM   22  C12 UNK     1      19.916  -0.674  28.547  1.00  0.00     0.038 A 
HETATM   23  C5  UNK     1      19.097   1.388  31.567  1.00  0.00     0.037 A 
HETATM   24  C8  UNK     1      19.996  -0.929  31.335  1.00  0.00     0.014 A 
HETATM   25  C15 UNK     1      20.409  -1.985  30.516  1.00  0.00     0.001 A 
HETATM   26  C16 UNK     1      20.370  -1.856  29.127  1.00  0.00     0.003 A 
ENDBRANCH   3  16
TORSDOF 4
ENDMDL
MODEL 4
REMARK VINA RESULT:      -9.3      8.099     13.121
REMARK  4 active torsions:
REMARK  status: ('A' for Active; 'I' for Inactive)
REMARK    1  A    between atoms: C6_14  and  O2_2 
REMARK    2  A    between atoms: C3_11  and  N1_7 
REMARK       I    between atoms: C7_15  and  N1_7 
REMARK    3  A    between atoms: C13_21  and  N2_8 
REMARK    4  A    between atoms: C2_10  and  C7_15 
ROOT
HETATM    1  O3  UNK     1      18.606   4.589  30.215  1.00  0.00    -0.267 OA
HETATM    2  N1  UNK     1      17.799   4.540  32.426  1.00  0.00    -0.320 N 
HETATM    3  C7  UNK     1      18.358   4.011  31.271  1.00  0.00     0.262 C 
HETATM    4  H2  UNK     1      17.672   3.928  33.228  1.00  0.00     0.169 HD
ENDROOT
BRANCH   2   5
HETATM    5  C3  UNK     1      17.384   5.875  32.652  1.00  0.00     0.068 A 
HETATM    6  C6  UNK     1      18.211   6.750  33.340  1.00  0.00     0.097 A 
HETATM    7  C11 UNK     1      17.788   8.061  33.554  1.00  0.00     0.075 A 
HETATM    8  C13 UNK     1      16.547   8.481  33.078  1.00  0.00     0.105 A 
HETATM    9  C14 UNK     1      15.726   7.588  32.388  1.00  0.00     0.038 A 
HETATM   10  C9  UNK     1      16.148   6.277  32.174  1.00  0.00     0.035 A 
BRANCH   6  11
HETATM   11  O2  UNK     1      19.428   6.360  33.813  1.00  0.00    -0.354 OA
HETATM   12  C17 UNK     1      20.559   6.622  32.986  1.00  0.00     0.210 C 
ENDBRANCH   6  11
BRANCH   8  13
HETATM   13  N2  UNK     1      16.116   9.816  33.296  1.00  0.00    -0.116 N 
HETATM   14  O5  UNK     1      16.948  10.666  33.700  1.00  0.00    -0.532 OA
HETATM   15  O6  UNK     1      14.916  10.112  33.078  1.00  0.00    -0.532 OA
ENDBRANCH   8  13
ENDBRANCH   2   5
BRANCH   3  16
HETATM   16  C2  UNK     1      18.663   2.581  31.409  1.00  0.00     0.108 A 
HETATM   17  C10 UNK     1      18.368   1.831  32.650  1.00  0.00     0.304 A 
HETATM   18  O1  UNK     1      18.703   0.479  32.658  1.00  0.00    -0.274 OA
HETATM   19  O4  UNK     1      17.854   2.367  33.625  1.00  0.00    -0.259 OA
HETATM   20  C4  UNK     1      19.293  -0.146  31.543  1.00  0.00     0.089 A 
HETATM   21  C1  UNK     1      19.563   0.577  30.386  1.00  0.00    -0.001 A 
HETATM   22  C12 UNK     1      19.592  -1.504  31.646  1.00  0.00     0.038 A 
HETATM   23  C5  UNK     1      19.225   1.991  30.346  1.00  0.00     0.037 A 
HETATM   24  C8  UNK     1      20.149  -0.079  29.300  1.00  0.00     0.014 A 
HETATM   25  C15 UNK     1      20.456  -1.440  29.390  1.00  0.00     0.001 A 
HETATM   26  C16 UNK     1      20.177  -2.150  30.559  1.00  0.00     0.003 A 
ENDBRANCH   3  16
TORSDOF 4
ENDMDL
MODEL 5
REMARK VINA RESULT:      -9.2     19.329     22.050
REMARK  4 active torsions:
REMARK  status: ('A' for Active; 'I' for Inactive)
REMARK    1  A    between atoms: C6_14  and  O2_2 
REMARK    2  A    between atoms: C3_11  and  N1_7 
REMARK       I    between atoms: C7_15  and  N1_7 
REMARK    3  A    between atoms: C13_21  and  N2_8 
REMARK    4  A    between atoms: C2_10  and  C7_15 
ROOT
HETATM    1  O3  UNK     1      17.050  -1.817  16.948  1.00  0.00    -0.267 OA
HETATM    2  N1  UNK     1      19.244  -0.970  16.836  1.00  0.00    -0.320 N 
HETATM    3  C7  UNK     1      18.152  -1.712  16.412  1.00  0.00     0.262 C 
HETATM    4  H2  UNK     1      20.086  -0.975  16.265  1.00  0.00     0.169 HD
ENDROOT
BRANCH   2   5
HETATM    5  C3  UNK     1      19.341  -0.158  17.992  1.00  0.00     0.068 A 
HETATM    6  C6  UNK     1      19.059   1.197  17.913  1.00  0.00     0.097 A 
HETATM    7  C11 UNK     1      19.158   1.983  19.060  1.00  0.00     0.075 A 
HETATM    8  C13 UNK     1      19.537   1.405  20.271  1.00  0.00     0.105 A 
HETATM    9  C14 UNK     1      19.818   0.039  20.335  1.00  0.00     0.038 A 
HETATM   10  C9  UNK     1      19.718  -0.747  19.188  1.00  0.00     0.035 A 
BRANCH   6  11
HETATM   11  O2  UNK     1      18.687   1.782  16.739  1.00  0.00    -0.354 OA
HETATM   12  C17 UNK     1      19.540   2.802  16.225  1.00  0.00     0.210 C 
ENDBRANCH   6  11
BRANCH   8  13
HETATM   13  N2  UNK     1      19.638   2.205  21.440  1.00  0.00    -0.116 N 
HETATM   14  O5  UNK     1      18.602   2.745  21.900  1.00  0.00    -0.532 OA
HETATM   15  O6  UNK     1      20.761   2.349  21.982  1.00  0.00    -0.532 OA
ENDBRANCH   8  13
ENDBRANCH   2   5
BRANCH   3  16
HETATM   16  C2  UNK     1      18.423  -2.431  15.160  1.00  0.00     0.108 A 
HETATM   17  C10 UNK     1      17.991  -3.830  14.948  1.00  0.00     0.304 A 
HETATM   18  O1  UNK     1      18.306  -4.403  13.719  1.00  0.00    -0.274 OA
HETATM   19  O4  UNK     1      17.384  -4.459  15.809  1.00  0.00    -0.259 OA
HETATM   20  C4  UNK     1      19.002  -3.690  12.724  1.00  0.00     0.089 A 
HETATM   21  C1  UNK     1      19.400  -2.375  12.943  1.00  0.00    -0.001 A 
HETATM   22  C12 UNK     1      19.271  -4.348  11.525  1.00  0.00     0.038 A 
HETATM   23  C5  UNK     1      19.085  -1.748  14.218  1.00  0.00     0.037 A 
HETATM   24  C8  UNK     1      20.088  -1.700  11.931  1.00  0.00     0.014 A 
HETATM   25  C15 UNK     1      20.366  -2.348  10.724  1.00  0.00     0.001 A 
HETATM   26  C16 UNK     1      19.958  -3.668  10.521  1.00  0.00     0.003 A 
ENDBRANCH   3  16
TORSDOF 4
ENDMDL
MODEL 6
REMARK VINA RESULT:      -9.1      1.515      2.128
REMARK  4 active torsions:
REMARK  status: ('A' for Active; 'I' for Inactive)
REMARK    1  A    between atoms: C6_14  and  O2_2 
REMARK    2  A    between atoms: C3_11  and  N1_7 
REMARK       I    between atoms: C7_15  and  N1_7 
REMARK    3  A    between atoms: C13_21  and  N2_8 
REMARK    4  A    between atoms: C2_10  and  C7_15 
ROOT
HETATM    1  O3  UNK     1      21.386  -4.228  37.250  1.00  0.00    -0.267 OA
HETATM    2  N1  UNK     1      19.768  -5.258  35.885  1.00  0.00    -0.320 N 
HETATM    3  C7  UNK     1      20.420  -4.193  36.489  1.00  0.00     0.262 C 
HETATM    4  H2  UNK     1      18.988  -5.060  35.262  1.00  0.00     0.169 HD
ENDROOT
BRANCH   2   5
HETATM    5  C3  UNK     1      20.068  -6.637  36.007  1.00  0.00     0.068 A 
HETATM    6  C6  UNK     1      19.797  -7.302  37.193  1.00  0.00     0.097 A 
HETATM    7  C11 UNK     1      20.099  -8.659  37.297  1.00  0.00     0.075 A 
HETATM    8  C13 UNK     1      20.665  -9.334  36.217  1.00  0.00     0.105 A 
HETATM    9  C14 UNK     1      20.932  -8.650  35.029  1.00  0.00     0.038 A 
HETATM   10  C9  UNK     1      20.630  -7.293  34.925  1.00  0.00     0.035 A 
BRANCH   6  11
HETATM   11  O2  UNK     1      19.244  -6.661  38.262  1.00  0.00    -0.354 OA
HETATM   12  C17 UNK     1      19.993  -6.662  39.475  1.00  0.00     0.210 C 
ENDBRANCH   6  11
BRANCH   8  13
HETATM   13  N2  UNK     1      20.972 -10.716  36.323  1.00  0.00    -0.116 N 
HETATM   14  O5  UNK     1      21.535 -11.290  35.359  1.00  0.00    -0.532 OA
HETATM   15  O6  UNK     1      20.673 -11.326  37.378  1.00  0.00    -0.532 OA
ENDBRANCH   8  13
ENDBRANCH   2   5
BRANCH   3  16
HETATM   16  C2  UNK     1      19.826  -2.901  36.124  1.00  0.00     0.108 A 
HETATM   17  C10 UNK     1      20.006  -2.305  34.781  1.00  0.00     0.304 A 
HETATM   18  O1  UNK     1      19.393  -1.075  34.556  1.00  0.00    -0.274 OA
HETATM   19  O4  UNK     1      20.661  -2.862  33.907  1.00  0.00    -0.259 OA
HETATM   20  C4  UNK     1      18.638  -0.427  35.552  1.00  0.00     0.089 A 
HETATM   21  C1  UNK     1      18.482  -1.004  36.809  1.00  0.00    -0.001 A 
HETATM   22  C12 UNK     1      18.062   0.801  35.232  1.00  0.00     0.038 A 
HETATM   23  C5  UNK     1      19.110  -2.289  37.076  1.00  0.00     0.037 A 
HETATM   24  C8  UNK     1      17.725  -0.331  37.771  1.00  0.00     0.014 A 
HETATM   25  C15 UNK     1      17.143   0.902  37.464  1.00  0.00     0.001 A 
HETATM   26  C16 UNK     1      17.309   1.465  36.198  1.00  0.00     0.003 A 
ENDBRANCH   3  16
TORSDOF 4
ENDMDL
MODEL 7
REMARK VINA RESULT:      -9.0      2.305      8.161
REMARK  4 active torsions:
REMARK  status: ('A' for Active; 'I' for Inactive)
REMARK    1  A    between atoms: C6_14  and  O2_2 
REMARK    2  A    between atoms: C3_11  and  N1_7 
REMARK       I    between atoms: C7_15  and  N1_7 
REMARK    3  A    between atoms: C13_21  and  N2_8 
REMARK    4  A    between atoms: C2_10  and  C7_15 
ROOT
HETATM    1  O3  UNK     1      21.100  -3.938  37.668  1.00  0.00    -0.267 OA
HETATM    2  N1  UNK     1      19.025  -3.839  36.560  1.00  0.00    -0.320 N 
HETATM    3  C7  UNK     1      20.135  -4.461  37.115  1.00  0.00     0.262 C 
HETATM    4  H2  UNK     1      18.297  -4.419  36.151  1.00  0.00     0.169 HD
ENDROOT
BRANCH   2   5
HETATM    5  C3  UNK     1      18.750  -2.450  36.505  1.00  0.00     0.068 A 
HETATM    6  C6  UNK     1      19.351  -1.663  35.535  1.00  0.00     0.097 A 
HETATM    7  C11 UNK     1      19.071  -0.298  35.495  1.00  0.00     0.075 A 
HETATM    8  C13 UNK     1      18.193   0.262  36.422  1.00  0.00     0.105 A 
HETATM    9  C14 UNK     1      17.597  -0.544  37.393  1.00  0.00     0.038 A 
HETATM   10  C9  UNK     1      17.877  -1.909  37.434  1.00  0.00     0.035 A 
BRANCH   6  11
HETATM   11  O2  UNK     1      20.212  -2.191  34.619  1.00  0.00    -0.354 OA
HETATM   12  C17 UNK     1      19.882  -2.014  33.244  1.00  0.00     0.210 C 
ENDBRANCH   6  11
BRANCH   8  13
HETATM   13  N2  UNK     1      17.907   1.652  36.381  1.00  0.00    -0.116 N 
HETATM   14  O5  UNK     1      17.027   2.115  37.147  1.00  0.00    -0.532 OA
HETATM   15  O6  UNK     1      18.543   2.380  35.581  1.00  0.00    -0.532 OA
ENDBRANCH   8  13
ENDBRANCH   2   5
BRANCH   3  16
HETATM   16  C2  UNK     1      20.072  -5.922  36.987  1.00  0.00     0.108 A 
HETATM   17  C10 UNK     1      20.180  -6.601  35.676  1.00  0.00     0.304 A 
HETATM   18  O1  UNK     1      20.106  -7.991  35.684  1.00  0.00    -0.274 OA
HETATM   19  O4  UNK     1      20.326  -5.975  34.631  1.00  0.00    -0.259 OA
HETATM   20  C4  UNK     1      19.939  -8.719  36.878  1.00  0.00     0.089 A 
HETATM   21  C1  UNK     1      19.839  -8.062  38.099  1.00  0.00    -0.001 A 
HETATM   22  C12 UNK     1      19.877 -10.109  36.784  1.00  0.00     0.038 A 
HETATM   23  C5  UNK     1      19.912  -6.609  38.124  1.00  0.00     0.037 A 
HETATM   24  C8  UNK     1      19.674  -8.819  39.262  1.00  0.00     0.014 A 
HETATM   25  C15 UNK     1      19.609 -10.214  39.184  1.00  0.00     0.001 A 
HETATM   26  C16 UNK     1      19.712 -10.856  37.949  1.00  0.00     0.003 A 
ENDBRANCH   3  16
TORSDOF 4
ENDMDL
MODEL 8
REMARK VINA RESULT:      -8.9      8.181     13.154
REMARK  4 active torsions:
REMARK  status: ('A' for Active; 'I' for Inactive)
REMARK    1  A    between atoms: C6_14  and  O2_2 
REMARK    2  A    between atoms: C3_11  and  N1_7 
REMARK       I    between atoms: C7_15  and  N1_7 
REMARK    3  A    between atoms: C13_21  and  N2_8 
REMARK    4  A    between atoms: C2_10  and  C7_15 
ROOT
HETATM    1  O3  UNK     1      18.341   4.777  30.375  1.00  0.00    -0.267 OA
HETATM    2  N1  UNK     1      18.470   4.843  32.725  1.00  0.00    -0.320 N 
HETATM    3  C7  UNK     1      18.488   4.244  31.473  1.00  0.00     0.262 C 
HETATM    4  H2  UNK     1      18.626   4.260  33.544  1.00  0.00     0.169 HD
ENDROOT
BRANCH   2   5
HETATM    5  C3  UNK     1      18.277   6.214  33.024  1.00  0.00     0.068 A 
HETATM    6  C6  UNK     1      17.035   6.797  32.828  1.00  0.00     0.097 A 
HETATM    7  C11 UNK     1      16.862   8.148  33.127  1.00  0.00     0.075 A 
HETATM    8  C13 UNK     1      17.930   8.897  33.618  1.00  0.00     0.105 A 
HETATM    9  C14 UNK     1      19.175   8.295  33.810  1.00  0.00     0.038 A 
HETATM   10  C9  UNK     1      19.348   6.944  33.511  1.00  0.00     0.035 A 
BRANCH   6  11
HETATM   11  O2  UNK     1      15.978   6.083  32.348  1.00  0.00    -0.354 OA
HETATM   12  C17 UNK     1      14.792   6.811  32.038  1.00  0.00     0.210 C 
ENDBRANCH   6  11
BRANCH   8  13
HETATM   13  N2  UNK     1      17.753  10.272  33.923  1.00  0.00    -0.116 N 
HETATM   14  O5  UNK     1      18.650  11.088  33.597  1.00  0.00    -0.532 OA
HETATM   15  O6  UNK     1      16.705  10.635  34.509  1.00  0.00    -0.532 OA
ENDBRANCH   8  13
ENDBRANCH   2   5
BRANCH   3  16
HETATM   16  C2  UNK     1      18.718   2.796  31.556  1.00  0.00     0.108 A 
HETATM   17  C10 UNK     1      18.358   2.010  32.757  1.00  0.00     0.304 A 
HETATM   18  O1  UNK     1      18.625   0.645  32.715  1.00  0.00    -0.274 OA
HETATM   19  O4  UNK     1      17.850   2.531  33.744  1.00  0.00    -0.259 OA
HETATM   20  C4  UNK     1      19.207   0.036  31.586  1.00  0.00     0.089 A 
HETATM   21  C1  UNK     1      19.539   0.793  30.467  1.00  0.00    -0.001 A 
HETATM   22  C12 UNK     1      19.435  -1.338  31.637  1.00  0.00     0.038 A 
HETATM   23  C5  UNK     1      19.273   2.223  30.480  1.00  0.00     0.037 A 
HETATM   24  C8  UNK     1      20.115   0.153  29.366  1.00  0.00     0.014 A 
HETATM   25  C15 UNK     1      20.351  -1.224  29.403  1.00  0.00     0.001 A 
HETATM   26  C16 UNK     1      20.011  -1.968  30.535  1.00  0.00     0.003 A 
ENDBRANCH   3  16
TORSDOF 4
ENDMDL
MODEL 9
REMARK VINA RESULT:      -8.8      7.758     10.802
REMARK  4 active torsions:
REMARK  status: ('A' for Active; 'I' for Inactive)
REMARK    1  A    between atoms: C6_14  and  O2_2 
REMARK    2  A    between atoms: C3_11  and  N1_7 
REMARK       I    between atoms: C7_15  and  N1_7 
REMARK    3  A    between atoms: C13_21  and  N2_8 
REMARK    4  A    between atoms: C2_10  and  C7_15 
ROOT
HETATM    1  O3  UNK     1      19.641   5.357  31.037  1.00  0.00    -0.267 OA
HETATM    2  N1  UNK     1      18.066   3.744  31.716  1.00  0.00    -0.320 N 
HETATM    3  C7  UNK     1      18.655   5.000  31.679  1.00  0.00     0.262 C 
HETATM    4  H2  UNK     1      17.236   3.614  32.290  1.00  0.00     0.169 HD
ENDROOT
BRANCH   2   5
HETATM    5  C3  UNK     1      18.468   2.580  31.017  1.00  0.00     0.068 A 
HETATM    6  C6  UNK     1      18.858   1.451  31.720  1.00  0.00     0.097 A 
HETATM    7  C11 UNK     1      19.252   0.313  31.018  1.00  0.00     0.075 A 
HETATM    8  C13 UNK     1      19.251   0.318  29.623  1.00  0.00     0.105 A 
HETATM    9  C14 UNK     1      18.856   1.463  28.930  1.00  0.00     0.038 A 
HETATM   10  C9  UNK     1      18.462   2.601  29.633  1.00  0.00     0.035 A 
BRANCH   6  11
HETATM   11  O2  UNK     1      18.867   1.425  33.083  1.00  0.00    -0.354 OA
HETATM   12  C17 UNK     1      18.343   0.258  33.712  1.00  0.00     0.210 C 
ENDBRANCH   6  11
BRANCH   8  13
HETATM   13  N2  UNK     1      19.652  -0.841  28.908  1.00  0.00    -0.116 N 
HETATM   14  O5  UNK     1      19.414  -0.909  27.677  1.00  0.00    -0.532 OA
HETATM   15  O6  UNK     1      20.235  -1.765  29.525  1.00  0.00    -0.532 OA
ENDBRANCH   8  13
ENDBRANCH   2   5
BRANCH   3  16
HETATM   16  C2  UNK     1      17.956   5.965  32.537  1.00  0.00     0.108 A 
HETATM   17  C10 UNK     1      18.524   6.430  33.822  1.00  0.00     0.304 A 
HETATM   18  O1  UNK     1      17.767   7.347  34.546  1.00  0.00    -0.274 OA
HETATM   19  O4  UNK     1      19.609   6.031  34.234  1.00  0.00    -0.259 OA
HETATM   20  C4  UNK     1      16.521   7.812  34.081  1.00  0.00     0.089 A 
HETATM   21  C1  UNK     1      16.004   7.362  32.871  1.00  0.00    -0.001 A 
HETATM   22  C12 UNK     1      15.837   8.731  34.876  1.00  0.00     0.038 A 
HETATM   23  C5  UNK     1      16.772   6.404  32.092  1.00  0.00     0.037 A 
HETATM   24  C8  UNK     1      14.765   7.847  32.444  1.00  0.00     0.014 A 
HETATM   25  C15 UNK     1      14.067   8.767  33.231  1.00  0.00     0.001 A 
HETATM   26  C16 UNK     1      14.602   9.209  34.443  1.00  0.00     0.003 A 
ENDBRANCH   3  16
TORSDOF 4
ENDMDL
MODEL 10
REMARK VINA RESULT:      -8.5      2.871      8.706
REMARK  4 active torsions:
REMARK  status: ('A' for Active; 'I' for Inactive)
REMARK    1  A    between atoms: C6_14  and  O2_2 
REMARK    2  A    between atoms: C3_11  and  N1_7 
REMARK       I    between atoms: C7_15  and  N1_7 
REMARK    3  A    between atoms: C13_21  and  N2_8 
REMARK    4  A    between atoms: C2_10  and  C7_15 
ROOT
HETATM    1  O3  UNK     1      20.732  -3.154  34.416  1.00  0.00    -0.267 OA
HETATM    2  N1  UNK     1      19.000  -2.221  35.708  1.00  0.00    -0.320 N 
HETATM    3  C7  UNK     1      19.934  -3.183  35.350  1.00  0.00     0.262 C 
HETATM    4  H2  UNK     1      18.419  -2.389  36.526  1.00  0.00     0.169 HD
ENDROOT
BRANCH   2   5
HETATM    5  C3  UNK     1      18.751  -0.979  35.074  1.00  0.00     0.068 A 
HETATM    6  C6  UNK     1      18.526   0.156  35.837  1.00  0.00     0.097 A 
HETATM    7  C11 UNK     1      18.283   1.370  35.197  1.00  0.00     0.075 A 
HETATM    8  C13 UNK     1      18.269   1.435  33.804  1.00  0.00     0.105 A 
HETATM    9  C14 UNK     1      18.497   0.283  33.050  1.00  0.00     0.038 A 
HETATM   10  C9  UNK     1      18.740  -0.932  33.690  1.00  0.00     0.035 A 
BRANCH   6  11
HETATM   11  O2  UNK     1      18.536   0.114  37.199  1.00  0.00    -0.354 OA
HETATM   12  C17 UNK     1      17.596   0.944  37.879  1.00  0.00     0.210 C 
ENDBRANCH   6  11
BRANCH   8  13
HETATM   13  N2  UNK     1      18.022   2.672  33.152  1.00  0.00    -0.116 N 
HETATM   14  O5  UNK     1      18.224   3.741  33.778  1.00  0.00    -0.532 OA
HETATM   15  O6  UNK     1      17.608   2.663  31.967  1.00  0.00    -0.532 OA
ENDBRANCH   8  13
ENDBRANCH   2   5
BRANCH   3  16
HETATM   16  C2  UNK     1      19.904  -4.345  36.248  1.00  0.00     0.108 A 
HETATM   17  C10 UNK     1      20.342  -4.259  37.659  1.00  0.00     0.304 A 
HETATM   18  O1  UNK     1      20.267  -5.429  38.409  1.00  0.00    -0.274 OA
HETATM   19  O4  UNK     1      20.753  -3.212  38.148  1.00  0.00    -0.259 OA
HETATM   20  C4  UNK     1      19.796  -6.636  37.857  1.00  0.00     0.089 A 
HETATM   21  C1  UNK     1      19.389  -6.696  36.528  1.00  0.00    -0.001 A 
HETATM   22  C12 UNK     1      19.756  -7.755  38.688  1.00  0.00     0.038 A 
HETATM   23  C5  UNK     1      19.457  -5.490  35.718  1.00  0.00     0.037 A 
HETATM   24  C8  UNK     1      18.928  -7.912  36.017  1.00  0.00     0.014 A 
HETATM   25  C15 UNK     1      18.883  -9.042  36.838  1.00  0.00     0.001 A 
HETATM   26  C16 UNK     1      19.295  -8.964  38.170  1.00  0.00     0.003 A 
ENDBRANCH   3  16
TORSDOF 4
ENDMDL
