MODEL 1
REMARK VINA RESULT:      -8.5      0.000      0.000
REMARK  3 active torsions:
REMARK  status: ('A' for Active; 'I' for Inactive)
REMARK    1  A    between atoms: C5_11  and  N1_5 
REMARK       I    between atoms: C6_12  and  N1_5 
REMARK    2  A    between atoms: C2_8  and  C6_12 
REMARK    3  A    between atoms: C10_16  and  C5_11 
ROOT
HETATM    1 Br1  UNK     1      18.275   2.308  29.065  1.00  0.00    -0.051 Br
HETATM    2  O1  UNK     1      20.870  -2.931  30.687  1.00  0.00    -0.274 OA
HETATM    3  O3  UNK     1      21.577  -4.377  32.309  1.00  0.00    -0.259 OA
HETATM    4  C1  UNK     1      19.821  -0.832  31.324  1.00  0.00     0.000 A 
HETATM    5  C2  UNK     1      20.570  -2.362  33.046  1.00  0.00     0.108 A 
HETATM    6  C3  UNK     1      20.264  -1.708  30.338  1.00  0.00     0.089 A 
HETATM    7  C4  UNK     1      19.994  -1.199  32.721  1.00  0.00     0.037 A 
HETATM    8  C7  UNK     1      19.225   0.371  30.939  1.00  0.00     0.033 A 
HETATM    9  C8  UNK     1      21.049  -3.309  32.015  1.00  0.00     0.304 A 
HETATM   10  C9  UNK     1      20.127  -1.417  28.983  1.00  0.00     0.039 A 
HETATM   11  C11 UNK     1      19.082   0.677  29.581  1.00  0.00     0.011 A 
HETATM   12  C12 UNK     1      19.533  -0.215  28.606  1.00  0.00     0.022 A 
ENDROOT
BRANCH   5  13
HETATM   13  C6  UNK     1      20.700  -2.643  34.482  1.00  0.00     0.258 C 
HETATM   14  O2  UNK     1      21.491  -2.013  35.180  1.00  0.00    -0.267 OA
HETATM   15  N1  UNK     1      19.861  -3.657  34.909  1.00  0.00    -0.351 N 
HETATM   16  H5  UNK     1      19.253  -4.131  34.248  1.00  0.00     0.163 HD
BRANCH  15  17
HETATM   17  C5  UNK     1      19.812  -4.113  36.279  1.00  0.00     0.182 C 
BRANCH  17  18
HETATM   18  C10 UNK     1      19.900  -5.609  36.313  1.00  0.00     0.051 A 
HETATM   19  N2  UNK     1      20.366  -6.207  35.197  1.00  0.00    -0.264 NA
HETATM   20  C15 UNK     1      20.442  -7.556  35.232  1.00  0.00     0.117 A 
HETATM   21  C16 UNK     1      20.077  -8.325  36.326  1.00  0.00     0.019 A 
HETATM   22  C14 UNK     1      19.602  -7.667  37.454  1.00  0.00     0.003 A 
HETATM   23  C13 UNK     1      19.509  -6.280  37.456  1.00  0.00     0.029 A 
ENDBRANCH  17  18
ENDBRANCH  15  17
ENDBRANCH   5  13
TORSDOF 3
ENDMDL
MODEL 2
REMARK VINA RESULT:      -8.3      5.756      9.207
REMARK  3 active torsions:
REMARK  status: ('A' for Active; 'I' for Inactive)
REMARK    1  A    between atoms: C5_11  and  N1_5 
REMARK       I    between atoms: C6_12  and  N1_5 
REMARK    2  A    between atoms: C2_8  and  C6_12 
REMARK    3  A    between atoms: C10_16  and  C5_11 
ROOT
HETATM    1 Br1  UNK     1      21.283  -3.176  32.809  1.00  0.00    -0.051 Br
HETATM    2  O1  UNK     1      18.965   0.508  28.582  1.00  0.00    -0.274 OA
HETATM    3  O3  UNK     1      18.060   2.518  27.982  1.00  0.00    -0.259 OA
HETATM    4  C1  UNK     1      19.602   0.121  30.896  1.00  0.00     0.000 A 
HETATM    5  C2  UNK     1      18.643   2.253  30.264  1.00  0.00     0.108 A 
HETATM    6  C3  UNK     1      19.499  -0.327  29.583  1.00  0.00     0.089 A 
HETATM    7  C4  UNK     1      19.150   1.465  31.218  1.00  0.00     0.037 A 
HETATM    8  C7  UNK     1      20.138  -0.736  31.860  1.00  0.00     0.033 A 
HETATM    9  C8  UNK     1      18.523   1.798  28.860  1.00  0.00     0.304 A 
HETATM   10  C9  UNK     1      19.916  -1.602  29.207  1.00  0.00     0.039 A 
HETATM   11  C11 UNK     1      20.560  -2.020  31.499  1.00  0.00     0.011 A 
HETATM   12  C12 UNK     1      20.448  -2.452  30.175  1.00  0.00     0.022 A 
ENDROOT
BRANCH   5  13
HETATM   13  C6  UNK     1      18.213   3.592  30.687  1.00  0.00     0.258 C 
HETATM   14  O2  UNK     1      17.435   3.738  31.627  1.00  0.00    -0.267 OA
HETATM   15  N1  UNK     1      18.770   4.602  29.923  1.00  0.00    -0.351 N 
HETATM   16  H5  UNK     1      19.391   4.377  29.152  1.00  0.00     0.163 HD
BRANCH  15  17
HETATM   17  C5  UNK     1      18.494   6.003  30.147  1.00  0.00     0.182 C 
BRANCH  17  18
HETATM   18  C10 UNK     1      19.025   6.410  31.488  1.00  0.00     0.051 A 
HETATM   19  N2  UNK     1      18.151   7.014  32.321  1.00  0.00    -0.264 NA
HETATM   20  C15 UNK     1      18.636   7.380  33.528  1.00  0.00     0.117 A 
HETATM   21  C16 UNK     1      19.944   7.169  33.935  1.00  0.00     0.019 A 
HETATM   22  C14 UNK     1      20.810   6.544  33.045  1.00  0.00     0.003 A 
HETATM   23  C13 UNK     1      20.348   6.153  31.793  1.00  0.00     0.029 A 
ENDBRANCH  17  18
ENDBRANCH  15  17
ENDBRANCH   5  13
TORSDOF 3
ENDMDL
MODEL 3
REMARK VINA RESULT:      -8.2      4.517      8.539
REMARK  3 active torsions:
REMARK  status: ('A' for Active; 'I' for Inactive)
REMARK    1  A    between atoms: C5_11  and  N1_5 
REMARK       I    between atoms: C6_12  and  N1_5 
REMARK    2  A    between atoms: C2_8  and  C6_12 
REMARK    3  A    between atoms: C10_16  and  C5_11 
ROOT
HETATM    1 Br1  UNK     1      20.131  -2.775  35.704  1.00  0.00    -0.051 Br
HETATM    2  O1  UNK     1      20.484  -1.853  29.718  1.00  0.00    -0.274 OA
HETATM    3  O3  UNK     1      20.102  -0.541  27.886  1.00  0.00    -0.259 OA
HETATM    4  C1  UNK     1      19.817  -1.064  31.919  1.00  0.00     0.000 A 
HETATM    5  C2  UNK     1      19.411   0.329  29.980  1.00  0.00     0.108 A 
HETATM    6  C3  UNK     1      20.389  -2.041  31.111  1.00  0.00     0.089 A 
HETATM    7  C4  UNK     1      19.319   0.156  31.303  1.00  0.00     0.037 A 
HETATM    8  C7  UNK     1      19.742  -1.287  33.296  1.00  0.00     0.033 A 
HETATM    9  C8  UNK     1      20.015  -0.696  29.100  1.00  0.00     0.304 A 
HETATM   10  C9  UNK     1      20.887  -3.231  31.638  1.00  0.00     0.039 A 
HETATM   11  C11 UNK     1      20.237  -2.477  33.840  1.00  0.00     0.011 A 
HETATM   12  C12 UNK     1      20.808  -3.447  33.012  1.00  0.00     0.022 A 
ENDROOT
BRANCH   5  13
HETATM   13  C6  UNK     1      18.879   1.592  29.452  1.00  0.00     0.258 C 
HETATM   14  O2  UNK     1      18.254   1.621  28.393  1.00  0.00    -0.267 OA
HETATM   15  N1  UNK     1      19.167   2.676  30.260  1.00  0.00    -0.351 N 
HETATM   16  H5  UNK     1      19.708   2.551  31.111  1.00  0.00     0.163 HD
BRANCH  15  17
HETATM   17  C5  UNK     1      18.752   4.025  29.947  1.00  0.00     0.182 C 
BRANCH  17  18
HETATM   18  C10 UNK     1      18.801   4.865  31.187  1.00  0.00     0.051 A 
HETATM   19  N2  UNK     1      17.813   4.667  32.085  1.00  0.00    -0.264 NA
HETATM   20  C15 UNK     1      17.862   5.428  33.201  1.00  0.00     0.117 A 
HETATM   21  C16 UNK     1      18.847   6.369  33.455  1.00  0.00     0.019 A 
HETATM   22  C14 UNK     1      19.844   6.541  32.503  1.00  0.00     0.003 A 
HETATM   23  C13 UNK     1      19.828   5.777  31.341  1.00  0.00     0.029 A 
ENDBRANCH  17  18
ENDBRANCH  15  17
ENDBRANCH   5  13
TORSDOF 3
ENDMDL
MODEL 4
REMARK VINA RESULT:      -8.2     26.340     28.211
REMARK  3 active torsions:
REMARK  status: ('A' for Active; 'I' for Inactive)
REMARK    1  A    between atoms: C5_11  and  N1_5 
REMARK       I    between atoms: C6_12  and  N1_5 
REMARK    2  A    between atoms: C2_8  and  C6_12 
REMARK    3  A    between atoms: C10_16  and  C5_11 
ROOT
HETATM    1 Br1  UNK     1      15.977  13.899   7.199  1.00  0.00    -0.051 Br
HETATM    2  O1  UNK     1      17.044   8.516   9.788  1.00  0.00    -0.274 OA
HETATM    3  O3  UNK     1      16.315   6.455  10.453  1.00  0.00    -0.259 OA
HETATM    4  C1  UNK     1      15.496  10.041   8.697  1.00  0.00     0.000 A 
HETATM    5  C2  UNK     1      14.721   7.857   9.401  1.00  0.00     0.108 A 
HETATM    6  C3  UNK     1      16.769   9.758   9.183  1.00  0.00     0.089 A 
HETATM    7  C4  UNK     1      14.454   9.035   8.825  1.00  0.00     0.037 A 
HETATM    8  C7  UNK     1      15.263  11.284   8.102  1.00  0.00     0.033 A 
HETATM    9  C8  UNK     1      16.067   7.534   9.925  1.00  0.00     0.304 A 
HETATM   10  C9  UNK     1      17.811  10.678   9.090  1.00  0.00     0.039 A 
HETATM   11  C11 UNK     1      16.299  12.218   8.003  1.00  0.00     0.011 A 
HETATM   12  C12 UNK     1      17.570  11.915   8.496  1.00  0.00     0.022 A 
ENDROOT
BRANCH   5  13
HETATM   13  C6  UNK     1      13.604   6.907   9.484  1.00  0.00     0.258 C 
HETATM   14  O2  UNK     1      12.792   6.966  10.405  1.00  0.00    -0.267 OA
HETATM   15  N1  UNK     1      13.600   5.992   8.448  1.00  0.00    -0.351 N 
HETATM   16  H5  UNK     1      14.329   6.014   7.742  1.00  0.00     0.163 HD
BRANCH  15  17
HETATM   17  C5  UNK     1      12.600   4.955   8.317  1.00  0.00     0.182 C 
BRANCH  17  18
HETATM   18  C10 UNK     1      11.393   5.508   7.622  1.00  0.00     0.051 A 
HETATM   19  N2  UNK     1      10.229   5.446   8.302  1.00  0.00    -0.264 NA
HETATM   20  C15 UNK     1       9.143   5.944   7.670  1.00  0.00     0.117 A 
HETATM   21  C16 UNK     1       9.171   6.499   6.401  1.00  0.00     0.019 A 
HETATM   22  C14 UNK     1      10.391   6.542   5.736  1.00  0.00     0.003 A 
HETATM   23  C13 UNK     1      11.531   6.038   6.353  1.00  0.00     0.029 A 
ENDBRANCH  17  18
ENDBRANCH  15  17
ENDBRANCH   5  13
TORSDOF 3
ENDMDL
MODEL 5
REMARK VINA RESULT:      -8.2      6.467      9.213
REMARK  3 active torsions:
REMARK  status: ('A' for Active; 'I' for Inactive)
REMARK    1  A    between atoms: C5_11  and  N1_5 
REMARK       I    between atoms: C6_12  and  N1_5 
REMARK    2  A    between atoms: C2_8  and  C6_12 
REMARK    3  A    between atoms: C10_16  and  C5_11 
ROOT
HETATM    1 Br1  UNK     1      15.486  10.863  33.486  1.00  0.00    -0.051 Br
HETATM    2  O1  UNK     1      17.685   5.253  34.200  1.00  0.00    -0.274 OA
HETATM    3  O3  UNK     1      18.643   3.372  33.328  1.00  0.00    -0.259 OA
HETATM    4  C1  UNK     1      17.189   7.134  32.742  1.00  0.00     0.000 A 
HETATM    5  C2  UNK     1      18.204   5.141  31.813  1.00  0.00     0.108 A 
HETATM    6  C3  UNK     1      17.180   6.554  34.007  1.00  0.00     0.089 A 
HETATM    7  C4  UNK     1      17.726   6.376  31.623  1.00  0.00     0.037 A 
HETATM    8  C7  UNK     1      16.680   8.427  32.590  1.00  0.00     0.033 A 
HETATM    9  C8  UNK     1      18.206   4.503  33.149  1.00  0.00     0.304 A 
HETATM   10  C9  UNK     1      16.681   7.227  35.119  1.00  0.00     0.039 A 
HETATM   11  C11 UNK     1      16.174   9.114  33.698  1.00  0.00     0.011 A 
HETATM   12  C12 UNK     1      16.175   8.515  34.960  1.00  0.00     0.022 A 
ENDROOT
BRANCH   5  13
HETATM   13  C6  UNK     1      18.725   4.456  30.624  1.00  0.00     0.258 C 
HETATM   14  O2  UNK     1      19.514   5.017  29.867  1.00  0.00    -0.267 OA
HETATM   15  N1  UNK     1      18.230   3.172  30.482  1.00  0.00    -0.351 N 
HETATM   16  H5  UNK     1      17.564   2.803  31.155  1.00  0.00     0.163 HD
BRANCH  15  17
HETATM   17  C5  UNK     1      18.595   2.303  29.386  1.00  0.00     0.182 C 
BRANCH  17  18
HETATM   18  C10 UNK     1      19.159   1.024  29.927  1.00  0.00     0.051 A 
HETATM   19  N2  UNK     1      18.838   0.720  31.202  1.00  0.00    -0.264 NA
HETATM   20  C15 UNK     1      19.351  -0.434  31.685  1.00  0.00     0.117 A 
HETATM   21  C16 UNK     1      20.160  -1.289  30.954  1.00  0.00     0.019 A 
HETATM   22  C14 UNK     1      20.466  -0.936  29.645  1.00  0.00     0.003 A 
HETATM   23  C13 UNK     1      19.958   0.244  29.112  1.00  0.00     0.029 A 
ENDBRANCH  17  18
ENDBRANCH  15  17
ENDBRANCH   5  13
TORSDOF 3
ENDMDL
MODEL 6
REMARK VINA RESULT:      -8.0      7.466      9.355
REMARK  3 active torsions:
REMARK  status: ('A' for Active; 'I' for Inactive)
REMARK    1  A    between atoms: C5_11  and  N1_5 
REMARK       I    between atoms: C6_12  and  N1_5 
REMARK    2  A    between atoms: C2_8  and  C6_12 
REMARK    3  A    between atoms: C10_16  and  C5_11 
ROOT
HETATM    1 Br1  UNK     1      14.145  10.359  34.692  1.00  0.00    -0.051 Br
HETATM    2  O1  UNK     1      19.403   7.803  33.069  1.00  0.00    -0.274 OA
HETATM    3  O3  UNK     1      20.588   5.985  32.355  1.00  0.00    -0.259 OA
HETATM    4  C1  UNK     1      17.006   7.607  33.428  1.00  0.00     0.000 A 
HETATM    5  C2  UNK     1      18.260   5.678  32.672  1.00  0.00     0.108 A 
HETATM    6  C3  UNK     1      18.169   8.371  33.441  1.00  0.00     0.089 A 
HETATM    7  C4  UNK     1      17.085   6.212  33.024  1.00  0.00     0.037 A 
HETATM    8  C7  UNK     1      15.801   8.207  33.803  1.00  0.00     0.033 A 
HETATM    9  C8  UNK     1      19.509   6.471  32.678  1.00  0.00     0.304 A 
HETATM   10  C9  UNK     1      18.161   9.713  33.816  1.00  0.00     0.039 A 
HETATM   11  C11 UNK     1      15.779   9.553  34.184  1.00  0.00     0.011 A 
HETATM   12  C12 UNK     1      16.956  10.304  34.190  1.00  0.00     0.022 A 
ENDROOT
BRANCH   5  13
HETATM   13  C6  UNK     1      18.238   4.263  32.280  1.00  0.00     0.258 C 
HETATM   14  O2  UNK     1      18.281   3.935  31.096  1.00  0.00    -0.267 OA
HETATM   15  N1  UNK     1      18.163   3.406  33.363  1.00  0.00    -0.351 N 
HETATM   16  H5  UNK     1      18.114   3.777  34.307  1.00  0.00     0.163 HD
BRANCH  15  17
HETATM   17  C5  UNK     1      18.125   1.967  33.228  1.00  0.00     0.182 C 
BRANCH  17  18
HETATM   18  C10 UNK     1      17.552   1.362  34.473  1.00  0.00     0.051 A 
HETATM   19  N2  UNK     1      16.400   0.673  34.329  1.00  0.00    -0.264 NA
HETATM   20  C15 UNK     1      15.887   0.130  35.456  1.00  0.00     0.117 A 
HETATM   21  C16 UNK     1      16.471   0.243  36.707  1.00  0.00     0.019 A 
HETATM   22  C14 UNK     1      17.657   0.962  36.809  1.00  0.00     0.003 A 
HETATM   23  C13 UNK     1      18.216   1.536  35.672  1.00  0.00     0.029 A 
ENDBRANCH  17  18
ENDBRANCH  15  17
ENDBRANCH   5  13
TORSDOF 3
ENDMDL
MODEL 7
REMARK VINA RESULT:      -8.0     26.206     27.822
REMARK  3 active torsions:
REMARK  status: ('A' for Active; 'I' for Inactive)
REMARK    1  A    between atoms: C5_11  and  N1_5 
REMARK       I    between atoms: C6_12  and  N1_5 
REMARK    2  A    between atoms: C2_8  and  C6_12 
REMARK    3  A    between atoms: C10_16  and  C5_11 
ROOT
HETATM    1 Br1  UNK     1      17.139  10.280  10.118  1.00  0.00    -0.051 Br
HETATM    2  O1  UNK     1      14.117   5.149   8.953  1.00  0.00    -0.274 OA
HETATM    3  O3  UNK     1      12.283   4.073   8.118  1.00  0.00    -0.259 OA
HETATM    4  C1  UNK     1      14.231   7.576   8.857  1.00  0.00     0.000 A 
HETATM    5  C2  UNK     1      12.285   6.438   7.972  1.00  0.00     0.108 A 
HETATM    6  C3  UNK     1      14.797   6.355   9.213  1.00  0.00     0.089 A 
HETATM    7  C4  UNK     1      12.927   7.586   8.215  1.00  0.00     0.037 A 
HETATM    8  C7  UNK     1      14.937   8.751   9.130  1.00  0.00     0.033 A 
HETATM    9  C8  UNK     1      12.867   5.128   8.340  1.00  0.00     0.304 A 
HETATM   10  C9  UNK     1      16.044   6.276   9.829  1.00  0.00     0.039 A 
HETATM   11  C11 UNK     1      16.189   8.686   9.750  1.00  0.00     0.011 A 
HETATM   12  C12 UNK     1      16.741   7.452  10.098  1.00  0.00     0.022 A 
ENDROOT
BRANCH   5  13
HETATM   13  C6  UNK     1      10.974   6.551   7.320  1.00  0.00     0.258 C 
HETATM   14  O2  UNK     1      10.873   6.999   6.180  1.00  0.00    -0.267 OA
HETATM   15  N1  UNK     1       9.935   6.115   8.122  1.00  0.00    -0.351 N 
HETATM   16  H5  UNK     1      10.121   5.777   9.061  1.00  0.00     0.163 HD
BRANCH  15  17
HETATM   17  C5  UNK     1       8.553   6.132   7.699  1.00  0.00     0.182 C 
BRANCH  17  18
HETATM   18  C10 UNK     1       7.701   5.478   8.744  1.00  0.00     0.051 A 
HETATM   19  N2  UNK     1       7.396   4.179   8.541  1.00  0.00    -0.264 NA
HETATM   20  C15 UNK     1       6.626   3.594   9.486  1.00  0.00     0.117 A 
HETATM   21  C16 UNK     1       6.155   4.245  10.614  1.00  0.00     0.019 A 
HETATM   22  C14 UNK     1       6.493   5.583  10.783  1.00  0.00     0.003 A 
HETATM   23  C13 UNK     1       7.283   6.220   9.832  1.00  0.00     0.029 A 
ENDBRANCH  17  18
ENDBRANCH  15  17
ENDBRANCH   5  13
TORSDOF 3
ENDMDL
MODEL 8
REMARK VINA RESULT:      -7.9      4.350      8.434
REMARK  3 active torsions:
REMARK  status: ('A' for Active; 'I' for Inactive)
REMARK    1  A    between atoms: C5_11  and  N1_5 
REMARK       I    between atoms: C6_12  and  N1_5 
REMARK    2  A    between atoms: C2_8  and  C6_12 
REMARK    3  A    between atoms: C10_16  and  C5_11 
ROOT
HETATM    1 Br1  UNK     1      23.729 -11.395  36.071  1.00  0.00    -0.051 Br
HETATM    2  O1  UNK     1      18.674  -8.137  36.874  1.00  0.00    -0.274 OA
HETATM    3  O3  UNK     1      17.633  -6.119  37.123  1.00  0.00    -0.259 OA
HETATM    4  C1  UNK     1      21.086  -8.215  36.583  1.00  0.00     0.000 A 
HETATM    5  C2  UNK     1      19.986  -6.074  36.848  1.00  0.00     0.108 A 
HETATM    6  C3  UNK     1      19.863  -8.870  36.687  1.00  0.00     0.089 A 
HETATM    7  C4  UNK     1      21.118  -6.764  36.670  1.00  0.00     0.037 A 
HETATM    8  C7  UNK     1      22.244  -8.976  36.398  1.00  0.00     0.033 A 
HETATM    9  C8  UNK     1      18.673  -6.748  36.961  1.00  0.00     0.304 A 
HETATM   10  C9  UNK     1      19.763 -10.257  36.611  1.00  0.00     0.039 A 
HETATM   11  C11 UNK     1      22.159 -10.370  36.320  1.00  0.00     0.011 A 
HETATM   12  C12 UNK     1      20.922 -11.009  36.427  1.00  0.00     0.022 A 
ENDROOT
BRANCH   5  13
HETATM   13  C6  UNK     1      20.120  -4.614  36.924  1.00  0.00     0.258 C 
HETATM   14  O2  UNK     1      20.531  -4.069  37.947  1.00  0.00    -0.267 OA
HETATM   15  N1  UNK     1      19.738  -3.978  35.757  1.00  0.00    -0.351 N 
HETATM   16  H5  UNK     1      19.394  -4.517  34.969  1.00  0.00     0.163 HD
BRANCH  15  17
HETATM   17  C5  UNK     1      19.779  -2.542  35.592  1.00  0.00     0.182 C 
BRANCH  17  18
HETATM   18  C10 UNK     1      19.849  -2.206  34.133  1.00  0.00     0.051 A 
HETATM   19  N2  UNK     1      20.840  -2.793  33.430  1.00  0.00    -0.264 NA
HETATM   20  C15 UNK     1      20.900  -2.485  32.115  1.00  0.00     0.117 A 
HETATM   21  C16 UNK     1      20.018  -1.626  31.479  1.00  0.00     0.019 A 
HETATM   22  C14 UNK     1      19.012  -1.044  32.242  1.00  0.00     0.003 A 
HETATM   23  C13 UNK     1      18.919  -1.335  33.599  1.00  0.00     0.029 A 
ENDBRANCH  17  18
ENDBRANCH  15  17
ENDBRANCH   5  13
TORSDOF 3
ENDMDL
MODEL 9
REMARK VINA RESULT:      -7.9      7.285     10.749
REMARK  3 active torsions:
REMARK  status: ('A' for Active; 'I' for Inactive)
REMARK    1  A    between atoms: C5_11  and  N1_5 
REMARK       I    between atoms: C6_12  and  N1_5 
REMARK    2  A    between atoms: C2_8  and  C6_12 
REMARK    3  A    between atoms: C10_16  and  C5_11 
ROOT
HETATM    1 Br1  UNK     1      17.915  -0.249  37.918  1.00  0.00    -0.051 Br
HETATM    2  O1  UNK     1      18.334   1.621  32.161  1.00  0.00    -0.274 OA
HETATM    3  O3  UNK     1      18.485   3.310  30.630  1.00  0.00    -0.259 OA
HETATM    4  C1  UNK     1      18.205   2.157  34.529  1.00  0.00     0.000 A 
HETATM    5  C2  UNK     1      18.366   3.949  32.908  1.00  0.00     0.108 A 
HETATM    6  C3  UNK     1      18.237   1.214  33.507  1.00  0.00     0.089 A 
HETATM    7  C4  UNK     1      18.274   3.569  34.188  1.00  0.00     0.037 A 
HETATM    8  C7  UNK     1      18.110   1.714  35.851  1.00  0.00     0.033 A 
HETATM    9  C8  UNK     1      18.401   2.965  31.804  1.00  0.00     0.304 A 
HETATM   10  C9  UNK     1      18.176  -0.153  33.766  1.00  0.00     0.039 A 
HETATM   11  C11 UNK     1      18.047   0.344  36.127  1.00  0.00     0.011 A 
HETATM   12  C12 UNK     1      18.080  -0.587  35.087  1.00  0.00     0.022 A 
ENDROOT
BRANCH   5  13
HETATM   13  C6  UNK     1      18.429   5.396  32.664  1.00  0.00     0.258 C 
HETATM   14  O2  UNK     1      19.345   6.075  33.126  1.00  0.00    -0.267 OA
HETATM   15  N1  UNK     1      17.378   5.858  31.893  1.00  0.00    -0.351 N 
HETATM   16  H5  UNK     1      16.658   5.217  31.573  1.00  0.00     0.163 HD
BRANCH  15  17
HETATM   17  C5  UNK     1      17.224   7.246  31.523  1.00  0.00     0.182 C 
BRANCH  17  18
HETATM   18  C10 UNK     1      16.295   7.922  32.486  1.00  0.00     0.051 A 
HETATM   19  N2  UNK     1      16.615   9.184  32.842  1.00  0.00    -0.264 NA
HETATM   20  C15 UNK     1      15.775   9.788  33.712  1.00  0.00     0.117 A 
HETATM   21  C16 UNK     1      14.639   9.191  34.235  1.00  0.00     0.019 A 
HETATM   22  C14 UNK     1      14.348   7.889  33.842  1.00  0.00     0.003 A 
HETATM   23  C13 UNK     1      15.189   7.234  32.949  1.00  0.00     0.029 A 
ENDBRANCH  17  18
ENDBRANCH  15  17
ENDBRANCH   5  13
TORSDOF 3
ENDMDL
MODEL 10
REMARK VINA RESULT:      -7.9      6.609     10.168
REMARK  3 active torsions:
REMARK  status: ('A' for Active; 'I' for Inactive)
REMARK    1  A    between atoms: C5_11  and  N1_5 
REMARK       I    between atoms: C6_12  and  N1_5 
REMARK    2  A    between atoms: C2_8  and  C6_12 
REMARK    3  A    between atoms: C10_16  and  C5_11 
ROOT
HETATM    1 Br1  UNK     1      17.881  -0.162  37.567  1.00  0.00    -0.051 Br
HETATM    2  O1  UNK     1      18.678   0.769  31.625  1.00  0.00    -0.274 OA
HETATM    3  O3  UNK     1      18.774   2.184  29.833  1.00  0.00    -0.259 OA
HETATM    4  C1  UNK     1      18.222   1.665  33.838  1.00  0.00     0.000 A 
HETATM    5  C2  UNK     1      18.322   3.167  31.941  1.00  0.00     0.108 A 
HETATM    6  C3  UNK     1      18.489   0.581  33.008  1.00  0.00     0.089 A 
HETATM    7  C4  UNK     1      18.142   2.995  33.256  1.00  0.00     0.037 A 
HETATM    8  C7  UNK     1      18.041   1.439  35.205  1.00  0.00     0.033 A 
HETATM    9  C8  UNK     1      18.607   2.030  31.039  1.00  0.00     0.304 A 
HETATM   10  C9  UNK     1      18.581  -0.718  33.503  1.00  0.00     0.039 A 
HETATM   11  C11 UNK     1      18.129   0.139  35.717  1.00  0.00     0.011 A 
HETATM   12  C12 UNK     1      18.398  -0.936  34.867  1.00  0.00     0.022 A 
ENDROOT
BRANCH   5  13
HETATM   13  C6  UNK     1      18.222   4.546  31.447  1.00  0.00     0.258 C 
HETATM   14  O2  UNK     1      18.855   4.911  30.458  1.00  0.00    -0.267 OA
HETATM   15  N1  UNK     1      17.372   5.329  32.207  1.00  0.00    -0.351 N 
HETATM   16  H5  UNK     1      16.907   4.939  33.020  1.00  0.00     0.163 HD
BRANCH  15  17
HETATM   17  C5  UNK     1      17.115   6.722  31.918  1.00  0.00     0.182 C 
BRANCH  17  18
HETATM   18  C10 UNK     1      17.971   7.583  32.797  1.00  0.00     0.051 A 
HETATM   19  N2  UNK     1      17.535   8.842  33.009  1.00  0.00    -0.264 NA
HETATM   20  C15 UNK     1      18.312   9.615  33.802  1.00  0.00     0.117 A 
HETATM   21  C16 UNK     1      19.492   9.186  34.386  1.00  0.00     0.019 A 
HETATM   22  C14 UNK     1      19.904   7.881  34.140  1.00  0.00     0.003 A 
HETATM   23  C13 UNK     1      19.132   7.056  33.329  1.00  0.00     0.029 A 
ENDBRANCH  17  18
ENDBRANCH  15  17
ENDBRANCH   5  13
TORSDOF 3
ENDMDL
