MODEL 1
REMARK VINA RESULT:      -9.6      0.000      0.000
REMARK  4 active torsions:
REMARK  status: ('A' for Active; 'I' for Inactive)
REMARK    1  A    between atoms: C8_15  and  O1_2 
REMARK    2  A    between atoms: C7_14  and  N1_7 
REMARK       I    between atoms: C9_16  and  N1_7 
REMARK    3  A    between atoms: C6_13  and  C8_15 
REMARK    4  A    between atoms: C10_17  and  C9_16 
ROOT
HETATM    1  O4  UNK     1      21.298  -3.841  37.245  1.00  0.00    -0.267 OA
HETATM    2  N1  UNK     1      19.046  -3.742  36.544  1.00  0.00    -0.316 N 
HETATM    3  C9  UNK     1      20.234  -4.360  36.908  1.00  0.00     0.262 C 
HETATM    4  H7  UNK     1      18.239  -4.312  36.309  1.00  0.00     0.169 HD
ENDROOT
BRANCH   2   5
HETATM    5  C7  UNK     1      18.820  -2.382  36.488  1.00  0.00     0.094 A 
HETATM    6  C6  UNK     1      19.121  -1.444  35.515  1.00  0.00     0.080 A 
HETATM    7  C3  UNK     1      18.689  -0.163  35.912  1.00  0.00    -0.026 A 
HETATM    8  C1  UNK     1      18.715   1.206  35.342  1.00  0.00     0.041 C 
HETATM    9  C5  UNK     1      18.091  -0.175  37.143  1.00  0.00    -0.008 A 
HETATM   10  C2  UNK     1      17.721   1.971  36.273  1.00  0.00     0.010 C 
HETATM   11  C4  UNK     1      17.621   1.153  37.599  1.00  0.00     0.047 C 
HETATM   12  S1  UNK     1      18.024  -1.685  37.858  1.00  0.00    -0.075 SA
BRANCH   6  13
HETATM   13  C8  UNK     1      19.786  -1.768  34.278  1.00  0.00     0.296 C 
HETATM   14  O2  UNK     1      20.844  -2.413  34.207  1.00  0.00    -0.259 OA
BRANCH  13  15
HETATM   15  O1  UNK     1      19.146  -1.290  33.153  1.00  0.00    -0.322 OA
HETATM   16  C16 UNK     1      19.733  -1.609  31.886  1.00  0.00     0.213 C 
ENDBRANCH  13  15
ENDBRANCH   6  13
ENDBRANCH   2   5
BRANCH   3  17
HETATM   17  C10 UNK     1      20.128  -5.823  36.859  1.00  0.00     0.108 A 
HETATM   18  C11 UNK     1      19.997  -6.447  38.036  1.00  0.00     0.037 A 
HETATM   19  C12 UNK     1      19.885  -7.896  38.089  1.00  0.00    -0.001 A 
HETATM   20  C13 UNK     1      19.917  -8.618  36.900  1.00  0.00     0.089 A 
HETATM   21  C15 UNK     1      19.747  -8.588  39.294  1.00  0.00     0.014 A 
HETATM   22  O3  UNK     1      20.054  -7.956  35.665  1.00  0.00    -0.274 OA
HETATM   23  C17 UNK     1      19.815 -10.007  36.882  1.00  0.00     0.038 A 
HETATM   24  C14 UNK     1      20.164  -6.570  35.582  1.00  0.00     0.304 A 
HETATM   25  O5  UNK     1      20.284  -6.003  34.501  1.00  0.00    -0.259 OA
HETATM   26  C19 UNK     1      19.677 -10.690  38.089  1.00  0.00     0.003 A 
HETATM   27  C18 UNK     1      19.643  -9.982  39.293  1.00  0.00     0.001 A 
ENDBRANCH   3  17
TORSDOF 4
ENDMDL
MODEL 2
REMARK VINA RESULT:      -9.6      1.565      7.709
REMARK  4 active torsions:
REMARK  status: ('A' for Active; 'I' for Inactive)
REMARK    1  A    between atoms: C8_15  and  O1_2 
REMARK    2  A    between atoms: C7_14  and  N1_7 
REMARK       I    between atoms: C9_16  and  N1_7 
REMARK    3  A    between atoms: C6_13  and  C8_15 
REMARK    4  A    between atoms: C10_17  and  C9_16 
ROOT
HETATM    1  O4  UNK     1      21.350  -4.365  36.873  1.00  0.00    -0.267 OA
HETATM    2  N1  UNK     1      19.077  -4.992  36.977  1.00  0.00    -0.316 N 
HETATM    3  C9  UNK     1      20.146  -4.129  36.784  1.00  0.00     0.262 C 
HETATM    4  H7  UNK     1      18.129  -4.651  36.845  1.00  0.00     0.169 HD
ENDROOT
BRANCH   2   5
HETATM    5  C7  UNK     1      19.160  -6.326  37.318  1.00  0.00     0.094 A 
HETATM    6  C6  UNK     1      18.839  -7.473  36.611  1.00  0.00     0.080 A 
HETATM    7  C3  UNK     1      19.098  -8.621  37.386  1.00  0.00    -0.026 A 
HETATM    8  C1  UNK     1      18.971 -10.088  37.211  1.00  0.00     0.041 C 
HETATM    9  C5  UNK     1      19.594  -8.311  38.623  1.00  0.00    -0.008 A 
HETATM   10  C2  UNK     1      19.800 -10.638  38.415  1.00  0.00     0.010 C 
HETATM   11  C4  UNK     1      19.881  -9.491  39.471  1.00  0.00     0.047 C 
HETATM   12  S1  UNK     1      19.766  -6.672  38.903  1.00  0.00    -0.075 SA
BRANCH   6  13
HETATM   13  C8  UNK     1      18.312  -7.457  35.269  1.00  0.00     0.296 C 
HETATM   14  O2  UNK     1      17.161  -7.814  34.971  1.00  0.00    -0.259 OA
BRANCH  13  15
HETATM   15  O1  UNK     1      19.208  -7.012  34.319  1.00  0.00    -0.322 OA
HETATM   16  C16 UNK     1      20.559  -7.475  34.432  1.00  0.00     0.213 C 
ENDBRANCH  13  15
ENDBRANCH   6  13
ENDBRANCH   2   5
BRANCH   3  17
HETATM   17  C10 UNK     1      19.699  -2.776  36.430  1.00  0.00     0.108 A 
HETATM   18  C11 UNK     1      18.979  -2.128  37.354  1.00  0.00     0.037 A 
HETATM   19  C12 UNK     1      18.492  -0.783  37.094  1.00  0.00    -0.001 A 
HETATM   20  C13 UNK     1      18.785  -0.185  35.872  1.00  0.00     0.089 A 
HETATM   21  C15 UNK     1      17.738  -0.071  38.029  1.00  0.00     0.014 A 
HETATM   22  O3  UNK     1      19.543  -0.872  34.903  1.00  0.00    -0.274 OA
HETATM   23  C17 UNK     1      18.348   1.100  35.560  1.00  0.00     0.038 A 
HETATM   24  C14 UNK     1      20.023  -2.159  35.124  1.00  0.00     0.304 A 
HETATM   25  O5  UNK     1      20.682  -2.749  34.274  1.00  0.00    -0.259 OA
HETATM   26  C19 UNK     1      17.597   1.804  36.499  1.00  0.00     0.003 A 
HETATM   27  C18 UNK     1      17.292   1.220  37.731  1.00  0.00     0.001 A 
ENDBRANCH   3  17
TORSDOF 4
ENDMDL
MODEL 3
REMARK VINA RESULT:      -9.1      8.164     10.419
REMARK  4 active torsions:
REMARK  status: ('A' for Active; 'I' for Inactive)
REMARK    1  A    between atoms: C8_15  and  O1_2 
REMARK    2  A    between atoms: C7_14  and  N1_7 
REMARK       I    between atoms: C9_16  and  N1_7 
REMARK    3  A    between atoms: C6_13  and  C8_15 
REMARK    4  A    between atoms: C10_17  and  C9_16 
ROOT
HETATM    1  O4  UNK     1      17.566   3.691  32.691  1.00  0.00    -0.267 OA
HETATM    2  N1  UNK     1      19.202   4.963  31.561  1.00  0.00    -0.316 N 
HETATM    3  C9  UNK     1      18.432   3.841  31.829  1.00  0.00     0.262 C 
HETATM    4  H7  UNK     1      19.868   4.940  30.793  1.00  0.00     0.169 HD
ENDROOT
BRANCH   2   5
HETATM    5  C7  UNK     1      19.146   6.168  32.230  1.00  0.00     0.094 A 
HETATM    6  C6  UNK     1      18.172   7.152  32.263  1.00  0.00     0.080 A 
HETATM    7  C3  UNK     1      18.569   8.214  33.099  1.00  0.00    -0.026 A 
HETATM    8  C1  UNK     1      17.998   9.512  33.534  1.00  0.00     0.041 C 
HETATM    9  C5  UNK     1      19.800   8.002  33.657  1.00  0.00    -0.008 A 
HETATM   10  C2  UNK     1      18.930   9.900  34.726  1.00  0.00     0.010 C 
HETATM   11  C4  UNK     1      20.257   9.096  34.545  1.00  0.00     0.047 C 
HETATM   12  S1  UNK     1      20.516   6.558  33.213  1.00  0.00    -0.075 SA
BRANCH   6  13
HETATM   13  C8  UNK     1      16.934   7.069  31.528  1.00  0.00     0.296 C 
HETATM   14  O2  UNK     1      16.796   7.450  30.355  1.00  0.00    -0.259 OA
BRANCH  13  15
HETATM   15  O1  UNK     1      15.889   6.528  32.248  1.00  0.00    -0.322 OA
HETATM   16  C16 UNK     1      14.623   7.192  32.155  1.00  0.00     0.213 C 
ENDBRANCH  13  15
ENDBRANCH   6  13
ENDBRANCH   2   5
BRANCH   3  17
HETATM   17  C10 UNK     1      18.749   2.729  30.924  1.00  0.00     0.108 A 
HETATM   18  C11 UNK     1      19.165   1.596  31.501  1.00  0.00     0.037 A 
HETATM   19  C12 UNK     1      19.503   0.440  30.686  1.00  0.00    -0.001 A 
HETATM   20  C13 UNK     1      19.389   0.534  29.303  1.00  0.00     0.089 A 
HETATM   21  C15 UNK     1      19.941  -0.763  31.245  1.00  0.00     0.014 A 
HETATM   22  O3  UNK     1      18.950   1.730  28.701  1.00  0.00    -0.274 OA
HETATM   23  C17 UNK     1      19.698  -0.536  28.466  1.00  0.00     0.038 A 
HETATM   24  C14 UNK     1      18.619   2.853  29.455  1.00  0.00     0.304 A 
HETATM   25  O5  UNK     1      18.239   3.890  28.922  1.00  0.00    -0.259 OA
HETATM   26  C19 UNK     1      20.133  -1.732  29.032  1.00  0.00     0.003 A 
HETATM   27  C18 UNK     1      20.255  -1.846  30.419  1.00  0.00     0.001 A 
ENDBRANCH   3  17
TORSDOF 4
ENDMDL
MODEL 4
REMARK VINA RESULT:      -8.9      7.434     10.201
REMARK  4 active torsions:
REMARK  status: ('A' for Active; 'I' for Inactive)
REMARK    1  A    between atoms: C8_15  and  O1_2 
REMARK    2  A    between atoms: C7_14  and  N1_7 
REMARK       I    between atoms: C9_16  and  N1_7 
REMARK    3  A    between atoms: C6_13  and  C8_15 
REMARK    4  A    between atoms: C10_17  and  C9_16 
ROOT
HETATM    1  O4  UNK     1      18.522   5.059  30.473  1.00  0.00    -0.267 OA
HETATM    2  N1  UNK     1      17.589   4.811  32.626  1.00  0.00    -0.316 N 
HETATM    3  C9  UNK     1      18.225   4.396  31.465  1.00  0.00     0.262 C 
HETATM    4  H7  UNK     1      17.431   4.143  33.376  1.00  0.00     0.169 HD
ENDROOT
BRANCH   2   5
HETATM    5  C7  UNK     1      17.151   6.090  32.901  1.00  0.00     0.094 A 
HETATM    6  C6  UNK     1      17.719   7.111  33.645  1.00  0.00     0.080 A 
HETATM    7  C3  UNK     1      16.887   8.249  33.639  1.00  0.00    -0.026 A 
HETATM    8  C1  UNK     1      16.924   9.612  34.222  1.00  0.00     0.041 C 
HETATM    9  C5  UNK     1      15.747   8.055  32.908  1.00  0.00    -0.008 A 
HETATM   10  C2  UNK     1      15.784  10.338  33.440  1.00  0.00     0.010 C 
HETATM   11  C4  UNK     1      14.843   9.227  32.875  1.00  0.00     0.047 C 
HETATM   12  S1  UNK     1      15.625   6.537  32.216  1.00  0.00    -0.075 SA
BRANCH   6  13
HETATM   13  C8  UNK     1      18.986   6.992  34.321  1.00  0.00     0.296 C 
HETATM   14  O2  UNK     1      19.313   7.669  35.308  1.00  0.00    -0.259 OA
BRANCH  13  15
HETATM   15  O1  UNK     1      19.831   6.051  33.769  1.00  0.00    -0.322 OA
HETATM   16  C16 UNK     1      20.854   6.532  32.890  1.00  0.00     0.213 C 
ENDBRANCH  13  15
ENDBRANCH   6  13
ENDBRANCH   2   5
BRANCH   3  17
HETATM   17  C10 UNK     1      18.555   2.965  31.504  1.00  0.00     0.108 A 
HETATM   18  C11 UNK     1      19.029   2.437  30.369  1.00  0.00     0.037 A 
HETATM   19  C12 UNK     1      19.384   1.028  30.310  1.00  0.00    -0.001 A 
HETATM   20  C13 UNK     1      19.221   0.244  31.448  1.00  0.00     0.089 A 
HETATM   21  C15 UNK     1      19.882   0.434  29.148  1.00  0.00     0.014 A 
HETATM   22  O3  UNK     1      18.721   0.806  32.639  1.00  0.00    -0.274 OA
HETATM   23  C17 UNK     1      19.541  -1.112  31.457  1.00  0.00     0.038 A 
HETATM   24  C14 UNK     1      18.374   2.151  32.726  1.00  0.00     0.304 A 
HETATM   25  O5  UNK     1      17.939   2.632  33.767  1.00  0.00    -0.259 OA
HETATM   26  C19 UNK     1      20.038  -1.697  30.294  1.00  0.00     0.003 A 
HETATM   27  C18 UNK     1      20.209  -0.926  29.142  1.00  0.00     0.001 A 
ENDBRANCH   3  17
TORSDOF 4
ENDMDL
MODEL 5
REMARK VINA RESULT:      -8.8     17.810     22.033
REMARK  4 active torsions:
REMARK  status: ('A' for Active; 'I' for Inactive)
REMARK    1  A    between atoms: C8_15  and  O1_2 
REMARK    2  A    between atoms: C7_14  and  N1_7 
REMARK       I    between atoms: C9_16  and  N1_7 
REMARK    3  A    between atoms: C6_13  and  C8_15 
REMARK    4  A    between atoms: C10_17  and  C9_16 
ROOT
HETATM    1  O4  UNK     1      17.877  -2.154  15.921  1.00  0.00    -0.267 OA
HETATM    2  N1  UNK     1      19.719  -1.293  14.724  1.00  0.00    -0.316 N 
HETATM    3  C9  UNK     1      18.799  -1.355  15.760  1.00  0.00     0.262 C 
HETATM    4  H7  UNK     1      20.444  -0.581  14.742  1.00  0.00     0.169 HD
ENDROOT
BRANCH   2   5
HETATM    5  C7  UNK     1      19.781  -2.141  13.638  1.00  0.00     0.094 A 
HETATM    6  C6  UNK     1      20.355  -3.392  13.486  1.00  0.00     0.080 A 
HETATM    7  C3  UNK     1      20.159  -3.871  12.175  1.00  0.00    -0.026 A 
HETATM    8  C1  UNK     1      20.516  -5.090  11.410  1.00  0.00     0.041 C 
HETATM    9  C5  UNK     1      19.460  -2.987  11.399  1.00  0.00    -0.008 A 
HETATM   10  C2  UNK     1      19.617  -4.958  10.139  1.00  0.00     0.010 C 
HETATM   11  C4  UNK     1      19.231  -3.451  10.012  1.00  0.00     0.047 C 
HETATM   12  S1  UNK     1      19.021  -1.579  12.187  1.00  0.00    -0.075 SA
BRANCH   6  13
HETATM   13  C8  UNK     1      21.051  -4.081  14.543  1.00  0.00     0.296 C 
HETATM   14  O2  UNK     1      21.066  -5.315  14.677  1.00  0.00    -0.259 OA
BRANCH  13  15
HETATM   15  O1  UNK     1      21.710  -3.244  15.420  1.00  0.00    -0.322 OA
HETATM   16  C16 UNK     1      21.661  -3.590  16.810  1.00  0.00     0.213 C 
ENDBRANCH  13  15
ENDBRANCH   6  13
ENDBRANCH   2   5
BRANCH   3  17
HETATM   17  C10 UNK     1      19.020  -0.297  16.754  1.00  0.00     0.108 A 
HETATM   18  C11 UNK     1      19.018  -0.680  18.036  1.00  0.00     0.037 A 
HETATM   19  C12 UNK     1      19.229   0.296  19.093  1.00  0.00    -0.001 A 
HETATM   20  C13 UNK     1      19.431   1.629  18.748  1.00  0.00     0.089 A 
HETATM   21  C15 UNK     1      19.234  -0.058  20.444  1.00  0.00     0.014 A 
HETATM   22  O3  UNK     1      19.432   2.026  17.396  1.00  0.00    -0.274 OA
HETATM   23  C17 UNK     1      19.637   2.614  19.711  1.00  0.00     0.038 A 
HETATM   24  C14 UNK     1      19.233   1.114  16.363  1.00  0.00     0.304 A 
HETATM   25  O5  UNK     1      19.236   1.469  15.189  1.00  0.00    -0.259 OA
HETATM   26  C19 UNK     1      19.642   2.251  21.057  1.00  0.00     0.003 A 
HETATM   27  C18 UNK     1      19.441   0.918  21.423  1.00  0.00     0.001 A 
ENDBRANCH   3  17
TORSDOF 4
ENDMDL
MODEL 6
REMARK VINA RESULT:      -8.6      7.165     12.743
REMARK  4 active torsions:
REMARK  status: ('A' for Active; 'I' for Inactive)
REMARK    1  A    between atoms: C8_15  and  O1_2 
REMARK    2  A    between atoms: C7_14  and  N1_7 
REMARK       I    between atoms: C9_16  and  N1_7 
REMARK    3  A    between atoms: C6_13  and  C8_15 
REMARK    4  A    between atoms: C10_17  and  C9_16 
ROOT
HETATM    1  O4  UNK     1      19.414   5.547  32.712  1.00  0.00    -0.267 OA
HETATM    2  N1  UNK     1      17.644   4.394  31.659  1.00  0.00    -0.316 N 
HETATM    3  C9  UNK     1      18.272   5.475  32.260  1.00  0.00     0.262 C 
HETATM    4  H7  UNK     1      16.694   4.497  31.314  1.00  0.00     0.169 HD
ENDROOT
BRANCH   2   5
HETATM    5  C7  UNK     1      18.197   3.148  31.446  1.00  0.00     0.094 A 
HETATM    6  C6  UNK     1      18.384   2.072  32.297  1.00  0.00     0.080 A 
HETATM    7  C3  UNK     1      18.999   1.002  31.616  1.00  0.00    -0.026 A 
HETATM    8  C1  UNK     1      19.451  -0.370  31.952  1.00  0.00     0.041 C 
HETATM    9  C5  UNK     1      19.251   1.299  30.304  1.00  0.00    -0.008 A 
HETATM   10  C2  UNK     1      19.702  -0.989  30.540  1.00  0.00     0.010 C 
HETATM   11  C4  UNK     1      19.898   0.202  29.550  1.00  0.00     0.047 C 
HETATM   12  S1  UNK     1      18.774   2.834  29.844  1.00  0.00    -0.075 SA
BRANCH   6  13
HETATM   13  C8  UNK     1      17.992   2.079  33.684  1.00  0.00     0.296 C 
HETATM   14  O2  UNK     1      18.494   2.821  34.544  1.00  0.00    -0.259 OA
BRANCH  13  15
HETATM   15  O1  UNK     1      16.999   1.173  33.993  1.00  0.00    -0.322 OA
HETATM   16  C16 UNK     1      17.224   0.321  35.123  1.00  0.00     0.213 C 
ENDBRANCH  13  15
ENDBRANCH   6  13
ENDBRANCH   2   5
BRANCH   3  17
HETATM   17  C10 UNK     1      17.393   6.650  32.327  1.00  0.00     0.108 A 
HETATM   18  C11 UNK     1      16.981   7.012  33.548  1.00  0.00     0.037 A 
HETATM   19  C12 UNK     1      16.108   8.163  33.716  1.00  0.00    -0.001 A 
HETATM   20  C13 UNK     1      15.710   8.875  32.589  1.00  0.00     0.089 A 
HETATM   21  C15 UNK     1      15.654   8.576  34.970  1.00  0.00     0.014 A 
HETATM   22  O3  UNK     1      16.147   8.490  31.307  1.00  0.00    -0.274 OA
HETATM   23  C17 UNK     1      14.874   9.986  32.681  1.00  0.00     0.038 A 
HETATM   24  C14 UNK     1      16.983   7.393  31.115  1.00  0.00     0.304 A 
HETATM   25  O5  UNK     1      17.358   7.064  29.995  1.00  0.00    -0.259 OA
HETATM   26  C19 UNK     1      14.426  10.393  33.936  1.00  0.00     0.003 A 
HETATM   27  C18 UNK     1      14.815   9.689  35.079  1.00  0.00     0.001 A 
ENDBRANCH   3  17
TORSDOF 4
ENDMDL
MODEL 7
REMARK VINA RESULT:      -8.6      1.847      2.394
REMARK  4 active torsions:
REMARK  status: ('A' for Active; 'I' for Inactive)
REMARK    1  A    between atoms: C8_15  and  O1_2 
REMARK    2  A    between atoms: C7_14  and  N1_7 
REMARK       I    between atoms: C9_16  and  N1_7 
REMARK    3  A    between atoms: C6_13  and  C8_15 
REMARK    4  A    between atoms: C10_17  and  C9_16 
ROOT
HETATM    1  O4  UNK     1      18.389  -5.399  36.481  1.00  0.00    -0.267 OA
HETATM    2  N1  UNK     1      20.206  -3.893  36.441  1.00  0.00    -0.316 N 
HETATM    3  C9  UNK     1      19.590  -5.134  36.518  1.00  0.00     0.262 C 
HETATM    4  H7  UNK     1      21.221  -3.836  36.464  1.00  0.00     0.169 HD
ENDROOT
BRANCH   2   5
HETATM    5  C7  UNK     1      19.571  -2.676  36.304  1.00  0.00     0.094 A 
HETATM    6  C6  UNK     1      19.485  -1.804  35.231  1.00  0.00     0.080 A 
HETATM    7  C3  UNK     1      18.718  -0.672  35.574  1.00  0.00    -0.026 A 
HETATM    8  C1  UNK     1      18.275   0.571  34.898  1.00  0.00     0.041 C 
HETATM    9  C5  UNK     1      18.260  -0.726  36.862  1.00  0.00    -0.008 A 
HETATM   10  C2  UNK     1      17.178   1.105  35.874  1.00  0.00     0.010 C 
HETATM   11  C4  UNK     1      17.448   0.445  37.263  1.00  0.00     0.047 C 
HETATM   12  S1  UNK     1      18.719  -2.100  37.697  1.00  0.00    -0.075 SA
BRANCH   6  13
HETATM   13  C8  UNK     1      20.109  -2.050  33.956  1.00  0.00     0.296 C 
HETATM   14  O2  UNK     1      21.268  -2.474  33.820  1.00  0.00    -0.259 OA
BRANCH  13  15
HETATM   15  O1  UNK     1      19.304  -1.766  32.872  1.00  0.00    -0.322 OA
HETATM   16  C16 UNK     1      19.940  -1.701  31.590  1.00  0.00     0.213 C 
ENDBRANCH  13  15
ENDBRANCH   6  13
ENDBRANCH   2   5
BRANCH   3  17
HETATM   17  C10 UNK     1      20.566  -6.221  36.660  1.00  0.00     0.108 A 
HETATM   18  C11 UNK     1      20.426  -7.256  35.822  1.00  0.00     0.037 A 
HETATM   19  C12 UNK     1      21.345  -8.381  35.887  1.00  0.00    -0.001 A 
HETATM   20  C13 UNK     1      22.366  -8.363  36.832  1.00  0.00     0.089 A 
HETATM   21  C15 UNK     1      21.236  -9.481  35.033  1.00  0.00     0.014 A 
HETATM   22  O3  UNK     1      22.508  -7.271  37.711  1.00  0.00    -0.274 OA
HETATM   23  C17 UNK     1      23.278  -9.409  36.947  1.00  0.00     0.038 A 
HETATM   24  C14 UNK     1      21.645  -6.180  37.673  1.00  0.00     0.304 A 
HETATM   25  O5  UNK     1      21.776  -5.234  38.443  1.00  0.00    -0.259 OA
HETATM   26  C19 UNK     1      23.164 -10.502  36.091  1.00  0.00     0.003 A 
HETATM   27  C18 UNK     1      22.145 -10.539  35.136  1.00  0.00     0.001 A 
ENDBRANCH   3  17
TORSDOF 4
ENDMDL
MODEL 8
REMARK VINA RESULT:      -8.6      6.892     12.044
REMARK  4 active torsions:
REMARK  status: ('A' for Active; 'I' for Inactive)
REMARK    1  A    between atoms: C8_15  and  O1_2 
REMARK    2  A    between atoms: C7_14  and  N1_7 
REMARK       I    between atoms: C9_16  and  N1_7 
REMARK    3  A    between atoms: C6_13  and  C8_15 
REMARK    4  A    between atoms: C10_17  and  C9_16 
ROOT
HETATM    1  O4  UNK     1      19.712   5.012  31.452  1.00  0.00    -0.267 OA
HETATM    2  N1  UNK     1      18.081   3.465  32.171  1.00  0.00    -0.316 N 
HETATM    3  C9  UNK     1      18.667   4.714  32.030  1.00  0.00     0.262 C 
HETATM    4  H7  UNK     1      17.196   3.381  32.663  1.00  0.00     0.169 HD
ENDROOT
BRANCH   2   5
HETATM    5  C7  UNK     1      18.572   2.275  31.675  1.00  0.00     0.094 A 
HETATM    6  C6  UNK     1      18.734   1.033  32.268  1.00  0.00     0.080 A 
HETATM    7  C3  UNK     1      19.283   0.115  31.351  1.00  0.00    -0.026 A 
HETATM    8  C1  UNK     1      19.682  -1.314  31.368  1.00  0.00     0.041 C 
HETATM    9  C5  UNK     1      19.513   0.679  30.126  1.00  0.00    -0.008 A 
HETATM   10  C2  UNK     1      19.868  -1.622  29.848  1.00  0.00     0.010 C 
HETATM   11  C4  UNK     1      20.091  -0.253  29.131  1.00  0.00     0.047 C 
HETATM   12  S1  UNK     1      19.092   2.294  30.024  1.00  0.00    -0.075 SA
BRANCH   6  13
HETATM   13  C8  UNK     1      18.379   0.755  33.637  1.00  0.00     0.296 C 
HETATM   14  O2  UNK     1      19.108   0.141  34.432  1.00  0.00    -0.259 OA
BRANCH  13  15
HETATM   15  O1  UNK     1      17.136   1.228  34.003  1.00  0.00    -0.322 OA
HETATM   16  C16 UNK     1      16.363   0.407  34.887  1.00  0.00     0.213 C 
ENDBRANCH  13  15
ENDBRANCH   6  13
ENDBRANCH   2   5
BRANCH   3  17
HETATM   17  C10 UNK     1      17.877   5.766  32.682  1.00  0.00     0.108 A 
HETATM   18  C11 UNK     1      16.674   6.017  32.152  1.00  0.00     0.037 A 
HETATM   19  C12 UNK     1      15.819   7.042  32.729  1.00  0.00    -0.001 A 
HETATM   20  C13 UNK     1      16.273   7.754  33.835  1.00  0.00     0.089 A 
HETATM   21  C15 UNK     1      14.557   7.338  32.209  1.00  0.00     0.014 A 
HETATM   22  O3  UNK     1      17.540   7.485  34.389  1.00  0.00    -0.274 OA
HETATM   23  C17 UNK     1      15.503   8.748  34.434  1.00  0.00     0.038 A 
HETATM   24  C14 UNK     1      18.380   6.510  33.859  1.00  0.00     0.304 A 
HETATM   25  O5  UNK     1      19.482   6.283  34.347  1.00  0.00    -0.259 OA
HETATM   26  C19 UNK     1      14.245   9.037  33.910  1.00  0.00     0.003 A 
HETATM   27  C18 UNK     1      13.772   8.333  32.800  1.00  0.00     0.001 A 
ENDBRANCH   3  17
TORSDOF 4
ENDMDL
MODEL 9
REMARK VINA RESULT:      -8.6     17.830     22.296
REMARK  4 active torsions:
REMARK  status: ('A' for Active; 'I' for Inactive)
REMARK    1  A    between atoms: C8_15  and  O1_2 
REMARK    2  A    between atoms: C7_14  and  N1_7 
REMARK       I    between atoms: C9_16  and  N1_7 
REMARK    3  A    between atoms: C6_13  and  C8_15 
REMARK    4  A    between atoms: C10_17  and  C9_16 
ROOT
HETATM    1  O4  UNK     1      17.685  -2.329  15.977  1.00  0.00    -0.267 OA
HETATM    2  N1  UNK     1      19.834  -1.953  15.077  1.00  0.00    -0.316 N 
HETATM    3  C9  UNK     1      18.749  -1.715  15.908  1.00  0.00     0.262 C 
HETATM    4  H7  UNK     1      20.660  -1.366  15.154  1.00  0.00     0.169 HD
ENDROOT
BRANCH   2   5
HETATM    5  C7  UNK     1      19.933  -2.956  14.135  1.00  0.00     0.094 A 
HETATM    6  C6  UNK     1      19.769  -2.939  12.760  1.00  0.00     0.080 A 
HETATM    7  C3  UNK     1      19.973  -4.226  12.222  1.00  0.00    -0.026 A 
HETATM    8  C1  UNK     1      19.943  -4.845  10.875  1.00  0.00     0.041 C 
HETATM    9  C5  UNK     1      20.278  -5.149  13.185  1.00  0.00    -0.008 A 
HETATM   10  C2  UNK     1      20.622  -6.228  11.131  1.00  0.00     0.010 C 
HETATM   11  C4  UNK     1      20.500  -6.516  12.661  1.00  0.00     0.047 C 
HETATM   12  S1  UNK     1      20.329  -4.530  14.737  1.00  0.00    -0.075 SA
BRANCH   6  13
HETATM   13  C8  UNK     1      19.434  -1.752  12.015  1.00  0.00     0.296 C 
HETATM   14  O2  UNK     1      18.616  -0.900  12.397  1.00  0.00    -0.259 OA
BRANCH  13  15
HETATM   15  O1  UNK     1      20.102  -1.635  10.814  1.00  0.00    -0.322 OA
HETATM   16  C16 UNK     1      21.436  -1.115  10.860  1.00  0.00     0.213 C 
ENDBRANCH  13  15
ENDBRANCH   6  13
ENDBRANCH   2   5
BRANCH   3  17
HETATM   17  C10 UNK     1      18.978  -0.565  16.792  1.00  0.00     0.108 A 
HETATM   18  C11 UNK     1      18.968  -0.818  18.106  1.00  0.00     0.037 A 
HETATM   19  C12 UNK     1      19.186   0.258  19.061  1.00  0.00    -0.001 A 
HETATM   20  C13 UNK     1      19.400   1.547  18.585  1.00  0.00     0.089 A 
HETATM   21  C15 UNK     1      19.184   0.040  20.440  1.00  0.00     0.014 A 
HETATM   22  O3  UNK     1      19.409   1.807  17.200  1.00  0.00    -0.274 OA
HETATM   23  C17 UNK     1      19.614   2.622  19.446  1.00  0.00     0.038 A 
HETATM   24  C14 UNK     1      19.205   0.798  16.263  1.00  0.00     0.304 A 
HETATM   25  O5  UNK     1      19.214   1.034  15.059  1.00  0.00    -0.259 OA
HETATM   26  C19 UNK     1      19.612   2.396  20.821  1.00  0.00     0.003 A 
HETATM   27  C18 UNK     1      19.397   1.108  21.317  1.00  0.00     0.001 A 
ENDBRANCH   3  17
TORSDOF 4
ENDMDL
MODEL 10
REMARK VINA RESULT:      -8.5     19.253     22.366
REMARK  4 active torsions:
REMARK  status: ('A' for Active; 'I' for Inactive)
REMARK    1  A    between atoms: C8_15  and  O1_2 
REMARK    2  A    between atoms: C7_14  and  N1_7 
REMARK       I    between atoms: C9_16  and  N1_7 
REMARK    3  A    between atoms: C6_13  and  C8_15 
REMARK    4  A    between atoms: C10_17  and  C9_16 
ROOT
HETATM    1  O4  UNK     1      17.773  -3.404  15.777  1.00  0.00    -0.267 OA
HETATM    2  N1  UNK     1      19.803  -3.148  14.602  1.00  0.00    -0.316 N 
HETATM    3  C9  UNK     1      18.745  -2.748  15.405  1.00  0.00     0.262 C 
HETATM    4  H7  UNK     1      20.551  -2.491  14.398  1.00  0.00     0.169 HD
ENDROOT
BRANCH   2   5
HETATM    5  C7  UNK     1      19.976  -4.399  14.047  1.00  0.00     0.094 A 
HETATM    6  C6  UNK     1      20.834  -5.436  14.376  1.00  0.00     0.080 A 
HETATM    7  C3  UNK     1      20.643  -6.530  13.509  1.00  0.00    -0.026 A 
HETATM    8  C1  UNK     1      21.225  -7.884  13.341  1.00  0.00     0.041 C 
HETATM    9  C5  UNK     1      19.671  -6.290  12.577  1.00  0.00    -0.008 A 
HETATM   10  C2  UNK     1      20.206  -8.564  12.372  1.00  0.00     0.010 C 
HETATM   11  C4  UNK     1      19.437  -7.416  11.644  1.00  0.00     0.047 C 
HETATM   12  S1  UNK     1      18.964  -4.780  12.695  1.00  0.00    -0.075 SA
BRANCH   6  13
HETATM   13  C8  UNK     1      21.780  -5.369  15.461  1.00  0.00     0.296 C 
HETATM   14  O2  UNK     1      22.149  -6.354  16.122  1.00  0.00    -0.259 OA
BRANCH  13  15
HETATM   15  O1  UNK     1      22.250  -4.099  15.721  1.00  0.00    -0.322 OA
HETATM   16  C16 UNK     1      22.287  -3.687  17.092  1.00  0.00     0.213 C 
ENDBRANCH  13  15
ENDBRANCH   6  13
ENDBRANCH   2   5
BRANCH   3  17
HETATM   17  C10 UNK     1      18.875  -1.348  15.825  1.00  0.00     0.108 A 
HETATM   18  C11 UNK     1      18.736  -1.107  17.134  1.00  0.00     0.037 A 
HETATM   19  C12 UNK     1      18.848   0.250  17.646  1.00  0.00    -0.001 A 
HETATM   20  C13 UNK     1      19.099   1.287  16.753  1.00  0.00     0.089 A 
HETATM   21  C15 UNK     1      18.710   0.547  19.003  1.00  0.00     0.014 A 
HETATM   22  O3  UNK     1      19.245   1.028  15.377  1.00  0.00    -0.274 OA
HETATM   23  C17 UNK     1      19.217   2.609  17.178  1.00  0.00     0.038 A 
HETATM   24  C14 UNK     1      19.143  -0.260  14.858  1.00  0.00     0.304 A 
HETATM   25  O5  UNK     1      19.271  -0.476  13.657  1.00  0.00    -0.259 OA
HETATM   26  C19 UNK     1      19.079   2.897  18.535  1.00  0.00     0.003 A 
HETATM   27  C18 UNK     1      18.826   1.869  19.445  1.00  0.00     0.001 A 
ENDBRANCH   3  17
TORSDOF 4
ENDMDL
