MODEL 1
REMARK VINA RESULT:      -9.3      0.000      0.000
REMARK  6 active torsions:
REMARK  status: ('A' for Active; 'I' for Inactive)
REMARK    1  A    between atoms: C6_12  and  N1_4 
REMARK    2  A    between atoms: C10_16  and  N2_5 
REMARK    3  A    between atoms: C8_14  and  N2_5 
REMARK    4  A    between atoms: C10_16  and  N3_6 
REMARK    5  A    between atoms: C11_17  and  N3_6 
REMARK    6  A    between atoms: C6_12  and  C8_14 
ROOT
HETATM    1  N3  UNK     1      18.680  -0.431  31.570  1.00  0.00    -0.333 N 
HETATM    2  H20 UNK     1      17.804  -0.727  31.151  1.00  0.00     0.168 HD
ENDROOT
BRANCH   1   3
HETATM    3  C10 UNK     1      19.678  -0.102  30.659  1.00  0.00     0.172 C 
HETATM    4  S1  UNK     1      20.678  -1.132  29.788  1.00  0.00    -0.041 SA
BRANCH   3   5
HETATM    5  N2  UNK     1      19.818   1.262  30.425  1.00  0.00    -0.361 N 
HETATM    6  H19 UNK     1      20.650   1.695  30.814  1.00  0.00     0.162 HD
BRANCH   5   7
HETATM    7  C8  UNK     1      18.946   2.110  29.641  1.00  0.00     0.108 C 
HETATM    8  C9  UNK     1      18.172   1.262  28.635  1.00  0.00     0.034 C 
BRANCH   7   9
HETATM    9  C6  UNK     1      18.036   2.917  30.577  1.00  0.00     0.296 C 
BRANCH   9  10
HETATM   10  N1  UNK     1      18.782   3.882  31.384  1.00  0.00     0.090 N 
HETATM   11  C4  UNK     1      17.980   4.315  32.537  1.00  0.00     0.273 C 
HETATM   12  C2  UNK     1      18.766   5.285  33.422  1.00  0.00     0.034 C 
HETATM   13  C1  UNK     1      19.257   6.497  32.622  1.00  0.00    -0.015 C 
HETATM   14  C3  UNK     1      20.022   6.023  31.381  1.00  0.00     0.034 C 
HETATM   15  C7  UNK     1      20.124   7.409  33.486  1.00  0.00     0.010 C 
HETATM   16  C5  UNK     1      19.194   5.029  30.564  1.00  0.00     0.273 C 
ENDBRANCH   9  10
ENDBRANCH   7   9
ENDBRANCH   5   7
ENDBRANCH   3   5
ENDBRANCH   1   3
BRANCH   1  17
HETATM   17  C11 UNK     1      18.730  -0.765  32.948  1.00  0.00     0.036 A 
HETATM   18  C12 UNK     1      19.521  -1.817  33.360  1.00  0.00     0.067 A 
HETATM   19  C14 UNK     1      19.556  -2.127  34.720  1.00  0.00     0.092 A 
HETATM   20  C13 UNK     1      18.821  -1.412  35.667  1.00  0.00     0.004 A 
HETATM   21  O1  UNK     1      20.377  -3.208  35.100  1.00  0.00    -0.275 OA
HETATM   22  C16 UNK     1      18.030  -0.351  35.209  1.00  0.00     0.017 A 
HETATM   23  C17 UNK     1      18.918  -1.808  37.079  1.00  0.00    -0.043 A 
HETATM   24  C15 UNK     1      17.985  -0.026  33.848  1.00  0.00     0.030 A 
HETATM   25  C18 UNK     1      19.707  -2.840  37.410  1.00  0.00     0.090 A 
HETATM   26  C19 UNK     1      18.140  -1.059  38.121  1.00  0.00     0.049 C 
HETATM   27  C20 UNK     1      20.488  -3.604  36.423  1.00  0.00     0.288 A 
HETATM   28  O2  UNK     1      21.198  -4.544  36.764  1.00  0.00    -0.260 OA
ENDBRANCH   1  17
TORSDOF 6
ENDMDL
MODEL 2
REMARK VINA RESULT:      -8.8      3.700      6.298
REMARK  6 active torsions:
REMARK  status: ('A' for Active; 'I' for Inactive)
REMARK    1  A    between atoms: C6_12  and  N1_4 
REMARK    2  A    between atoms: C10_16  and  N2_5 
REMARK    3  A    between atoms: C8_14  and  N2_5 
REMARK    4  A    between atoms: C10_16  and  N3_6 
REMARK    5  A    between atoms: C11_17  and  N3_6 
REMARK    6  A    between atoms: C6_12  and  C8_14 
ROOT
HETATM    1  N3  UNK     1      18.948  -3.132  36.053  1.00  0.00    -0.333 N 
HETATM    2  H20 UNK     1      19.424  -2.953  35.175  1.00  0.00     0.168 HD
ENDROOT
BRANCH   1   3
HETATM    3  C10 UNK     1      18.082  -2.123  36.460  1.00  0.00     0.172 C 
HETATM    4  S1  UNK     1      18.187  -1.142  37.819  1.00  0.00    -0.041 SA
BRANCH   3   5
HETATM    5  N2  UNK     1      17.023  -1.886  35.590  1.00  0.00    -0.361 N 
HETATM    6  H19 UNK     1      16.196  -2.460  35.732  1.00  0.00     0.162 HD
BRANCH   5   7
HETATM    7  C8  UNK     1      16.947  -0.878  34.556  1.00  0.00     0.108 C 
HETATM    8  C9  UNK     1      16.037   0.260  35.012  1.00  0.00     0.034 C 
BRANCH   7   9
HETATM    9  C6  UNK     1      18.362  -0.409  34.191  1.00  0.00     0.296 C 
BRANCH   9  10
HETATM   10  N1  UNK     1      18.664  -0.599  32.773  1.00  0.00     0.090 N 
HETATM   11  C4  UNK     1      19.715  -1.612  32.603  1.00  0.00     0.273 C 
HETATM   12  C2  UNK     1      20.006  -1.861  31.122  1.00  0.00     0.034 C 
HETATM   13  C1  UNK     1      20.389  -0.563  30.402  1.00  0.00    -0.015 C 
HETATM   14  C3  UNK     1      19.321   0.505  30.658  1.00  0.00     0.034 C 
HETATM   15  C7  UNK     1      20.580  -0.801  28.907  1.00  0.00     0.010 C 
HETATM   16  C5  UNK     1      19.053   0.676  32.155  1.00  0.00     0.273 C 
ENDBRANCH   9  10
ENDBRANCH   7   9
ENDBRANCH   5   7
ENDBRANCH   3   5
ENDBRANCH   1   3
BRANCH   1  17
HETATM   17  C11 UNK     1      19.560  -4.197  36.763  1.00  0.00     0.036 A 
HETATM   18  C12 UNK     1      18.920  -5.418  36.833  1.00  0.00     0.067 A 
HETATM   19  C14 UNK     1      19.541  -6.452  37.535  1.00  0.00     0.092 A 
HETATM   20  C13 UNK     1      20.777  -6.290  38.162  1.00  0.00     0.004 A 
HETATM   21  O1  UNK     1      18.855  -7.682  37.582  1.00  0.00    -0.275 OA
HETATM   22  C16 UNK     1      21.395  -5.037  38.067  1.00  0.00     0.017 A 
HETATM   23  C17 UNK     1      21.357  -7.434  38.879  1.00  0.00    -0.043 A 
HETATM   24  C15 UNK     1      20.785  -3.989  37.367  1.00  0.00     0.030 A 
HETATM   25  C18 UNK     1      20.682  -8.592  38.907  1.00  0.00     0.090 A 
HETATM   26  C19 UNK     1      22.685  -7.292  39.564  1.00  0.00     0.049 C 
HETATM   27  C20 UNK     1      19.378  -8.778  38.250  1.00  0.00     0.288 A 
HETATM   28  O2  UNK     1      18.789  -9.853  38.299  1.00  0.00    -0.260 OA
ENDBRANCH   1  17
TORSDOF 6
ENDMDL
MODEL 3
REMARK VINA RESULT:      -8.6      4.529     10.118
REMARK  6 active torsions:
REMARK  status: ('A' for Active; 'I' for Inactive)
REMARK    1  A    between atoms: C6_12  and  N1_4 
REMARK    2  A    between atoms: C10_16  and  N2_5 
REMARK    3  A    between atoms: C8_14  and  N2_5 
REMARK    4  A    between atoms: C10_16  and  N3_6 
REMARK    5  A    between atoms: C11_17  and  N3_6 
REMARK    6  A    between atoms: C6_12  and  C8_14 
ROOT
HETATM    1  N3  UNK     1      19.990  -2.944  35.156  1.00  0.00    -0.333 N 
HETATM    2  H20 UNK     1      20.669  -3.699  35.145  1.00  0.00     0.168 HD
ENDROOT
BRANCH   1   3
HETATM    3  C10 UNK     1      19.072  -3.005  36.198  1.00  0.00     0.172 C 
HETATM    4  S1  UNK     1      18.391  -1.739  37.065  1.00  0.00    -0.041 SA
BRANCH   3   5
HETATM    5  N2  UNK     1      18.648  -4.291  36.518  1.00  0.00    -0.361 N 
HETATM    6  H19 UNK     1      17.642  -4.420  36.590  1.00  0.00     0.162 HD
BRANCH   5   7
HETATM    7  C8  UNK     1      19.471  -5.467  36.693  1.00  0.00     0.108 C 
HETATM    8  C9  UNK     1      20.287  -5.337  37.978  1.00  0.00     0.034 C 
BRANCH   7   9
HETATM    9  C6  UNK     1      18.589  -6.722  36.664  1.00  0.00     0.296 C 
BRANCH   9  10
HETATM   10  N1  UNK     1      19.313  -7.901  36.189  1.00  0.00     0.090 N 
HETATM   11  C4  UNK     1      19.657  -8.779  37.316  1.00  0.00     0.273 C 
HETATM   12  C2  UNK     1      20.369 -10.044  36.831  1.00  0.00     0.034 C 
HETATM   13  C1  UNK     1      21.619  -9.702  36.014  1.00  0.00    -0.015 C 
HETATM   14  C3  UNK     1      21.253  -8.722  34.893  1.00  0.00     0.034 C 
HETATM   15  C7  UNK     1      22.267 -10.963  35.449  1.00  0.00     0.010 C 
HETATM   16  C5  UNK     1      20.513  -7.501  35.443  1.00  0.00     0.273 C 
ENDBRANCH   9  10
ENDBRANCH   7   9
ENDBRANCH   5   7
ENDBRANCH   3   5
ENDBRANCH   1   3
BRANCH   1  17
HETATM   17  C11 UNK     1      19.974  -2.249  33.919  1.00  0.00     0.036 A 
HETATM   18  C12 UNK     1      19.219  -1.100  33.801  1.00  0.00     0.067 A 
HETATM   19  C14 UNK     1      19.219  -0.431  32.575  1.00  0.00     0.092 A 
HETATM   20  C13 UNK     1      19.952  -0.885  31.478  1.00  0.00     0.004 A 
HETATM   21  O1  UNK     1      18.436   0.737  32.496  1.00  0.00    -0.275 OA
HETATM   22  C16 UNK     1      20.706  -2.054  31.639  1.00  0.00     0.017 A 
HETATM   23  C17 UNK     1      19.893  -0.118  30.226  1.00  0.00    -0.043 A 
HETATM   24  C15 UNK     1      20.717  -2.737  32.861  1.00  0.00     0.030 A 
HETATM   25  C18 UNK     1      19.139   0.990  30.180  1.00  0.00     0.090 A 
HETATM   26  C19 UNK     1      20.669  -0.579  29.028  1.00  0.00     0.049 C 
HETATM   27  C20 UNK     1      18.361   1.482  31.329  1.00  0.00     0.288 A 
HETATM   28  O2  UNK     1      17.682   2.500  31.248  1.00  0.00    -0.260 OA
ENDBRANCH   1  17
TORSDOF 6
ENDMDL
MODEL 4
REMARK VINA RESULT:      -8.6      3.855      7.637
REMARK  6 active torsions:
REMARK  status: ('A' for Active; 'I' for Inactive)
REMARK    1  A    between atoms: C6_12  and  N1_4 
REMARK    2  A    between atoms: C10_16  and  N2_5 
REMARK    3  A    between atoms: C8_14  and  N2_5 
REMARK    4  A    between atoms: C10_16  and  N3_6 
REMARK    5  A    between atoms: C11_17  and  N3_6 
REMARK    6  A    between atoms: C6_12  and  C8_14 
ROOT
HETATM    1  N3  UNK     1      19.328   3.707  30.254  1.00  0.00    -0.333 N 
HETATM    2  H20 UNK     1      19.808   4.019  29.416  1.00  0.00     0.168 HD
ENDROOT
BRANCH   1   3
HETATM    3  C10 UNK     1      18.687   2.479  30.131  1.00  0.00     0.172 C 
HETATM    4  S1  UNK     1      17.873   1.854  28.802  1.00  0.00    -0.041 SA
BRANCH   3   5
HETATM    5  N2  UNK     1      18.782   1.664  31.255  1.00  0.00    -0.361 N 
HETATM    6  H19 UNK     1      18.515   2.093  32.137  1.00  0.00     0.162 HD
BRANCH   5   7
HETATM    7  C8  UNK     1      19.156   0.268  31.295  1.00  0.00     0.108 C 
HETATM    8  C9  UNK     1      20.421   0.049  30.467  1.00  0.00     0.034 C 
BRANCH   7   9
HETATM    9  C6  UNK     1      19.305  -0.183  32.754  1.00  0.00     0.296 C 
BRANCH   9  10
HETATM   10  N1  UNK     1      18.207   0.287  33.598  1.00  0.00     0.090 N 
HETATM   11  C4  UNK     1      18.727   1.064  34.732  1.00  0.00     0.273 C 
HETATM   12  C2  UNK     1      17.588   1.608  35.595  1.00  0.00     0.034 C 
HETATM   13  C1  UNK     1      16.675   0.481  36.090  1.00  0.00    -0.015 C 
HETATM   14  C3  UNK     1      16.208  -0.366  34.901  1.00  0.00     0.034 C 
HETATM   15  C7  UNK     1      15.485   1.039  36.866  1.00  0.00     0.010 C 
HETATM   16  C5  UNK     1      17.393  -0.845  34.060  1.00  0.00     0.273 C 
ENDBRANCH   9  10
ENDBRANCH   7   9
ENDBRANCH   5   7
ENDBRANCH   3   5
ENDBRANCH   1   3
BRANCH   1  17
HETATM   17  C11 UNK     1      19.172   4.767  31.184  1.00  0.00     0.036 A 
HETATM   18  C12 UNK     1      17.914   5.061  31.668  1.00  0.00     0.067 A 
HETATM   19  C14 UNK     1      17.784   6.107  32.583  1.00  0.00     0.092 A 
HETATM   20  C13 UNK     1      18.877   6.858  33.017  1.00  0.00     0.004 A 
HETATM   21  O1  UNK     1      16.483   6.375  33.054  1.00  0.00    -0.275 OA
HETATM   22  C16 UNK     1      20.137   6.528  32.502  1.00  0.00     0.017 A 
HETATM   23  C17 UNK     1      18.648   7.942  33.982  1.00  0.00    -0.043 A 
HETATM   24  C15 UNK     1      20.285   5.481  31.584  1.00  0.00     0.030 A 
HETATM   25  C18 UNK     1      17.399   8.173  34.413  1.00  0.00     0.090 A 
HETATM   26  C19 UNK     1      19.802   8.767  34.469  1.00  0.00     0.049 C 
HETATM   27  C20 UNK     1      16.236   7.390  33.964  1.00  0.00     0.288 A 
HETATM   28  O2  UNK     1      15.108   7.632  34.380  1.00  0.00    -0.260 OA
ENDBRANCH   1  17
TORSDOF 6
ENDMDL
MODEL 5
REMARK VINA RESULT:      -8.5      3.851      8.589
REMARK  6 active torsions:
REMARK  status: ('A' for Active; 'I' for Inactive)
REMARK    1  A    between atoms: C6_12  and  N1_4 
REMARK    2  A    between atoms: C10_16  and  N2_5 
REMARK    3  A    between atoms: C8_14  and  N2_5 
REMARK    4  A    between atoms: C10_16  and  N3_6 
REMARK    5  A    between atoms: C11_17  and  N3_6 
REMARK    6  A    between atoms: C6_12  and  C8_14 
ROOT
HETATM    1  N3  UNK     1      18.483   3.792  30.908  1.00  0.00    -0.333 N 
HETATM    2  H20 UNK     1      18.145   4.000  29.974  1.00  0.00     0.168 HD
ENDROOT
BRANCH   1   3
HETATM    3  C10 UNK     1      18.441   2.446  31.253  1.00  0.00     0.172 C 
HETATM    4  S1  UNK     1      19.103   1.137  30.435  1.00  0.00    -0.041 SA
BRANCH   3   5
HETATM    5  N2  UNK     1      17.797   2.179  32.457  1.00  0.00    -0.361 N 
HETATM    6  H19 UNK     1      16.787   2.289  32.453  1.00  0.00     0.162 HD
BRANCH   5   7
HETATM    7  C8  UNK     1      18.398   1.704  33.684  1.00  0.00     0.108 C 
HETATM    8  C9  UNK     1      18.337   2.801  34.745  1.00  0.00     0.034 C 
BRANCH   7   9
HETATM    9  C6  UNK     1      17.712   0.403  34.122  1.00  0.00     0.296 C 
BRANCH   9  10
HETATM   10  N1  UNK     1      18.541  -0.384  35.035  1.00  0.00     0.090 N 
HETATM   11  C4  UNK     1      19.193  -1.487  34.314  1.00  0.00     0.273 C 
HETATM   12  C2  UNK     1      20.105  -2.289  35.244  1.00  0.00     0.034 C 
HETATM   13  C1  UNK     1      19.337  -2.820  36.459  1.00  0.00    -0.015 C 
HETATM   14  C3  UNK     1      18.600  -1.667  37.149  1.00  0.00     0.034 C 
HETATM   15  C7  UNK     1      20.273  -3.532  37.432  1.00  0.00     0.010 C 
HETATM   16  C5  UNK     1      17.736  -0.886  36.156  1.00  0.00     0.273 C 
ENDBRANCH   9  10
ENDBRANCH   7   9
ENDBRANCH   5   7
ENDBRANCH   3   5
ENDBRANCH   1   3
BRANCH   1  17
HETATM   17  C11 UNK     1      18.578   4.968  31.696  1.00  0.00     0.036 A 
HETATM   18  C12 UNK     1      17.425   5.562  32.165  1.00  0.00     0.067 A 
HETATM   19  C14 UNK     1      17.542   6.718  32.939  1.00  0.00     0.092 A 
HETATM   20  C13 UNK     1      18.779   7.285  33.249  1.00  0.00     0.004 A 
HETATM   21  O1  UNK     1      16.341   7.293  33.399  1.00  0.00    -0.275 OA
HETATM   22  C16 UNK     1      19.926   6.652  32.754  1.00  0.00     0.017 A 
HETATM   23  C17 UNK     1      18.808   8.503  34.070  1.00  0.00    -0.043 A 
HETATM   24  C15 UNK     1      19.826   5.492  31.976  1.00  0.00     0.030 A 
HETATM   25  C18 UNK     1      17.649   9.028  34.493  1.00  0.00     0.090 A 
HETATM   26  C19 UNK     1      20.122   9.138  34.420  1.00  0.00     0.049 C 
HETATM   27  C20 UNK     1      16.337   8.441  34.175  1.00  0.00     0.288 A 
HETATM   28  O2  UNK     1      15.298   8.950  34.580  1.00  0.00    -0.260 OA
ENDBRANCH   1  17
TORSDOF 6
ENDMDL
MODEL 6
REMARK VINA RESULT:      -8.4      3.556      6.181
REMARK  6 active torsions:
REMARK  status: ('A' for Active; 'I' for Inactive)
REMARK    1  A    between atoms: C6_12  and  N1_4 
REMARK    2  A    between atoms: C10_16  and  N2_5 
REMARK    3  A    between atoms: C8_14  and  N2_5 
REMARK    4  A    between atoms: C10_16  and  N3_6 
REMARK    5  A    between atoms: C11_17  and  N3_6 
REMARK    6  A    between atoms: C6_12  and  C8_14 
ROOT
HETATM    1  N3  UNK     1      19.101  -2.955  36.136  1.00  0.00    -0.333 N 
HETATM    2  H20 UNK     1      19.839  -2.615  35.528  1.00  0.00     0.168 HD
ENDROOT
BRANCH   1   3
HETATM    3  C10 UNK     1      18.153  -2.000  36.488  1.00  0.00     0.172 C 
HETATM    4  S1  UNK     1      18.163  -0.952  37.800  1.00  0.00    -0.041 SA
BRANCH   3   5
HETATM    5  N2  UNK     1      17.089  -1.889  35.598  1.00  0.00    -0.361 N 
HETATM    6  H19 UNK     1      16.381  -2.614  35.661  1.00  0.00     0.162 HD
BRANCH   5   7
HETATM    7  C8  UNK     1      16.852  -0.827  34.644  1.00  0.00     0.108 C 
HETATM    8  C9  UNK     1      15.847   0.168  35.221  1.00  0.00     0.034 C 
BRANCH   7   9
HETATM    9  C6  UNK     1      18.188  -0.179  34.255  1.00  0.00     0.296 C 
BRANCH   9  10
HETATM   10  N1  UNK     1      18.554  -0.448  32.865  1.00  0.00     0.090 N 
HETATM   11  C4  UNK     1      19.585  -1.494  32.800  1.00  0.00     0.273 C 
HETATM   12  C2  UNK     1      19.942  -1.826  31.350  1.00  0.00     0.034 C 
HETATM   13  C1  UNK     1      20.394  -0.576  30.586  1.00  0.00    -0.015 C 
HETATM   14  C3  UNK     1      19.343   0.529  30.734  1.00  0.00     0.034 C 
HETATM   15  C7  UNK     1      20.652  -0.895  29.116  1.00  0.00     0.010 C 
HETATM   16  C5  UNK     1      19.007   0.783  32.205  1.00  0.00     0.273 C 
ENDBRANCH   9  10
ENDBRANCH   7   9
ENDBRANCH   5   7
ENDBRANCH   3   5
ENDBRANCH   1   3
BRANCH   1  17
HETATM   17  C11 UNK     1      19.443  -4.205  36.713  1.00  0.00     0.036 A 
HETATM   18  C12 UNK     1      20.715  -4.392  37.213  1.00  0.00     0.067 A 
HETATM   19  C14 UNK     1      21.030  -5.630  37.776  1.00  0.00     0.092 A 
HETATM   20  C13 UNK     1      20.106  -6.673  37.849  1.00  0.00     0.004 A 
HETATM   21  O1  UNK     1      22.339  -5.780  38.276  1.00  0.00    -0.275 OA
HETATM   22  C16 UNK     1      18.825  -6.443  37.331  1.00  0.00     0.017 A 
HETATM   23  C17 UNK     1      20.524  -7.942  38.459  1.00  0.00    -0.043 A 
HETATM   24  C15 UNK     1      18.493  -5.208  36.762  1.00  0.00     0.030 A 
HETATM   25  C18 UNK     1      21.776  -8.056  38.926  1.00  0.00     0.090 A 
HETATM   26  C19 UNK     1      19.554  -9.084  38.551  1.00  0.00     0.049 C 
HETATM   27  C20 UNK     1      22.762  -6.965  38.857  1.00  0.00     0.288 A 
HETATM   28  O2  UNK     1      23.899  -7.107  39.294  1.00  0.00    -0.260 OA
ENDBRANCH   1  17
TORSDOF 6
ENDMDL
MODEL 7
REMARK VINA RESULT:      -8.4      3.614      6.048
REMARK  6 active torsions:
REMARK  status: ('A' for Active; 'I' for Inactive)
REMARK    1  A    between atoms: C6_12  and  N1_4 
REMARK    2  A    between atoms: C10_16  and  N2_5 
REMARK    3  A    between atoms: C8_14  and  N2_5 
REMARK    4  A    between atoms: C10_16  and  N3_6 
REMARK    5  A    between atoms: C11_17  and  N3_6 
REMARK    6  A    between atoms: C6_12  and  C8_14 
ROOT
HETATM    1  N3  UNK     1      17.533   4.143  31.765  1.00  0.00    -0.333 N 
HETATM    2  H20 UNK     1      16.584   4.190  31.408  1.00  0.00     0.168 HD
ENDROOT
BRANCH   1   3
HETATM    3  C10 UNK     1      18.032   5.347  32.248  1.00  0.00     0.172 C 
HETATM    4  S1  UNK     1      19.533   6.044  31.967  1.00  0.00    -0.041 SA
BRANCH   3   5
HETATM    5  N2  UNK     1      17.136   6.069  33.032  1.00  0.00    -0.361 N 
HETATM    6  H19 UNK     1      16.728   5.566  33.815  1.00  0.00     0.162 HD
BRANCH   5   7
HETATM    7  C8  UNK     1      16.775   7.462  32.891  1.00  0.00     0.108 C 
HETATM    8  C9  UNK     1      15.750   7.618  31.770  1.00  0.00     0.034 C 
BRANCH   7   9
HETATM    9  C6  UNK     1      16.283   8.004  34.239  1.00  0.00     0.296 C 
BRANCH   9  10
HETATM   10  N1  UNK     1      16.858   9.310  34.559  1.00  0.00     0.090 N 
HETATM   11  C4  UNK     1      15.859  10.371  34.371  1.00  0.00     0.273 C 
HETATM   12  C2  UNK     1      16.429  11.739  34.752  1.00  0.00     0.034 C 
HETATM   13  C1  UNK     1      17.702  12.053  33.959  1.00  0.00    -0.015 C 
HETATM   14  C3  UNK     1      18.700  10.898  34.102  1.00  0.00     0.034 C 
HETATM   15  C7  UNK     1      18.321  13.372  34.414  1.00  0.00     0.010 C 
HETATM   16  C5  UNK     1      18.054   9.558  33.742  1.00  0.00     0.273 C 
ENDBRANCH   9  10
ENDBRANCH   7   9
ENDBRANCH   5   7
ENDBRANCH   3   5
ENDBRANCH   1   3
BRANCH   1  17
HETATM   17  C11 UNK     1      18.178   2.948  31.353  1.00  0.00     0.036 A 
HETATM   18  C12 UNK     1      18.366   1.932  32.268  1.00  0.00     0.067 A 
HETATM   19  C14 UNK     1      19.002   0.765  31.842  1.00  0.00     0.092 A 
HETATM   20  C13 UNK     1      19.449   0.596  30.531  1.00  0.00     0.004 A 
HETATM   21  O1  UNK     1      19.173  -0.248  32.806  1.00  0.00    -0.275 OA
HETATM   22  C16 UNK     1      19.240   1.650  29.632  1.00  0.00     0.017 A 
HETATM   23  C17 UNK     1      20.108  -0.666  30.169  1.00  0.00    -0.043 A 
HETATM   24  C15 UNK     1      18.603   2.827  30.044  1.00  0.00     0.030 A 
HETATM   25  C18 UNK     1      20.258  -1.612  31.108  1.00  0.00     0.090 A 
HETATM   26  C19 UNK     1      20.601  -0.878  28.768  1.00  0.00     0.049 C 
HETATM   27  C20 UNK     1      19.791  -1.448  32.495  1.00  0.00     0.288 A 
HETATM   28  O2  UNK     1      19.946  -2.336  33.327  1.00  0.00    -0.260 OA
ENDBRANCH   1  17
TORSDOF 6
ENDMDL
MODEL 8
REMARK VINA RESULT:      -8.3      4.236      9.796
REMARK  6 active torsions:
REMARK  status: ('A' for Active; 'I' for Inactive)
REMARK    1  A    between atoms: C6_12  and  N1_4 
REMARK    2  A    between atoms: C10_16  and  N2_5 
REMARK    3  A    between atoms: C8_14  and  N2_5 
REMARK    4  A    between atoms: C10_16  and  N3_6 
REMARK    5  A    between atoms: C11_17  and  N3_6 
REMARK    6  A    between atoms: C6_12  and  C8_14 
ROOT
HETATM    1  N3  UNK     1      18.723  -2.022  35.058  1.00  0.00    -0.333 N 
HETATM    2  H20 UNK     1      18.510  -2.950  34.705  1.00  0.00     0.168 HD
ENDROOT
BRANCH   1   3
HETATM    3  C10 UNK     1      18.595  -1.883  36.436  1.00  0.00     0.172 C 
HETATM    4  S1  UNK     1      17.904  -0.619  37.298  1.00  0.00    -0.041 SA
BRANCH   3   5
HETATM    5  N2  UNK     1      19.072  -2.964  37.171  1.00  0.00    -0.361 N 
HETATM    6  H19 UNK     1      18.871  -2.946  38.167  1.00  0.00     0.162 HD
BRANCH   5   7
HETATM    7  C8  UNK     1      19.762  -4.130  36.666  1.00  0.00     0.108 C 
HETATM    8  C9  UNK     1      20.989  -4.417  37.528  1.00  0.00     0.034 C 
BRANCH   7   9
HETATM    9  C6  UNK     1      18.786  -5.312  36.593  1.00  0.00     0.296 C 
BRANCH   9  10
HETATM   10  N1  UNK     1      19.431  -6.588  36.902  1.00  0.00     0.090 N 
HETATM   11  C4  UNK     1      19.610  -7.382  35.679  1.00  0.00     0.273 C 
HETATM   12  C2  UNK     1      20.332  -8.698  35.977  1.00  0.00     0.034 C 
HETATM   13  C1  UNK     1      19.591  -9.512  37.044  1.00  0.00    -0.015 C 
HETATM   14  C3  UNK     1      19.344  -8.641  38.280  1.00  0.00     0.034 C 
HETATM   15  C7  UNK     1      20.368 -10.774  37.409  1.00  0.00     0.010 C 
HETATM   16  C5  UNK     1      18.654  -7.327  37.906  1.00  0.00     0.273 C 
ENDBRANCH   9  10
ENDBRANCH   7   9
ENDBRANCH   5   7
ENDBRANCH   3   5
ENDBRANCH   1   3
BRANCH   1  17
HETATM   17  C11 UNK     1      18.758  -1.068  34.009  1.00  0.00     0.036 A 
HETATM   18  C12 UNK     1      19.242  -1.441  32.773  1.00  0.00     0.067 A 
HETATM   19  C14 UNK     1      19.267  -0.486  31.755  1.00  0.00     0.092 A 
HETATM   20  C13 UNK     1      18.821   0.822  31.949  1.00  0.00     0.004 A 
HETATM   21  O1  UNK     1      19.768  -0.908  30.507  1.00  0.00    -0.275 OA
HETATM   22  C16 UNK     1      18.336   1.162  33.218  1.00  0.00     0.017 A 
HETATM   23  C17 UNK     1      18.883   1.761  30.821  1.00  0.00    -0.043 A 
HETATM   24  C15 UNK     1      18.305   0.216  34.250  1.00  0.00     0.030 A 
HETATM   25  C18 UNK     1      19.365   1.332  29.645  1.00  0.00     0.090 A 
HETATM   26  C19 UNK     1      18.412   3.175  30.997  1.00  0.00     0.049 C 
HETATM   27  C20 UNK     1      19.839  -0.044  29.426  1.00  0.00     0.288 A 
HETATM   28  O2  UNK     1      20.274  -0.400  28.335  1.00  0.00    -0.260 OA
ENDBRANCH   1  17
TORSDOF 6
ENDMDL
MODEL 9
REMARK VINA RESULT:      -8.2      2.889      3.905
REMARK  6 active torsions:
REMARK  status: ('A' for Active; 'I' for Inactive)
REMARK    1  A    between atoms: C6_12  and  N1_4 
REMARK    2  A    between atoms: C10_16  and  N2_5 
REMARK    3  A    between atoms: C8_14  and  N2_5 
REMARK    4  A    between atoms: C10_16  and  N3_6 
REMARK    5  A    between atoms: C11_17  and  N3_6 
REMARK    6  A    between atoms: C6_12  and  C8_14 
ROOT
HETATM    1  N3  UNK     1      17.965   2.826  31.864  1.00  0.00    -0.333 N 
HETATM    2  H20 UNK     1      17.083   3.322  31.949  1.00  0.00     0.168 HD
ENDROOT
BRANCH   1   3
HETATM    3  C10 UNK     1      18.580   2.946  30.622  1.00  0.00     0.172 C 
HETATM    4  S1  UNK     1      18.373   1.990  29.258  1.00  0.00    -0.041 SA
BRANCH   3   5
HETATM    5  N2  UNK     1      19.444   4.031  30.510  1.00  0.00    -0.361 N 
HETATM    6  H19 UNK     1      20.144   3.965  29.777  1.00  0.00     0.162 HD
BRANCH   5   7
HETATM    7  C8  UNK     1      19.412   5.259  31.274  1.00  0.00     0.108 C 
HETATM    8  C9  UNK     1      20.820   5.842  31.371  1.00  0.00     0.034 C 
BRANCH   7   9
HETATM    9  C6  UNK     1      18.399   6.227  30.648  1.00  0.00     0.296 C 
BRANCH   9  10
HETATM   10  N1  UNK     1      17.662   6.991  31.654  1.00  0.00     0.090 N 
HETATM   11  C4  UNK     1      17.157   6.098  32.707  1.00  0.00     0.273 C 
HETATM   12  C2  UNK     1      16.428   6.888  33.795  1.00  0.00     0.034 C 
HETATM   13  C1  UNK     1      15.288   7.727  33.208  1.00  0.00    -0.015 C 
HETATM   14  C3  UNK     1      15.820   8.591  32.060  1.00  0.00     0.034 C 
HETATM   15  C7  UNK     1      14.631   8.588  34.283  1.00  0.00     0.010 C 
HETATM   16  C5  UNK     1      16.568   7.745  31.028  1.00  0.00     0.273 C 
ENDBRANCH   9  10
ENDBRANCH   7   9
ENDBRANCH   5   7
ENDBRANCH   3   5
ENDBRANCH   1   3
BRANCH   1  17
HETATM   17  C11 UNK     1      18.133   1.892  32.918  1.00  0.00     0.036 A 
HETATM   18  C12 UNK     1      17.888   2.288  34.217  1.00  0.00     0.067 A 
HETATM   19  C14 UNK     1      18.059   1.353  35.238  1.00  0.00     0.092 A 
HETATM   20  C13 UNK     1      18.467   0.041  34.988  1.00  0.00     0.004 A 
HETATM   21  O1  UNK     1      17.798   1.796  36.550  1.00  0.00    -0.275 OA
HETATM   22  C16 UNK     1      18.705  -0.322  33.656  1.00  0.00     0.017 A 
HETATM   23  C17 UNK     1      18.622  -0.877  36.124  1.00  0.00    -0.043 A 
HETATM   24  C15 UNK     1      18.538   0.605  32.620  1.00  0.00     0.030 A 
HETATM   25  C18 UNK     1      18.366  -0.426  37.361  1.00  0.00     0.090 A 
HETATM   26  C19 UNK     1      19.059  -2.292  35.889  1.00  0.00     0.049 C 
HETATM   27  C20 UNK     1      17.935   0.954  37.641  1.00  0.00     0.288 A 
HETATM   28  O2  UNK     1      17.711   1.330  38.787  1.00  0.00    -0.260 OA
ENDBRANCH   1  17
TORSDOF 6
ENDMDL
MODEL 10
REMARK VINA RESULT:      -8.2      3.902      7.681
REMARK  6 active torsions:
REMARK  status: ('A' for Active; 'I' for Inactive)
REMARK    1  A    between atoms: C6_12  and  N1_4 
REMARK    2  A    between atoms: C10_16  and  N2_5 
REMARK    3  A    between atoms: C8_14  and  N2_5 
REMARK    4  A    between atoms: C10_16  and  N3_6 
REMARK    5  A    between atoms: C11_17  and  N3_6 
REMARK    6  A    between atoms: C6_12  and  C8_14 
ROOT
HETATM    1  N3  UNK     1      19.304   3.659  30.851  1.00  0.00    -0.333 N 
HETATM    2  H20 UNK     1      20.063   3.931  30.235  1.00  0.00     0.168 HD
ENDROOT
BRANCH   1   3
HETATM    3  C10 UNK     1      18.701   2.448  30.529  1.00  0.00     0.172 C 
HETATM    4  S1  UNK     1      17.986   1.991  29.080  1.00  0.00    -0.041 SA
BRANCH   3   5
HETATM    5  N2  UNK     1      18.744   1.495  31.542  1.00  0.00    -0.361 N 
HETATM    6  H19 UNK     1      18.460   1.814  32.463  1.00  0.00     0.162 HD
BRANCH   5   7
HETATM    7  C8  UNK     1      19.084   0.095  31.412  1.00  0.00     0.108 C 
HETATM    8  C9  UNK     1      20.459  -0.043  30.761  1.00  0.00     0.034 C 
BRANCH   7   9
HETATM    9  C6  UNK     1      18.996  -0.584  32.785  1.00  0.00     0.296 C 
BRANCH   9  10
HETATM   10  N1  UNK     1      18.172   0.170  33.729  1.00  0.00     0.090 N 
HETATM   11  C4  UNK     1      18.984   0.634  34.863  1.00  0.00     0.273 C 
HETATM   12  C2  UNK     1      18.147   1.470  35.833  1.00  0.00     0.034 C 
HETATM   13  C1  UNK     1      16.924   0.692  36.330  1.00  0.00    -0.015 C 
HETATM   14  C3  UNK     1      16.135   0.149  35.133  1.00  0.00     0.034 C 
HETATM   15  C7  UNK     1      16.042   1.565  37.217  1.00  0.00     0.010 C 
HETATM   16  C5  UNK     1      17.038  -0.644  34.186  1.00  0.00     0.273 C 
ENDBRANCH   9  10
ENDBRANCH   7   9
ENDBRANCH   5   7
ENDBRANCH   3   5
ENDBRANCH   1   3
BRANCH   1  17
HETATM   17  C11 UNK     1      18.870   4.750  31.647  1.00  0.00     0.036 A 
HETATM   18  C12 UNK     1      19.802   5.645  32.131  1.00  0.00     0.067 A 
HETATM   19  C14 UNK     1      19.353   6.713  32.911  1.00  0.00     0.092 A 
HETATM   20  C13 UNK     1      18.003   6.899  33.213  1.00  0.00     0.004 A 
HETATM   21  O1  UNK     1      20.336   7.604  33.384  1.00  0.00    -0.275 OA
HETATM   22  C16 UNK     1      17.089   5.969  32.703  1.00  0.00     0.017 A 
HETATM   23  C17 UNK     1      17.621   8.051  34.041  1.00  0.00    -0.043 A 
HETATM   24  C15 UNK     1      17.523   4.893  31.919  1.00  0.00     0.030 A 
HETATM   25  C18 UNK     1      18.578   8.883  34.477  1.00  0.00     0.090 A 
HETATM   26  C19 UNK     1      16.178   8.279  34.384  1.00  0.00     0.049 C 
HETATM   27  C20 UNK     1      20.005   8.699  34.166  1.00  0.00     0.288 A 
HETATM   28  O2  UNK     1      20.852   9.481  34.585  1.00  0.00    -0.260 OA
ENDBRANCH   1  17
TORSDOF 6
ENDMDL
