MODEL 1
REMARK VINA RESULT:      -8.8      0.000      0.000
REMARK  1 active torsions:
REMARK  status: ('A' for Active; 'I' for Inactive)
REMARK    1  A    between atoms: C5_8  and  C8_11 
ROOT
HETATM    1  N1  UNK     1      16.317   5.794  32.279  1.00  0.00    -0.278 NA
HETATM    2  C1  UNK     1      15.831   7.160  32.529  1.00  0.00     0.051 C 
HETATM    3  C2  UNK     1      16.532   7.786  33.747  1.00  0.00     0.071 C 
HETATM    4  C3  UNK     1      18.023   7.630  33.644  1.00  0.00    -0.043 A 
HETATM    5  C4  UNK     1      18.547   6.491  33.019  1.00  0.00    -0.000 A 
HETATM    6  C5  UNK     1      17.562   5.513  32.488  1.00  0.00     0.079 C 
HETATM    7  C6  UNK     1      14.327   7.050  32.817  1.00  0.00     0.040 C 
HETATM    8  C7  UNK     1      16.029   7.995  31.252  1.00  0.00     0.040 C 
HETATM    9  C9  UNK     1      18.887   8.582  34.195  1.00  0.00     0.008 A 
HETATM   10  C10 UNK     1      19.933   6.331  32.909  1.00  0.00     0.014 A 
HETATM   11  C11 UNK     1      20.268   8.413  34.096  1.00  0.00     0.001 A 
HETATM   12  C12 UNK     1      20.788   7.294  33.448  1.00  0.00     0.001 A 
ENDROOT
BRANCH   6  13
HETATM   13  C8  UNK     1      18.022   4.133  32.222  1.00  0.00     0.070 A 
HETATM   14  C13 UNK     1      18.194   3.805  30.936  1.00  0.00     0.034 A 
HETATM   15  C15 UNK     1      18.645   2.470  30.573  1.00  0.00    -0.001 A 
HETATM   16  C16 UNK     1      18.892   1.546  31.583  1.00  0.00     0.089 A 
HETATM   17  C17 UNK     1      18.838   2.085  29.245  1.00  0.00     0.014 A 
HETATM   18  O1  UNK     1      18.708   1.897  32.935  1.00  0.00    -0.274 OA
HETATM   19  C18 UNK     1      19.324   0.251  31.304  1.00  0.00     0.038 A 
HETATM   20  C14 UNK     1      18.279   3.167  33.313  1.00  0.00     0.301 A 
HETATM   21  O2  UNK     1      18.121   3.463  34.492  1.00  0.00    -0.259 OA
HETATM   22  C20 UNK     1      19.514  -0.125  29.976  1.00  0.00     0.003 A 
HETATM   23  C19 UNK     1      19.272   0.789  28.948  1.00  0.00     0.001 A 
ENDBRANCH   6  13
TORSDOF 1
ENDMDL
MODEL 2
REMARK VINA RESULT:      -8.7     15.264     16.790
REMARK  1 active torsions:
REMARK  status: ('A' for Active; 'I' for Inactive)
REMARK    1  A    between atoms: C5_8  and  C8_11 
ROOT
HETATM    1  N1  UNK     1      31.103  -5.341  35.668  1.00  0.00    -0.278 NA
HETATM    2  C1  UNK     1      31.537  -4.596  36.859  1.00  0.00     0.051 C 
HETATM    3  C2  UNK     1      30.342  -4.249  37.765  1.00  0.00     0.071 C 
HETATM    4  C3  UNK     1      29.498  -5.464  38.025  1.00  0.00    -0.043 A 
HETATM    5  C4  UNK     1      29.385  -6.441  37.026  1.00  0.00    -0.000 A 
HETATM    6  C5  UNK     1      30.134  -6.192  35.767  1.00  0.00     0.079 C 
HETATM    7  C6  UNK     1      32.182  -3.295  36.359  1.00  0.00     0.040 C 
HETATM    8  C7  UNK     1      32.604  -5.422  37.596  1.00  0.00     0.040 C 
HETATM    9  C9  UNK     1      28.798  -5.613  39.226  1.00  0.00     0.008 A 
HETATM   10  C10 UNK     1      28.608  -7.582  37.252  1.00  0.00     0.014 A 
HETATM   11  C11 UNK     1      28.014  -6.745  39.444  1.00  0.00     0.001 A 
HETATM   12  C12 UNK     1      27.925  -7.729  38.461  1.00  0.00     0.001 A 
ENDROOT
BRANCH   6  13
HETATM   13  C8  UNK     1      29.725  -6.931  34.553  1.00  0.00     0.070 A 
HETATM   14  C13 UNK     1      28.772  -6.359  33.807  1.00  0.00     0.034 A 
HETATM   15  C15 UNK     1      28.303  -7.009  32.593  1.00  0.00    -0.001 A 
HETATM   16  C16 UNK     1      28.860  -8.230  32.225  1.00  0.00     0.089 A 
HETATM   17  C17 UNK     1      27.312  -6.449  31.784  1.00  0.00     0.014 A 
HETATM   18  O1  UNK     1      29.861  -8.827  33.015  1.00  0.00    -0.274 OA
HETATM   19  C18 UNK     1      28.454  -8.905  31.076  1.00  0.00     0.038 A 
HETATM   20  C14 UNK     1      30.332  -8.228  34.181  1.00  0.00     0.301 A 
HETATM   21  O2  UNK     1      31.203  -8.755  34.863  1.00  0.00    -0.259 OA
HETATM   22  C20 UNK     1      27.465  -8.340  30.274  1.00  0.00     0.003 A 
HETATM   23  C19 UNK     1      26.894  -7.114  30.627  1.00  0.00     0.001 A 
ENDBRANCH   6  13
TORSDOF 1
ENDMDL
MODEL 3
REMARK VINA RESULT:      -8.7      1.299      2.020
REMARK  1 active torsions:
REMARK  status: ('A' for Active; 'I' for Inactive)
REMARK    1  A    between atoms: C5_8  and  C8_11 
ROOT
HETATM    1  N1  UNK     1      16.373   5.841  32.133  1.00  0.00    -0.278 NA
HETATM    2  C1  UNK     1      15.874   7.180  32.483  1.00  0.00     0.051 C 
HETATM    3  C2  UNK     1      16.566   7.718  33.748  1.00  0.00     0.071 C 
HETATM    4  C3  UNK     1      18.058   7.582  33.639  1.00  0.00    -0.043 A 
HETATM    5  C4  UNK     1      18.594   6.497  32.932  1.00  0.00    -0.000 A 
HETATM    6  C5  UNK     1      17.619   5.554  32.326  1.00  0.00     0.079 C 
HETATM    7  C6  UNK     1      14.370   7.036  32.756  1.00  0.00     0.040 C 
HETATM    8  C7  UNK     1      16.069   8.110  31.274  1.00  0.00     0.040 C 
HETATM    9  C9  UNK     1      18.913   8.497  34.264  1.00  0.00     0.008 A 
HETATM   10  C10 UNK     1      19.981   6.358  32.816  1.00  0.00     0.014 A 
HETATM   11  C11 UNK     1      20.294   8.348  34.158  1.00  0.00     0.001 A 
HETATM   12  C12 UNK     1      20.826   7.285  33.430  1.00  0.00     0.001 A 
ENDROOT
BRANCH   6  13
HETATM   13  C8  UNK     1      18.091   4.202  31.958  1.00  0.00     0.070 A 
HETATM   14  C13 UNK     1      17.945   3.252  32.889  1.00  0.00     0.034 A 
HETATM   15  C15 UNK     1      18.380   1.890  32.620  1.00  0.00    -0.001 A 
HETATM   16  C16 UNK     1      18.947   1.595  31.385  1.00  0.00     0.089 A 
HETATM   17  C17 UNK     1      18.246   0.866  33.562  1.00  0.00     0.014 A 
HETATM   18  O1  UNK     1      19.099   2.601  30.410  1.00  0.00    -0.274 OA
HETATM   19  C18 UNK     1      19.385   0.312  31.065  1.00  0.00     0.038 A 
HETATM   20  C14 UNK     1      18.692   3.913  30.637  1.00  0.00     0.301 A 
HETATM   21  O2  UNK     1      18.828   4.781  29.783  1.00  0.00    -0.259 OA
HETATM   22  C20 UNK     1      19.248  -0.703  32.009  1.00  0.00     0.003 A 
HETATM   23  C19 UNK     1      18.680  -0.427  33.256  1.00  0.00     0.001 A 
ENDBRANCH   6  13
TORSDOF 1
ENDMDL
MODEL 4
REMARK VINA RESULT:      -8.5      4.774      6.823
REMARK  1 active torsions:
REMARK  status: ('A' for Active; 'I' for Inactive)
REMARK    1  A    between atoms: C5_8  and  C8_11 
ROOT
HETATM    1  N1  UNK     1      17.148   0.617  35.236  1.00  0.00    -0.278 NA
HETATM    2  C1  UNK     1      16.734   0.481  36.641  1.00  0.00     0.051 C 
HETATM    3  C2  UNK     1      16.879  -0.973  37.125  1.00  0.00     0.071 C 
HETATM    4  C3  UNK     1      18.240  -1.514  36.789  1.00  0.00    -0.043 A 
HETATM    5  C4  UNK     1      18.876  -1.078  35.618  1.00  0.00    -0.000 A 
HETATM    6  C5  UNK     1      18.140  -0.085  34.793  1.00  0.00     0.079 C 
HETATM    7  C6  UNK     1      15.254   0.886  36.708  1.00  0.00     0.040 C 
HETATM    8  C7  UNK     1      17.553   1.463  37.494  1.00  0.00     0.040 C 
HETATM    9  C9  UNK     1      18.857  -2.469  37.602  1.00  0.00     0.008 A 
HETATM   10  C10 UNK     1      20.145  -1.566  35.292  1.00  0.00     0.014 A 
HETATM   11  C11 UNK     1      20.116  -2.965  37.267  1.00  0.00     0.001 A 
HETATM   12  C12 UNK     1      20.761  -2.509  36.119  1.00  0.00     0.001 A 
ENDROOT
BRANCH   6  13
HETATM   13  C8  UNK     1      18.537   0.079  33.378  1.00  0.00     0.070 A 
HETATM   14  C13 UNK     1      19.091  -0.990  32.793  1.00  0.00     0.034 A 
HETATM   15  C15 UNK     1      19.514  -0.925  31.402  1.00  0.00    -0.001 A 
HETATM   16  C16 UNK     1      19.334   0.260  30.697  1.00  0.00     0.089 A 
HETATM   17  C17 UNK     1      20.096  -2.016  30.750  1.00  0.00     0.014 A 
HETATM   18  O1  UNK     1      18.751   1.381  31.320  1.00  0.00    -0.274 OA
HETATM   19  C18 UNK     1      19.719   0.388  29.364  1.00  0.00     0.038 A 
HETATM   20  C14 UNK     1      18.335   1.351  32.649  1.00  0.00     0.301 A 
HETATM   21  O2  UNK     1      17.830   2.331  33.183  1.00  0.00    -0.259 OA
HETATM   22  C20 UNK     1      20.299  -0.704  28.722  1.00  0.00     0.003 A 
HETATM   23  C19 UNK     1      20.487  -1.904  29.413  1.00  0.00     0.001 A 
ENDBRANCH   6  13
TORSDOF 1
ENDMDL
MODEL 5
REMARK VINA RESULT:      -8.3     15.430     17.691
REMARK  1 active torsions:
REMARK  status: ('A' for Active; 'I' for Inactive)
REMARK    1  A    between atoms: C5_8  and  C8_11 
ROOT
HETATM    1  N1  UNK     1      30.714  -7.494  36.374  1.00  0.00    -0.278 NA
HETATM    2  C1  UNK     1      31.102  -7.222  37.766  1.00  0.00     0.051 C 
HETATM    3  C2  UNK     1      29.883  -6.816  38.613  1.00  0.00     0.071 C 
HETATM    4  C3  UNK     1      28.755  -7.791  38.427  1.00  0.00    -0.043 A 
HETATM    5  C4  UNK     1      28.590  -8.413  37.182  1.00  0.00    -0.000 A 
HETATM    6  C5  UNK     1      29.575  -8.056  36.127  1.00  0.00     0.079 C 
HETATM    7  C6  UNK     1      32.098  -6.053  37.728  1.00  0.00     0.040 C 
HETATM    8  C7  UNK     1      31.816  -8.461  38.331  1.00  0.00     0.040 C 
HETATM    9  C9  UNK     1      27.849  -8.053  39.461  1.00  0.00     0.008 A 
HETATM   10  C10 UNK     1      27.549  -9.327  36.992  1.00  0.00     0.014 A 
HETATM   11  C11 UNK     1      26.805  -8.954  39.264  1.00  0.00     0.001 A 
HETATM   12  C12 UNK     1      26.660  -9.594  38.035  1.00  0.00     0.001 A 
ENDROOT
BRANCH   6  13
HETATM   13  C8  UNK     1      29.216  -8.324  34.718  1.00  0.00     0.070 A 
HETATM   14  C13 UNK     1      28.557  -7.349  34.081  1.00  0.00     0.034 A 
HETATM   15  C15 UNK     1      28.161  -7.519  32.691  1.00  0.00    -0.001 A 
HETATM   16  C16 UNK     1      28.479  -8.707  32.041  1.00  0.00     0.089 A 
HETATM   17  C17 UNK     1      27.472  -6.528  31.988  1.00  0.00     0.014 A 
HETATM   18  O1  UNK     1      29.173  -9.729  32.718  1.00  0.00    -0.274 OA
HETATM   19  C18 UNK     1      28.128  -8.932  30.712  1.00  0.00     0.038 A 
HETATM   20  C14 UNK     1      29.566  -9.596  34.047  1.00  0.00     0.301 A 
HETATM   21  O2  UNK     1      30.168 -10.491  34.628  1.00  0.00    -0.259 OA
HETATM   22  C20 UNK     1      27.441  -7.940  30.017  1.00  0.00     0.003 A 
HETATM   23  C19 UNK     1      27.113  -6.740  30.653  1.00  0.00     0.001 A 
ENDBRANCH   6  13
TORSDOF 1
ENDMDL
MODEL 6
REMARK VINA RESULT:      -8.3     22.563     24.438
REMARK  1 active torsions:
REMARK  status: ('A' for Active; 'I' for Inactive)
REMARK    1  A    between atoms: C5_8  and  C8_11 
ROOT
HETATM    1  N1  UNK     1      14.055  10.470   9.159  1.00  0.00    -0.278 NA
HETATM    2  C1  UNK     1      15.350  11.127   9.397  1.00  0.00     0.051 C 
HETATM    3  C2  UNK     1      16.161  10.382  10.472  1.00  0.00     0.071 C 
HETATM    4  C3  UNK     1      16.219   8.911  10.173  1.00  0.00    -0.043 A 
HETATM    5  C4  UNK     1      15.125   8.299   9.545  1.00  0.00    -0.000 A 
HETATM    6  C5  UNK     1      13.976   9.180   9.210  1.00  0.00     0.079 C 
HETATM    7  C6  UNK     1      15.042  12.547   9.895  1.00  0.00     0.040 C 
HETATM    8  C7  UNK     1      16.106  11.226   8.062  1.00  0.00     0.040 C 
HETATM    9  C9  UNK     1      17.326   8.141  10.547  1.00  0.00     0.008 A 
HETATM   10  C10 UNK     1      15.163   6.932   9.255  1.00  0.00     0.014 A 
HETATM   11  C11 UNK     1      17.355   6.776  10.268  1.00  0.00     0.001 A 
HETATM   12  C12 UNK     1      16.279   6.175   9.618  1.00  0.00     0.001 A 
ENDROOT
BRANCH   6  13
HETATM   13  C8  UNK     1      12.662   8.549   8.959  1.00  0.00     0.070 A 
HETATM   14  C13 UNK     1      12.495   7.991   7.754  1.00  0.00     0.034 A 
HETATM   15  C15 UNK     1      11.237   7.345   7.414  1.00  0.00    -0.001 A 
HETATM   16  C16 UNK     1      10.216   7.319   8.359  1.00  0.00     0.089 A 
HETATM   17  C17 UNK     1      11.019   6.750   6.169  1.00  0.00     0.014 A 
HETATM   18  O1  UNK     1      10.398   7.910   9.625  1.00  0.00    -0.274 OA
HETATM   19  C18 UNK     1       8.987   6.718   8.096  1.00  0.00     0.038 A 
HETATM   20  C14 UNK     1      11.591   8.534   9.981  1.00  0.00     0.301 A 
HETATM   21  O2  UNK     1      11.740   9.045  11.084  1.00  0.00    -0.259 OA
HETATM   22  C20 UNK     1       8.778   6.126   6.853  1.00  0.00     0.003 A 
HETATM   23  C19 UNK     1       9.791   6.142   5.890  1.00  0.00     0.001 A 
ENDBRANCH   6  13
TORSDOF 1
ENDMDL
MODEL 7
REMARK VINA RESULT:      -8.1      1.897      3.688
REMARK  1 active torsions:
REMARK  status: ('A' for Active; 'I' for Inactive)
REMARK    1  A    between atoms: C5_8  and  C8_11 
ROOT
HETATM    1  N1  UNK     1      19.234   7.155  33.315  1.00  0.00    -0.278 NA
HETATM    2  C1  UNK     1      19.043   8.354  34.147  1.00  0.00     0.051 C 
HETATM    3  C2  UNK     1      18.033   9.321  33.504  1.00  0.00     0.071 C 
HETATM    4  C3  UNK     1      16.780   8.597  33.103  1.00  0.00    -0.043 A 
HETATM    5  C4  UNK     1      16.870   7.264  32.679  1.00  0.00    -0.000 A 
HETATM    6  C5  UNK     1      18.228   6.660  32.670  1.00  0.00     0.079 C 
HETATM    7  C6  UNK     1      20.410   9.047  34.246  1.00  0.00     0.040 C 
HETATM    8  C7  UNK     1      18.610   7.914  35.555  1.00  0.00     0.040 C 
HETATM    9  C9  UNK     1      15.540   9.243  33.109  1.00  0.00     0.008 A 
HETATM   10  C10 UNK     1      15.713   6.571  32.306  1.00  0.00     0.014 A 
HETATM   11  C11 UNK     1      14.390   8.554  32.725  1.00  0.00     0.001 A 
HETATM   12  C12 UNK     1      14.476   7.220  32.331  1.00  0.00     0.001 A 
ENDROOT
BRANCH   6  13
HETATM   13  C8  UNK     1      18.450   5.451  31.848  1.00  0.00     0.070 A 
HETATM   14  C13 UNK     1      18.385   4.280  32.492  1.00  0.00     0.034 A 
HETATM   15  C15 UNK     1      18.588   3.034  31.768  1.00  0.00    -0.001 A 
HETATM   16  C16 UNK     1      18.851   3.083  30.403  1.00  0.00     0.089 A 
HETATM   17  C17 UNK     1      18.529   1.789  32.399  1.00  0.00     0.014 A 
HETATM   18  O1  UNK     1      18.920   4.320  29.732  1.00  0.00    -0.274 OA
HETATM   19  C18 UNK     1      19.057   1.928  29.653  1.00  0.00     0.038 A 
HETATM   20  C14 UNK     1      18.728   5.529  30.397  1.00  0.00     0.301 A 
HETATM   21  O2  UNK     1      18.789   6.600  29.805  1.00  0.00    -0.259 OA
HETATM   22  C20 UNK     1      18.996   0.690  30.289  1.00  0.00     0.003 A 
HETATM   23  C19 UNK     1      18.733   0.620  31.659  1.00  0.00     0.001 A 
ENDBRANCH   6  13
TORSDOF 1
ENDMDL
MODEL 8
REMARK VINA RESULT:      -8.1      5.910      8.381
REMARK  1 active torsions:
REMARK  status: ('A' for Active; 'I' for Inactive)
REMARK    1  A    between atoms: C5_8  and  C8_11 
ROOT
HETATM    1  N1  UNK     1      17.805  -0.613  36.444  1.00  0.00    -0.278 NA
HETATM    2  C1  UNK     1      17.087   0.603  36.032  1.00  0.00     0.051 C 
HETATM    3  C2  UNK     1      17.913   1.424  35.027  1.00  0.00     0.071 C 
HETATM    4  C3  UNK     1      18.417   0.553  33.912  1.00  0.00    -0.043 A 
HETATM    5  C4  UNK     1      18.736  -0.785  34.183  1.00  0.00    -0.000 A 
HETATM    6  C5  UNK     1      18.535  -1.244  35.583  1.00  0.00     0.079 C 
HETATM    7  C6  UNK     1      16.866   1.439  37.302  1.00  0.00     0.040 C 
HETATM    8  C7  UNK     1      15.716   0.198  35.465  1.00  0.00     0.040 C 
HETATM    9  C9  UNK     1      18.607   1.066  32.625  1.00  0.00     0.008 A 
HETATM   10  C10 UNK     1      19.201  -1.613  33.156  1.00  0.00     0.014 A 
HETATM   11  C11 UNK     1      19.083   0.242  31.606  1.00  0.00     0.001 A 
HETATM   12  C12 UNK     1      19.373  -1.096  31.871  1.00  0.00     0.001 A 
ENDROOT
BRANCH   6  13
HETATM   13  C8  UNK     1      19.240  -2.466  36.024  1.00  0.00     0.070 A 
HETATM   14  C13 UNK     1      18.470  -3.527  36.295  1.00  0.00     0.034 A 
HETATM   15  C15 UNK     1      19.072  -4.776  36.736  1.00  0.00    -0.001 A 
HETATM   16  C16 UNK     1      20.455  -4.846  36.871  1.00  0.00     0.089 A 
HETATM   17  C17 UNK     1      18.307  -5.908  37.029  1.00  0.00     0.014 A 
HETATM   18  O1  UNK     1      21.259  -3.726  36.585  1.00  0.00    -0.274 OA
HETATM   19  C18 UNK     1      21.093  -6.012  37.290  1.00  0.00     0.038 A 
HETATM   20  C14 UNK     1      20.713  -2.517  36.160  1.00  0.00     0.301 A 
HETATM   21  O2  UNK     1      21.421  -1.548  35.914  1.00  0.00    -0.259 OA
HETATM   22  C20 UNK     1      20.324  -7.136  37.580  1.00  0.00     0.003 A 
HETATM   23  C19 UNK     1      18.933  -7.085  37.451  1.00  0.00     0.001 A 
ENDBRANCH   6  13
TORSDOF 1
ENDMDL
MODEL 9
REMARK VINA RESULT:      -8.0     15.125     16.730
REMARK  1 active torsions:
REMARK  status: ('A' for Active; 'I' for Inactive)
REMARK    1  A    between atoms: C5_8  and  C8_11 
ROOT
HETATM    1  N1  UNK     1      28.538  -7.024  36.992  1.00  0.00    -0.278 NA
HETATM    2  C1  UNK     1      28.776  -6.446  38.323  1.00  0.00     0.051 C 
HETATM    3  C2  UNK     1      30.278  -6.416  38.655  1.00  0.00     0.071 C 
HETATM    4  C3  UNK     1      31.063  -5.808  37.528  1.00  0.00    -0.043 A 
HETATM    5  C4  UNK     1      30.621  -5.996  36.211  1.00  0.00    -0.000 A 
HETATM    6  C5  UNK     1      29.378  -6.792  36.036  1.00  0.00     0.079 C 
HETATM    7  C6  UNK     1      28.056  -7.351  39.335  1.00  0.00     0.040 C 
HETATM    8  C7  UNK     1      28.141  -5.047  38.374  1.00  0.00     0.040 C 
HETATM    9  C9  UNK     1      32.242  -5.095  37.772  1.00  0.00     0.008 A 
HETATM   10  C10 UNK     1      31.335  -5.432  35.149  1.00  0.00     0.014 A 
HETATM   11  C11 UNK     1      32.959  -4.546  36.710  1.00  0.00     0.001 A 
HETATM   12  C12 UNK     1      32.503  -4.709  35.403  1.00  0.00     0.001 A 
ENDROOT
BRANCH   6  13
HETATM   13  C8  UNK     1      29.108  -7.381  34.707  1.00  0.00     0.070 A 
HETATM   14  C13 UNK     1      28.324  -6.666  33.892  1.00  0.00     0.034 A 
HETATM   15  C15 UNK     1      28.002  -7.163  32.563  1.00  0.00    -0.001 A 
HETATM   16  C16 UNK     1      28.520  -8.389  32.158  1.00  0.00     0.089 A 
HETATM   17  C17 UNK     1      27.188  -6.450  31.679  1.00  0.00     0.014 A 
HETATM   18  O1  UNK     1      29.344  -9.137  33.022  1.00  0.00    -0.274 OA
HETATM   19  C18 UNK     1      28.248  -8.921  30.900  1.00  0.00     0.038 A 
HETATM   20  C14 UNK     1      29.671  -8.688  34.299  1.00  0.00     0.301 A 
HETATM   21  O2  UNK     1      30.388  -9.346  35.044  1.00  0.00    -0.259 OA
HETATM   22  C20 UNK     1      27.437  -8.204  30.024  1.00  0.00     0.003 A 
HETATM   23  C19 UNK     1      26.907  -6.971  30.412  1.00  0.00     0.001 A 
ENDBRANCH   6  13
TORSDOF 1
ENDMDL
MODEL 10
REMARK VINA RESULT:      -7.9     15.202     17.809
REMARK  1 active torsions:
REMARK  status: ('A' for Active; 'I' for Inactive)
REMARK    1  A    between atoms: C5_8  and  C8_11 
ROOT
HETATM    1  N1  UNK     1      30.414  -9.227  33.951  1.00  0.00    -0.278 NA
HETATM    2  C1  UNK     1      30.727  -9.942  32.705  1.00  0.00     0.051 C 
HETATM    3  C2  UNK     1      29.456 -10.194  31.874  1.00  0.00     0.071 C 
HETATM    4  C3  UNK     1      28.658  -8.930  31.722  1.00  0.00    -0.043 A 
HETATM    5  C4  UNK     1      28.664  -7.991  32.763  1.00  0.00    -0.000 A 
HETATM    6  C5  UNK     1      29.486  -8.327  33.955  1.00  0.00     0.079 C 
HETATM    7  C6  UNK     1      31.338 -11.292  33.108  1.00  0.00     0.040 C 
HETATM    8  C7  UNK     1      31.780  -9.137  31.925  1.00  0.00     0.040 C 
HETATM    9  C9  UNK     1      27.885  -8.698  30.580  1.00  0.00     0.008 A 
HETATM   10  C10 UNK     1      27.932  -6.806  32.636  1.00  0.00     0.014 A 
HETATM   11  C11 UNK     1      27.145  -7.523  30.463  1.00  0.00     0.001 A 
HETATM   12  C12 UNK     1      27.175  -6.576  31.486  1.00  0.00     0.001 A 
ENDROOT
BRANCH   6  13
HETATM   13  C8  UNK     1      29.199  -7.621  35.222  1.00  0.00     0.070 A 
HETATM   14  C13 UNK     1      29.967  -6.559  35.493  1.00  0.00     0.034 A 
HETATM   15  C15 UNK     1      29.760  -5.799  36.716  1.00  0.00    -0.001 A 
HETATM   16  C16 UNK     1      28.757  -6.195  37.594  1.00  0.00     0.089 A 
HETATM   17  C17 UNK     1      30.537  -4.684  37.039  1.00  0.00     0.014 A 
HETATM   18  O1  UNK     1      27.953  -7.315  37.303  1.00  0.00    -0.274 OA
HETATM   19  C18 UNK     1      28.509  -5.512  38.782  1.00  0.00     0.038 A 
HETATM   20  C14 UNK     1      28.125  -8.061  36.140  1.00  0.00     0.301 A 
HETATM   21  O2  UNK     1      27.422  -9.034  35.896  1.00  0.00    -0.259 OA
HETATM   22  C20 UNK     1      29.287  -4.401  39.097  1.00  0.00     0.003 A 
HETATM   23  C19 UNK     1      30.300  -3.987  38.228  1.00  0.00     0.001 A 
ENDBRANCH   6  13
TORSDOF 1
ENDMDL
