MODEL 1
REMARK VINA RESULT:      -7.8      0.000      0.000
REMARK  4 active torsions:
REMARK  status: ('A' for Active; 'I' for Inactive)
REMARK    1  A    between atoms: C10_13  and  O2_2 
REMARK    2  A    between atoms: C13_16  and  O2_2 
REMARK    3  A    between atoms: C2_5  and  C4_7 
REMARK    4  A    between atoms: C4_7  and  C8_11 
ROOT
HETATM    1  O1  UNK     1      15.950   6.480   9.758  1.00  0.00    -0.274 OA
HETATM    2  O3  UNK     1      14.821   4.512   9.692  1.00  0.00    -0.259 OA
HETATM    3  C1  UNK     1      13.466   7.838   9.793  1.00  0.00    -0.036 A 
HETATM    4  C2  UNK     1      13.493   6.490   9.723  1.00  0.00     0.029 A 
HETATM    5  C3  UNK     1      14.739   8.589   9.812  1.00  0.00     0.005 A 
HETATM    6  C5  UNK     1      15.938   7.883   9.796  1.00  0.00     0.092 A 
HETATM    7  C6  UNK     1      14.822   9.991   9.835  1.00  0.00     0.017 A 
HETATM    8  C7  UNK     1      14.781   5.739   9.719  1.00  0.00     0.295 A 
HETATM    9  C9  UNK     1      17.184   8.515   9.812  1.00  0.00     0.075 A 
HETATM   10  C10 UNK     1      17.242   9.903   9.842  1.00  0.00     0.071 A 
HETATM   11  C11 UNK     1      12.196   8.647   9.871  1.00  0.00     0.050 C 
HETATM   12  C12 UNK     1      16.062  10.641   9.851  1.00  0.00     0.038 A 
ENDROOT
BRANCH   4  13
HETATM   13  C4  UNK     1      12.274   5.608   9.634  1.00  0.00     0.084 C 
BRANCH  13  14
HETATM   14  C8  UNK     1      11.495   5.843   8.374  1.00  0.00    -0.054 A 
HETATM   15  C14 UNK     1      10.114   5.992   8.436  1.00  0.00     0.007 A 
HETATM   16  C18 UNK     1       9.389   6.210   7.264  1.00  0.00     0.001 A 
HETATM   17  C20 UNK     1      10.050   6.279   6.038  1.00  0.00     0.000 A 
HETATM   18  C19 UNK     1      11.436   6.129   5.983  1.00  0.00     0.001 A 
HETATM   19  C15 UNK     1      12.161   5.911   7.155  1.00  0.00     0.007 A 
ENDBRANCH  13  14
ENDBRANCH   4  13
BRANCH  10  20
HETATM   20  O2  UNK     1      18.445  10.537   9.856  1.00  0.00    -0.347 OA
BRANCH  20  21
HETATM   21  C13 UNK     1      18.556  11.737   9.090  1.00  0.00     0.120 C 
HETATM   22  C16 UNK     1      19.536  12.679   9.774  1.00  0.00     0.040 C 
HETATM   23  C17 UNK     1      18.998  11.390   7.677  1.00  0.00     0.040 C 
ENDBRANCH  20  21
ENDBRANCH  10  20
TORSDOF 4
ENDMDL
MODEL 2
REMARK VINA RESULT:      -7.6      1.500      2.210
REMARK  4 active torsions:
REMARK  status: ('A' for Active; 'I' for Inactive)
REMARK    1  A    between atoms: C10_13  and  O2_2 
REMARK    2  A    between atoms: C13_16  and  O2_2 
REMARK    3  A    between atoms: C2_5  and  C4_7 
REMARK    4  A    between atoms: C4_7  and  C8_11 
ROOT
HETATM    1  O1  UNK     1      13.551   8.970   9.859  1.00  0.00    -0.274 OA
HETATM    2  O3  UNK     1      11.331   8.515   9.726  1.00  0.00    -0.259 OA
HETATM    3  C1  UNK     1      14.074   6.199   9.604  1.00  0.00    -0.036 A 
HETATM    4  C2  UNK     1      12.799   6.641   9.625  1.00  0.00     0.029 A 
HETATM    5  C3  UNK     1      15.181   7.167   9.753  1.00  0.00     0.005 A 
HETATM    6  C5  UNK     1      14.880   8.520   9.874  1.00  0.00     0.092 A 
HETATM    7  C6  UNK     1      16.537   6.807   9.791  1.00  0.00     0.017 A 
HETATM    8  C7  UNK     1      12.484   8.095   9.741  1.00  0.00     0.295 A 
HETATM    9  C9  UNK     1      15.865   9.500  10.018  1.00  0.00     0.075 A 
HETATM   10  C10 UNK     1      17.202   9.122  10.048  1.00  0.00     0.071 A 
HETATM   11  C11 UNK     1      14.455   4.752   9.417  1.00  0.00     0.050 C 
HETATM   12  C12 UNK     1      17.538   7.775   9.937  1.00  0.00     0.038 A 
ENDROOT
BRANCH   4  13
HETATM   13  C4  UNK     1      11.579   5.760   9.546  1.00  0.00     0.084 C 
BRANCH  13  14
HETATM   14  C8  UNK     1      10.861   5.901   8.237  1.00  0.00    -0.054 A 
HETATM   15  C14 UNK     1       9.476   6.020   8.220  1.00  0.00     0.007 A 
HETATM   16  C18 UNK     1       8.808   6.150   7.003  1.00  0.00     0.001 A 
HETATM   17  C20 UNK     1       9.530   6.162   5.809  1.00  0.00     0.000 A 
HETATM   18  C19 UNK     1      10.919   6.042   5.833  1.00  0.00     0.001 A 
HETATM   19  C15 UNK     1      11.587   5.911   7.051  1.00  0.00     0.007 A 
ENDBRANCH  13  14
ENDBRANCH   4  13
BRANCH  10  20
HETATM   20  O2  UNK     1      18.176  10.060  10.189  1.00  0.00    -0.347 OA
BRANCH  20  21
HETATM   21  C13 UNK     1      17.914  11.356   9.650  1.00  0.00     0.120 C 
HETATM   22  C16 UNK     1      18.414  12.414  10.623  1.00  0.00     0.040 C 
HETATM   23  C17 UNK     1      18.583  11.477   8.289  1.00  0.00     0.040 C 
ENDBRANCH  20  21
ENDBRANCH  10  20
TORSDOF 4
ENDMDL
MODEL 3
REMARK VINA RESULT:      -7.5     22.724     24.291
REMARK  4 active torsions:
REMARK  status: ('A' for Active; 'I' for Inactive)
REMARK    1  A    between atoms: C10_13  and  O2_2 
REMARK    2  A    between atoms: C13_16  and  O2_2 
REMARK    3  A    between atoms: C2_5  and  C4_7 
REMARK    4  A    between atoms: C4_7  and  C8_11 
ROOT
HETATM    1  O1  UNK     1      18.221   3.750  33.409  1.00  0.00    -0.274 OA
HETATM    2  O3  UNK     1      17.876   5.664  34.580  1.00  0.00    -0.259 OA
HETATM    3  C1  UNK     1      18.549   5.309  31.069  1.00  0.00    -0.036 A 
HETATM    4  C2  UNK     1      18.265   5.913  32.243  1.00  0.00     0.029 A 
HETATM    5  C3  UNK     1      18.649   3.836  31.016  1.00  0.00     0.005 A 
HETATM    6  C5  UNK     1      18.482   3.107  32.190  1.00  0.00     0.092 A 
HETATM    7  C6  UNK     1      18.893   3.108  29.840  1.00  0.00     0.017 A 
HETATM    8  C7  UNK     1      18.101   5.126  33.499  1.00  0.00     0.295 A 
HETATM    9  C9  UNK     1      18.560   1.713  32.227  1.00  0.00     0.075 A 
HETATM   10  C10 UNK     1      18.809   1.014  31.052  1.00  0.00     0.071 A 
HETATM   11  C11 UNK     1      18.795   6.056  29.782  1.00  0.00     0.050 C 
HETATM   12  C12 UNK     1      18.973   1.711  29.859  1.00  0.00     0.038 A 
ENDROOT
BRANCH   4  13
HETATM   13  C4  UNK     1      18.073   7.397  32.425  1.00  0.00     0.084 C 
BRANCH  13  14
HETATM   14  C8  UNK     1      16.643   7.754  32.698  1.00  0.00    -0.054 A 
HETATM   15  C14 UNK     1      16.346   8.754  33.618  1.00  0.00     0.007 A 
HETATM   16  C18 UNK     1      15.016   9.087  33.873  1.00  0.00     0.001 A 
HETATM   17  C20 UNK     1      13.990   8.418  33.206  1.00  0.00     0.000 A 
HETATM   18  C19 UNK     1      14.295   7.416  32.284  1.00  0.00     0.001 A 
HETATM   19  C15 UNK     1      15.625   7.084  32.030  1.00  0.00     0.007 A 
ENDBRANCH  13  14
ENDBRANCH   4  13
BRANCH  10  20
HETATM   20  O2  UNK     1      18.887  -0.344  31.067  1.00  0.00    -0.347 OA
BRANCH  20  21
HETATM   21  C13 UNK     1      20.193  -0.920  31.015  1.00  0.00     0.120 C 
HETATM   22  C16 UNK     1      20.338  -1.933  32.141  1.00  0.00     0.040 C 
HETATM   23  C17 UNK     1      20.405  -1.558  29.650  1.00  0.00     0.040 C 
ENDBRANCH  20  21
ENDBRANCH  10  20
TORSDOF 4
ENDMDL
MODEL 4
REMARK VINA RESULT:      -7.5     34.106     35.998
REMARK  4 active torsions:
REMARK  status: ('A' for Active; 'I' for Inactive)
REMARK    1  A    between atoms: C10_13  and  O2_2 
REMARK    2  A    between atoms: C13_16  and  O2_2 
REMARK    3  A    between atoms: C2_5  and  C4_7 
REMARK    4  A    between atoms: C4_7  and  C8_11 
ROOT
HETATM    1  O1  UNK     1      28.342  -5.206  39.331  1.00  0.00    -0.274 OA
HETATM    2  O3  UNK     1      29.871  -3.561  39.665  1.00  0.00    -0.259 OA
HETATM    3  C1  UNK     1      29.544  -5.735  36.823  1.00  0.00    -0.036 A 
HETATM    4  C2  UNK     1      30.022  -4.738  37.598  1.00  0.00     0.029 A 
HETATM    5  C3  UNK     1      28.373  -6.512  37.279  1.00  0.00     0.005 A 
HETATM    6  C5  UNK     1      27.814  -6.220  38.519  1.00  0.00     0.092 A 
HETATM    7  C6  UNK     1      27.770  -7.534  36.529  1.00  0.00     0.017 A 
HETATM    8  C7  UNK     1      29.426  -4.441  38.933  1.00  0.00     0.295 A 
HETATM    9  C9  UNK     1      26.707  -6.907  39.025  1.00  0.00     0.075 A 
HETATM   10  C10 UNK     1      26.130  -7.920  38.268  1.00  0.00     0.071 A 
HETATM   11  C11 UNK     1      30.150  -6.127  35.498  1.00  0.00     0.050 C 
HETATM   12  C12 UNK     1      26.660  -8.232  37.020  1.00  0.00     0.038 A 
ENDROOT
BRANCH   4  13
HETATM   13  C4  UNK     1      31.166  -3.830  37.228  1.00  0.00     0.084 C 
BRANCH  13  14
HETATM   14  C8  UNK     1      32.454  -4.580  37.061  1.00  0.00    -0.054 A 
HETATM   15  C14 UNK     1      32.854  -5.487  38.037  1.00  0.00     0.007 A 
HETATM   16  C18 UNK     1      34.051  -6.185  37.883  1.00  0.00     0.001 A 
HETATM   17  C20 UNK     1      34.843  -5.971  36.754  1.00  0.00     0.000 A 
HETATM   18  C19 UNK     1      34.436  -5.059  35.780  1.00  0.00     0.001 A 
HETATM   19  C15 UNK     1      33.238  -4.362  35.934  1.00  0.00     0.007 A 
ENDBRANCH  13  14
ENDBRANCH   4  13
BRANCH  10  20
HETATM   20  O2  UNK     1      25.051  -8.599  38.742  1.00  0.00    -0.347 OA
BRANCH  20  21
HETATM   21  C13 UNK     1      23.768  -8.008  38.533  1.00  0.00     0.120 C 
HETATM   22  C16 UNK     1      23.088  -8.691  37.356  1.00  0.00     0.040 C 
HETATM   23  C17 UNK     1      22.948  -8.128  39.809  1.00  0.00     0.040 C 
ENDBRANCH  20  21
ENDBRANCH  10  20
TORSDOF 4
ENDMDL
MODEL 5
REMARK VINA RESULT:      -7.4     22.634     24.220
REMARK  4 active torsions:
REMARK  status: ('A' for Active; 'I' for Inactive)
REMARK    1  A    between atoms: C10_13  and  O2_2 
REMARK    2  A    between atoms: C13_16  and  O2_2 
REMARK    3  A    between atoms: C2_5  and  C4_7 
REMARK    4  A    between atoms: C4_7  and  C8_11 
ROOT
HETATM    1  O1  UNK     1      18.845   4.302  30.029  1.00  0.00    -0.274 OA
HETATM    2  O3  UNK     1      18.754   6.545  29.687  1.00  0.00    -0.259 OA
HETATM    3  C1  UNK     1      18.240   4.751  32.757  1.00  0.00    -0.036 A 
HETATM    4  C2  UNK     1      18.367   5.801  31.918  1.00  0.00     0.029 A 
HETATM    5  C3  UNK     1      18.456   3.382  32.246  1.00  0.00     0.005 A 
HETATM    6  C5  UNK     1      18.750   3.205  30.897  1.00  0.00     0.092 A 
HETATM    7  C6  UNK     1      18.395   2.228  33.044  1.00  0.00     0.017 A 
HETATM    8  C7  UNK     1      18.669   5.603  30.470  1.00  0.00     0.295 A 
HETATM    9  C9  UNK     1      18.968   1.946  30.334  1.00  0.00     0.075 A 
HETATM   10  C10 UNK     1      18.896   0.817  31.141  1.00  0.00     0.071 A 
HETATM   11  C11 UNK     1      17.867   4.885  34.213  1.00  0.00     0.050 C 
HETATM   12  C12 UNK     1      18.612   0.958  32.496  1.00  0.00     0.038 A 
ENDROOT
BRANCH   4  13
HETATM   13  C4  UNK     1      18.236   7.247  32.319  1.00  0.00     0.084 C 
BRANCH  13  14
HETATM   14  C8  UNK     1      16.843   7.590  32.755  1.00  0.00    -0.054 A 
HETATM   15  C14 UNK     1      15.756   7.103  32.036  1.00  0.00     0.007 A 
HETATM   16  C18 UNK     1      14.461   7.421  32.442  1.00  0.00     0.001 A 
HETATM   17  C20 UNK     1      14.258   8.225  33.564  1.00  0.00     0.000 A 
HETATM   18  C19 UNK     1      15.353   8.710  34.280  1.00  0.00     0.001 A 
HETATM   19  C15 UNK     1      16.648   8.391  33.875  1.00  0.00     0.007 A 
ENDBRANCH  13  14
ENDBRANCH   4  13
BRANCH  10  20
HETATM   20  O2  UNK     1      19.107  -0.418  30.612  1.00  0.00    -0.347 OA
BRANCH  20  21
HETATM   21  C13 UNK     1      20.461  -0.861  30.515  1.00  0.00     0.120 C 
HETATM   22  C16 UNK     1      20.586  -2.235  31.155  1.00  0.00     0.040 C 
HETATM   23  C17 UNK     1      20.879  -0.878  29.052  1.00  0.00     0.040 C 
ENDBRANCH  20  21
ENDBRANCH  10  20
TORSDOF 4
ENDMDL
MODEL 6
REMARK VINA RESULT:      -7.3     23.743     25.062
REMARK  4 active torsions:
REMARK  status: ('A' for Active; 'I' for Inactive)
REMARK    1  A    between atoms: C10_13  and  O2_2 
REMARK    2  A    between atoms: C13_16  and  O2_2 
REMARK    3  A    between atoms: C2_5  and  C4_7 
REMARK    4  A    between atoms: C4_7  and  C8_11 
ROOT
HETATM    1  O1  UNK     1      16.013   9.071  33.931  1.00  0.00    -0.274 OA
HETATM    2  O3  UNK     1      16.022   6.801  33.902  1.00  0.00    -0.259 OA
HETATM    3  C1  UNK     1      18.833   9.022  34.166  1.00  0.00    -0.036 A 
HETATM    4  C2  UNK     1      18.144   7.862  34.120  1.00  0.00     0.029 A 
HETATM    5  C3  UNK     1      18.100  10.305  34.131  1.00  0.00     0.005 A 
HETATM    6  C5  UNK     1      16.713  10.283  34.013  1.00  0.00     0.092 A 
HETATM    7  C6  UNK     1      18.715  11.563  34.220  1.00  0.00     0.017 A 
HETATM    8  C7  UNK     1      16.659   7.848  33.981  1.00  0.00     0.295 A 
HETATM    9  C9  UNK     1      15.944  11.449  33.972  1.00  0.00     0.075 A 
HETATM   10  C10 UNK     1      16.575  12.684  34.056  1.00  0.00     0.071 A 
HETATM   11  C11 UNK     1      20.338   9.100  34.236  1.00  0.00     0.050 C 
HETATM   12  C12 UNK     1      17.960  12.742  34.182  1.00  0.00     0.038 A 
ENDROOT
BRANCH   4  13
HETATM   13  C4  UNK     1      18.760   6.490  34.211  1.00  0.00     0.084 C 
BRANCH  13  14
HETATM   14  C8  UNK     1      18.901   5.842  32.865  1.00  0.00    -0.054 A 
HETATM   15  C14 UNK     1      19.708   6.432  31.898  1.00  0.00     0.007 A 
HETATM   16  C18 UNK     1      19.839   5.830  30.647  1.00  0.00     0.001 A 
HETATM   17  C20 UNK     1      19.162   4.642  30.370  1.00  0.00     0.000 A 
HETATM   18  C19 UNK     1      18.354   4.057  31.345  1.00  0.00     0.001 A 
HETATM   19  C15 UNK     1      18.223   4.658  32.596  1.00  0.00     0.007 A 
ENDBRANCH  13  14
ENDBRANCH   4  13
BRANCH  10  20
HETATM   20  O2  UNK     1      15.844  13.831  34.020  1.00  0.00    -0.347 OA
BRANCH  20  21
HETATM   21  C13 UNK     1      14.501  13.730  33.547  1.00  0.00     0.120 C 
HETATM   22  C16 UNK     1      13.562  14.353  34.569  1.00  0.00     0.040 C 
HETATM   23  C17 UNK     1      14.395  14.412  32.191  1.00  0.00     0.040 C 
ENDBRANCH  20  21
ENDBRANCH  10  20
TORSDOF 4
ENDMDL
MODEL 7
REMARK VINA RESULT:      -7.3      1.947      7.533
REMARK  4 active torsions:
REMARK  status: ('A' for Active; 'I' for Inactive)
REMARK    1  A    between atoms: C10_13  and  O2_2 
REMARK    2  A    between atoms: C13_16  and  O2_2 
REMARK    3  A    between atoms: C2_5  and  C4_7 
REMARK    4  A    between atoms: C4_7  and  C8_11 
ROOT
HETATM    1  O1  UNK     1      12.708   9.182   9.771  1.00  0.00    -0.274 OA
HETATM    2  O3  UNK     1      13.608  11.038  10.720  1.00  0.00    -0.259 OA
HETATM    3  C1  UNK     1      15.271   7.982   9.827  1.00  0.00    -0.036 A 
HETATM    4  C2  UNK     1      15.113   9.244  10.279  1.00  0.00     0.029 A 
HETATM    5  C3  UNK     1      14.109   7.257   9.273  1.00  0.00     0.005 A 
HETATM    6  C5  UNK     1      12.866   7.883   9.266  1.00  0.00     0.092 A 
HETATM    7  C6  UNK     1      14.176   5.962   8.735  1.00  0.00     0.017 A 
HETATM    8  C7  UNK     1      13.775   9.904  10.280  1.00  0.00     0.295 A 
HETATM    9  C9  UNK     1      11.717   7.269   8.762  1.00  0.00     0.075 A 
HETATM   10  C10 UNK     1      11.805   5.984   8.240  1.00  0.00     0.071 A 
HETATM   11  C11 UNK     1      16.583   7.238   9.865  1.00  0.00     0.050 C 
HETATM   12  C12 UNK     1      13.034   5.331   8.225  1.00  0.00     0.038 A 
ENDROOT
BRANCH   4  13
HETATM   13  C4  UNK     1      16.221  10.116  10.808  1.00  0.00     0.084 C 
BRANCH  13  14
HETATM   14  C8  UNK     1      16.976  10.803   9.709  1.00  0.00    -0.054 A 
HETATM   15  C14 UNK     1      18.328  11.086   9.873  1.00  0.00     0.007 A 
HETATM   16  C18 UNK     1      19.029  11.725   8.852  1.00  0.00     0.001 A 
HETATM   17  C20 UNK     1      18.375  12.077   7.671  1.00  0.00     0.000 A 
HETATM   18  C19 UNK     1      17.020  11.790   7.513  1.00  0.00     0.001 A 
HETATM   19  C15 UNK     1      16.318  11.151   8.534  1.00  0.00     0.007 A 
ENDBRANCH  13  14
ENDBRANCH   4  13
BRANCH  10  20
HETATM   20  O2  UNK     1      10.699   5.369   7.743  1.00  0.00    -0.347 OA
BRANCH  20  21
HETATM   21  C13 UNK     1       9.673   6.208   7.210  1.00  0.00     0.120 C 
HETATM   22  C16 UNK     1       9.719   6.153   5.691  1.00  0.00     0.040 C 
HETATM   23  C17 UNK     1       8.325   5.757   7.753  1.00  0.00     0.040 C 
ENDBRANCH  20  21
ENDBRANCH  10  20
TORSDOF 4
ENDMDL
MODEL 8
REMARK VINA RESULT:      -7.2     23.758     25.181
REMARK  4 active torsions:
REMARK  status: ('A' for Active; 'I' for Inactive)
REMARK    1  A    between atoms: C10_13  and  O2_2 
REMARK    2  A    between atoms: C13_16  and  O2_2 
REMARK    3  A    between atoms: C2_5  and  C4_7 
REMARK    4  A    between atoms: C4_7  and  C8_11 
ROOT
HETATM    1  O1  UNK     1      18.736  10.766  34.243  1.00  0.00    -0.274 OA
HETATM    2  O3  UNK     1      20.570   9.429  34.263  1.00  0.00    -0.259 OA
HETATM    3  C1  UNK     1      17.115   8.446  34.335  1.00  0.00    -0.036 A 
HETATM    4  C2  UNK     1      18.459   8.324  34.296  1.00  0.00     0.029 A 
HETATM    5  C3  UNK     1      16.507   9.792  34.291  1.00  0.00     0.005 A 
HETATM    6  C5  UNK     1      17.340  10.906  34.247  1.00  0.00     0.092 A 
HETATM    7  C6  UNK     1      15.123  10.027  34.279  1.00  0.00     0.017 A 
HETATM    8  C7  UNK     1      19.346   9.523  34.264  1.00  0.00     0.295 A 
HETATM    9  C9  UNK     1      16.847  12.213  34.204  1.00  0.00     0.075 A 
HETATM   10  C10 UNK     1      15.473  12.422  34.199  1.00  0.00     0.071 A 
HETATM   11  C11 UNK     1      16.171   7.274  34.441  1.00  0.00     0.050 C 
HETATM   12  C12 UNK     1      14.611  11.330  34.234  1.00  0.00     0.038 A 
ENDROOT
BRANCH   4  13
HETATM   13  C4  UNK     1      19.206   7.015  34.272  1.00  0.00     0.084 C 
BRANCH  13  14
HETATM   14  C8  UNK     1      19.569   6.596  32.878  1.00  0.00    -0.054 A 
HETATM   15  C14 UNK     1      20.896   6.320  32.566  1.00  0.00     0.007 A 
HETATM   16  C18 UNK     1      21.234   5.931  31.270  1.00  0.00     0.001 A 
HETATM   17  C20 UNK     1      20.244   5.819  30.294  1.00  0.00     0.000 A 
HETATM   18  C19 UNK     1      18.915   6.097  30.615  1.00  0.00     0.001 A 
HETATM   19  C15 UNK     1      18.577   6.487  31.911  1.00  0.00     0.007 A 
ENDBRANCH  13  14
ENDBRANCH   4  13
BRANCH  10  20
HETATM   20  O2  UNK     1      14.973  13.686  34.155  1.00  0.00    -0.347 OA
BRANCH  20  21
HETATM   21  C13 UNK     1      15.242  14.450  32.979  1.00  0.00     0.120 C 
HETATM   22  C16 UNK     1      14.040  14.377  32.049  1.00  0.00     0.040 C 
HETATM   23  C17 UNK     1      15.563  15.884  33.377  1.00  0.00     0.040 C 
ENDBRANCH  20  21
ENDBRANCH  10  20
TORSDOF 4
ENDMDL
MODEL 9
REMARK VINA RESULT:      -7.2     34.158     36.364
REMARK  4 active torsions:
REMARK  status: ('A' for Active; 'I' for Inactive)
REMARK    1  A    between atoms: C10_13  and  O2_2 
REMARK    2  A    between atoms: C13_16  and  O2_2 
REMARK    3  A    between atoms: C2_5  and  C4_7 
REMARK    4  A    between atoms: C4_7  and  C8_11 
ROOT
HETATM    1  O1  UNK     1      30.116  -8.254  38.393  1.00  0.00    -0.274 OA
HETATM    2  O3  UNK     1      32.378  -8.151  38.246  1.00  0.00    -0.259 OA
HETATM    3  C1  UNK     1      30.052  -5.426  38.508  1.00  0.00    -0.036 A 
HETATM    4  C2  UNK     1      31.238  -6.068  38.431  1.00  0.00     0.029 A 
HETATM    5  C3  UNK     1      28.803  -6.213  38.570  1.00  0.00     0.005 A 
HETATM    6  C5  UNK     1      28.879  -7.602  38.509  1.00  0.00     0.092 A 
HETATM    7  C6  UNK     1      27.525  -5.647  38.699  1.00  0.00     0.017 A 
HETATM    8  C7  UNK     1      31.310  -7.555  38.352  1.00  0.00     0.295 A 
HETATM    9  C9  UNK     1      27.748  -8.419  38.560  1.00  0.00     0.075 A 
HETATM   10  C10 UNK     1      26.492  -7.837  38.682  1.00  0.00     0.071 A 
HETATM   11  C11 UNK     1      29.913  -3.924  38.519  1.00  0.00     0.050 C 
HETATM   12  C12 UNK     1      26.380  -6.451  38.753  1.00  0.00     0.038 A 
ENDROOT
BRANCH   4  13
HETATM   13  C4  UNK     1      32.585  -5.392  38.424  1.00  0.00     0.084 C 
BRANCH  13  14
HETATM   14  C8  UNK     1      33.164  -5.297  37.044  1.00  0.00    -0.054 A 
HETATM   15  C14 UNK     1      32.404  -4.754  36.014  1.00  0.00     0.007 A 
HETATM   16  C18 UNK     1      32.943  -4.665  34.730  1.00  0.00     0.001 A 
HETATM   17  C20 UNK     1      34.238  -5.121  34.484  1.00  0.00     0.000 A 
HETATM   18  C19 UNK     1      34.994  -5.665  35.522  1.00  0.00     0.001 A 
HETATM   19  C15 UNK     1      34.456  -5.753  36.806  1.00  0.00     0.007 A 
ENDBRANCH  13  14
ENDBRANCH   4  13
BRANCH  10  20
HETATM   20  O2  UNK     1      25.378  -8.616  38.736  1.00  0.00    -0.347 OA
BRANCH  20  21
HETATM   21  C13 UNK     1      24.139  -8.003  38.379  1.00  0.00     0.120 C 
HETATM   22  C16 UNK     1      23.498  -8.789  37.245  1.00  0.00     0.040 C 
HETATM   23  C17 UNK     1      23.239  -7.942  39.605  1.00  0.00     0.040 C 
ENDBRANCH  20  21
ENDBRANCH  10  20
TORSDOF 4
ENDMDL
MODEL 10
REMARK VINA RESULT:      -7.2      2.919      8.175
REMARK  4 active torsions:
REMARK  status: ('A' for Active; 'I' for Inactive)
REMARK    1  A    between atoms: C10_13  and  O2_2 
REMARK    2  A    between atoms: C13_16  and  O2_2 
REMARK    3  A    between atoms: C2_5  and  C4_7 
REMARK    4  A    between atoms: C4_7  and  C8_11 
ROOT
HETATM    1  O1  UNK     1      11.196   5.116  10.146  1.00  0.00    -0.274 OA
HETATM    2  O3  UNK     1      13.426   5.149  10.566  1.00  0.00    -0.259 OA
HETATM    3  C1  UNK     1      11.729   6.110   7.549  1.00  0.00    -0.036 A 
HETATM    4  C2  UNK     1      12.747   5.908   8.412  1.00  0.00     0.029 A 
HETATM    5  C3  UNK     1      10.343   5.844   7.987  1.00  0.00     0.005 A 
HETATM    6  C5  UNK     1      10.125   5.354   9.272  1.00  0.00     0.092 A 
HETATM    7  C6  UNK     1       9.211   6.064   7.186  1.00  0.00     0.017 A 
HETATM    8  C7  UNK     1      12.507   5.371   9.783  1.00  0.00     0.295 A 
HETATM    9  C9  UNK     1       8.847   5.076   9.764  1.00  0.00     0.075 A 
HETATM   10  C10 UNK     1       7.742   5.297   8.951  1.00  0.00     0.071 A 
HETATM   11  C11 UNK     1      11.916   6.583   6.129  1.00  0.00     0.050 C 
HETATM   12  C12 UNK     1       7.923   5.793   7.663  1.00  0.00     0.038 A 
ENDROOT
BRANCH   4  13
HETATM   13  C4  UNK     1      14.197   6.198   8.117  1.00  0.00     0.084 C 
BRANCH  13  14
HETATM   14  C8  UNK     1      14.665   7.464   8.771  1.00  0.00    -0.054 A 
HETATM   15  C14 UNK     1      14.071   8.675   8.431  1.00  0.00     0.007 A 
HETATM   16  C18 UNK     1      14.507   9.852   9.038  1.00  0.00     0.001 A 
HETATM   17  C20 UNK     1      15.535   9.812   9.981  1.00  0.00     0.000 A 
HETATM   18  C19 UNK     1      16.126   8.594  10.316  1.00  0.00     0.001 A 
HETATM   19  C15 UNK     1      15.690   7.417   9.709  1.00  0.00     0.007 A 
ENDBRANCH  13  14
ENDBRANCH   4  13
BRANCH  10  20
HETATM   20  O2  UNK     1       6.490   5.034   9.412  1.00  0.00    -0.347 OA
BRANCH  20  21
HETATM   21  C13 UNK     1       6.187   5.448  10.745  1.00  0.00     0.120 C 
HETATM   22  C16 UNK     1       5.630   6.864  10.715  1.00  0.00     0.040 C 
HETATM   23  C17 UNK     1       5.204   4.466  11.364  1.00  0.00     0.040 C 
ENDBRANCH  20  21
ENDBRANCH  10  20
TORSDOF 4
ENDMDL
