MODEL 1
REMARK VINA RESULT:      -8.8      0.000      0.000
REMARK  1 active torsions:
REMARK  status: ('A' for Active; 'I' for Inactive)
REMARK    1  A    between atoms: C4_7  and  C9_12 
ROOT
HETATM    1  O1  UNK     1      18.883   4.903  29.672  1.00  0.00    -0.321 OA
HETATM    2  O2  UNK     1      18.734   0.445  31.514  1.00  0.00    -0.275 OA
HETATM    3  O3  UNK     1      18.652  -1.640  32.450  1.00  0.00    -0.260 OA
HETATM    4  C1  UNK     1      18.513   4.609  31.880  1.00  0.00     0.012 A 
HETATM    5  C2  UNK     1      18.415   2.412  32.930  1.00  0.00     0.005 A 
HETATM    6  C3  UNK     1      18.747   3.979  30.664  1.00  0.00     0.088 A 
HETATM    7  C4  UNK     1      18.508   6.000  31.600  1.00  0.00     0.009 A 
HETATM    8  C5  UNK     1      18.344   3.815  33.033  1.00  0.00     0.030 A 
HETATM    9  C6  UNK     1      18.654   1.847  31.673  1.00  0.00     0.093 A 
HETATM   10  C7  UNK     1      18.827   2.600  30.505  1.00  0.00     0.076 A 
HETATM   11  C8  UNK     1      18.252   1.514  34.084  1.00  0.00    -0.043 A 
HETATM   12  C10 UNK     1      18.737   6.124  30.248  1.00  0.00     0.155 A 
HETATM   13  C11 UNK     1      18.334   0.189  33.898  1.00  0.00     0.090 A 
HETATM   14  C12 UNK     1      17.996   2.086  35.448  1.00  0.00     0.049 C 
HETATM   15  C15 UNK     1      18.583  -0.423  32.583  1.00  0.00     0.288 A 
ENDROOT
BRANCH   7  16
HETATM   16  C9  UNK     1      18.315   7.126  32.464  1.00  0.00    -0.023 A 
HETATM   17  C13 UNK     1      17.127   7.858  32.408  1.00  0.00     0.012 A 
HETATM   18  C16 UNK     1      16.940   8.954  33.249  1.00  0.00     0.001 A 
HETATM   19  C18 UNK     1      17.939   9.321  34.151  1.00  0.00     0.000 A 
HETATM   20  C17 UNK     1      19.127   8.591  34.210  1.00  0.00     0.001 A 
HETATM   21  C14 UNK     1      19.315   7.496  33.368  1.00  0.00     0.012 A 
ENDBRANCH   7  16
TORSDOF 1
ENDMDL
MODEL 2
REMARK VINA RESULT:      -8.5      3.258      7.142
REMARK  1 active torsions:
REMARK  status: ('A' for Active; 'I' for Inactive)
REMARK    1  A    between atoms: C4_7  and  C9_12 
ROOT
HETATM    1  O1  UNK     1      20.206   7.373  33.447  1.00  0.00    -0.321 OA
HETATM    2  O2  UNK     1      16.437  10.008  34.911  1.00  0.00    -0.275 OA
HETATM    3  O3  UNK     1      14.608  11.213  35.569  1.00  0.00    -0.260 OA
HETATM    4  C1  UNK     1      18.116   6.801  32.810  1.00  0.00     0.012 A 
HETATM    5  C2  UNK     1      16.133   8.049  33.481  1.00  0.00     0.005 A 
HETATM    6  C3  UNK     1      18.886   7.702  33.536  1.00  0.00     0.088 A 
HETATM    7  C4  UNK     1      19.033   5.873  32.250  1.00  0.00     0.009 A 
HETATM    8  C5  UNK     1      16.717   6.976  32.780  1.00  0.00     0.030 A 
HETATM    9  C6  UNK     1      16.971   8.916  34.191  1.00  0.00     0.093 A 
HETATM   10  C7  UNK     1      18.363   8.777  34.245  1.00  0.00     0.076 A 
HETATM   11  C8  UNK     1      14.684   8.301  33.499  1.00  0.00    -0.043 A 
HETATM   12  C10 UNK     1      20.285   6.265  32.666  1.00  0.00     0.155 A 
HETATM   13  C11 UNK     1      14.211   9.345  34.193  1.00  0.00     0.090 A 
HETATM   14  C12 UNK     1      13.757   7.391  32.747  1.00  0.00     0.049 C 
HETATM   15  C15 UNK     1      15.076  10.267  34.946  1.00  0.00     0.288 A 
ENDROOT
BRANCH   7  16
HETATM   16  C9  UNK     1      18.812   4.732  31.413  1.00  0.00    -0.023 A 
HETATM   17  C13 UNK     1      19.033   4.819  30.036  1.00  0.00     0.012 A 
HETATM   18  C16 UNK     1      18.817   3.707  29.221  1.00  0.00     0.001 A 
HETATM   19  C18 UNK     1      18.381   2.506  29.780  1.00  0.00     0.000 A 
HETATM   20  C17 UNK     1      18.161   2.416  31.155  1.00  0.00     0.001 A 
HETATM   21  C14 UNK     1      18.375   3.527  31.970  1.00  0.00     0.012 A 
ENDBRANCH   7  16
TORSDOF 1
ENDMDL
MODEL 3
REMARK VINA RESULT:      -8.3      2.045      3.620
REMARK  1 active torsions:
REMARK  status: ('A' for Active; 'I' for Inactive)
REMARK    1  A    between atoms: C4_7  and  C9_12 
ROOT
HETATM    1  O1  UNK     1      18.999   0.425  30.637  1.00  0.00    -0.321 OA
HETATM    2  O2  UNK     1      18.527  -1.777  34.905  1.00  0.00    -0.275 OA
HETATM    3  O3  UNK     1      18.291  -2.757  36.958  1.00  0.00    -0.260 OA
HETATM    4  C1  UNK     1      18.536   1.638  32.484  1.00  0.00     0.012 A 
HETATM    5  C2  UNK     1      18.274   0.646  34.695  1.00  0.00     0.005 A 
HETATM    6  C3  UNK     1      18.775   0.365  31.980  1.00  0.00     0.088 A 
HETATM    7  C4  UNK     1      18.621   2.517  31.373  1.00  0.00     0.009 A 
HETATM    8  C5  UNK     1      18.281   1.783  33.864  1.00  0.00     0.030 A 
HETATM    9  C6  UNK     1      18.523  -0.604  34.117  1.00  0.00     0.093 A 
HETATM   10  C7  UNK     1      18.780  -0.790  32.753  1.00  0.00     0.076 A 
HETATM   11  C8  UNK     1      18.018   0.712  36.142  1.00  0.00    -0.043 A 
HETATM   12  C10 UNK     1      18.904   1.731  30.279  1.00  0.00     0.155 A 
HETATM   13  C11 UNK     1      18.029  -0.420  36.860  1.00  0.00     0.090 A 
HETATM   14  C12 UNK     1      17.748   2.036  36.795  1.00  0.00     0.049 C 
HETATM   15  C15 UNK     1      18.288  -1.743  36.270  1.00  0.00     0.288 A 
ENDROOT
BRANCH   7  16
HETATM   16  C9  UNK     1      18.464   3.938  31.292  1.00  0.00    -0.023 A 
HETATM   17  C13 UNK     1      17.711   4.615  32.254  1.00  0.00     0.012 A 
HETATM   18  C16 UNK     1      17.558   6.000  32.175  1.00  0.00     0.001 A 
HETATM   19  C18 UNK     1      18.159   6.710  31.136  1.00  0.00     0.000 A 
HETATM   20  C17 UNK     1      18.913   6.036  30.175  1.00  0.00     0.001 A 
HETATM   21  C14 UNK     1      19.066   4.652  30.252  1.00  0.00     0.012 A 
ENDBRANCH   7  16
TORSDOF 1
ENDMDL
MODEL 4
REMARK VINA RESULT:      -8.0      4.100      6.140
REMARK  1 active torsions:
REMARK  status: ('A' for Active; 'I' for Inactive)
REMARK    1  A    between atoms: C4_7  and  C9_12 
ROOT
HETATM    1  O1  UNK     1      20.909  -2.347  30.501  1.00  0.00    -0.321 OA
HETATM    2  O2  UNK     1      20.408  -3.545  35.149  1.00  0.00    -0.275 OA
HETATM    3  O3  UNK     1      20.133  -4.055  37.362  1.00  0.00    -0.260 OA
HETATM    4  C1  UNK     1      19.717  -1.018  31.885  1.00  0.00     0.012 A 
HETATM    5  C2  UNK     1      19.392  -1.512  34.249  1.00  0.00     0.005 A 
HETATM    6  C3  UNK     1      20.467  -2.184  31.780  1.00  0.00     0.088 A 
HETATM    7  C4  UNK     1      19.710  -0.446  30.586  1.00  0.00     0.009 A 
HETATM    8  C5  UNK     1      19.171  -0.675  33.138  1.00  0.00     0.030 A 
HETATM    9  C6  UNK     1      20.156  -2.670  34.069  1.00  0.00     0.093 A 
HETATM   10  C7  UNK     1      20.716  -3.046  32.841  1.00  0.00     0.076 A 
HETATM   11  C8  UNK     1      18.858  -1.224  35.590  1.00  0.00    -0.043 A 
HETATM   12  C10 UNK     1      20.446  -1.290  29.786  1.00  0.00     0.155 A 
HETATM   13  C11 UNK     1      19.116  -2.076  36.592  1.00  0.00     0.090 A 
HETATM   14  C12 UNK     1      18.035   0.010  35.818  1.00  0.00     0.049 C 
HETATM   15  C15 UNK     1      19.917  -3.299  36.421  1.00  0.00     0.288 A 
ENDROOT
BRANCH   7  16
HETATM   16  C9  UNK     1      19.097   0.754  30.098  1.00  0.00    -0.023 A 
HETATM   17  C13 UNK     1      18.520   0.779  28.827  1.00  0.00     0.012 A 
HETATM   18  C16 UNK     1      17.924   1.948  28.352  1.00  0.00     0.001 A 
HETATM   19  C18 UNK     1      17.903   3.093  29.147  1.00  0.00     0.000 A 
HETATM   20  C17 UNK     1      18.478   3.070  30.418  1.00  0.00     0.001 A 
HETATM   21  C14 UNK     1      19.075   1.903  30.893  1.00  0.00     0.012 A 
ENDBRANCH   7  16
TORSDOF 1
ENDMDL
MODEL 5
REMARK VINA RESULT:      -8.0      2.432      7.042
REMARK  1 active torsions:
REMARK  status: ('A' for Active; 'I' for Inactive)
REMARK    1  A    between atoms: C4_7  and  C9_12 
ROOT
HETATM    1  O1  UNK     1      18.218   1.302  34.229  1.00  0.00    -0.321 OA
HETATM    2  O2  UNK     1      17.696   6.099  34.137  1.00  0.00    -0.275 OA
HETATM    3  O3  UNK     1      17.468   8.372  34.026  1.00  0.00    -0.260 OA
HETATM    4  C1  UNK     1      18.613   2.442  32.319  1.00  0.00     0.012 A 
HETATM    5  C2  UNK     1      18.385   4.862  32.144  1.00  0.00     0.005 A 
HETATM    6  C3  UNK     1      18.236   2.538  33.653  1.00  0.00     0.088 A 
HETATM    7  C4  UNK     1      18.835   1.060  32.079  1.00  0.00     0.009 A 
HETATM    8  C5  UNK     1      18.689   3.622  31.551  1.00  0.00     0.030 A 
HETATM    9  C6  UNK     1      18.012   4.882  33.492  1.00  0.00     0.093 A 
HETATM   10  C7  UNK     1      17.924   3.734  34.290  1.00  0.00     0.076 A 
HETATM   11  C8  UNK     1      18.442   6.137  31.412  1.00  0.00    -0.043 A 
HETATM   12  C10 UNK     1      18.583   0.415  33.268  1.00  0.00     0.155 A 
HETATM   13  C11 UNK     1      18.136   7.273  32.054  1.00  0.00     0.090 A 
HETATM   14  C12 UNK     1      18.839   6.152  29.965  1.00  0.00     0.049 C 
HETATM   15  C15 UNK     1      17.741   7.313  33.472  1.00  0.00     0.288 A 
ENDROOT
BRANCH   7  16
HETATM   16  C9  UNK     1      19.240   0.373  30.889  1.00  0.00    -0.023 A 
HETATM   17  C13 UNK     1      18.858   0.858  29.636  1.00  0.00     0.012 A 
HETATM   18  C16 UNK     1      19.251   0.188  28.477  1.00  0.00     0.001 A 
HETATM   19  C18 UNK     1      20.029  -0.966  28.568  1.00  0.00     0.000 A 
HETATM   20  C17 UNK     1      20.413  -1.452  29.819  1.00  0.00     0.001 A 
HETATM   21  C14 UNK     1      20.019  -0.783  30.977  1.00  0.00     0.012 A 
ENDBRANCH   7  16
TORSDOF 1
ENDMDL
MODEL 6
REMARK VINA RESULT:      -8.0     22.643     25.071
REMARK  1 active torsions:
REMARK  status: ('A' for Active; 'I' for Inactive)
REMARK    1  A    between atoms: C4_7  and  C9_12 
ROOT
HETATM    1  O1  UNK     1      14.855   5.811  10.465  1.00  0.00    -0.321 OA
HETATM    2  O2  UNK     1      17.896   9.554  10.271  1.00  0.00    -0.275 OA
HETATM    3  O3  UNK     1      19.294  11.358  10.132  1.00  0.00    -0.260 OA
HETATM    4  C1  UNK     1      14.398   7.565   9.117  1.00  0.00     0.012 A 
HETATM    5  C2  UNK     1      15.852   9.512   8.930  1.00  0.00     0.005 A 
HETATM    6  C3  UNK     1      15.294   7.028  10.034  1.00  0.00     0.088 A 
HETATM    7  C4  UNK     1      13.356   6.609   8.990  1.00  0.00     0.009 A 
HETATM    8  C5  UNK     1      14.680   8.827   8.555  1.00  0.00     0.030 A 
HETATM    9  C6  UNK     1      16.707   8.910   9.859  1.00  0.00     0.093 A 
HETATM   10  C7  UNK     1      16.464   7.659  10.440  1.00  0.00     0.076 A 
HETATM   11  C8  UNK     1      16.218  10.830   8.389  1.00  0.00    -0.043 A 
HETATM   12  C10 UNK     1      13.682   5.567   9.827  1.00  0.00     0.155 A 
HETATM   13  C11 UNK     1      17.353  11.413   8.801  1.00  0.00     0.090 A 
HETATM   14  C12 UNK     1      15.324  11.504   7.390  1.00  0.00     0.049 C 
HETATM   15  C15 UNK     1      18.264  10.796   9.778  1.00  0.00     0.288 A 
ENDROOT
BRANCH   7  16
HETATM   16  C9  UNK     1      12.169   6.624   8.189  1.00  0.00    -0.023 A 
HETATM   17  C13 UNK     1      10.914   6.694   8.797  1.00  0.00     0.012 A 
HETATM   18  C16 UNK     1       9.757   6.708   8.016  1.00  0.00     0.001 A 
HETATM   19  C18 UNK     1       9.853   6.655   6.626  1.00  0.00     0.000 A 
HETATM   20  C17 UNK     1      11.106   6.587   6.016  1.00  0.00     0.001 A 
HETATM   21  C14 UNK     1      12.262   6.571   6.795  1.00  0.00     0.012 A 
ENDBRANCH   7  16
TORSDOF 1
ENDMDL
MODEL 7
REMARK VINA RESULT:      -8.0      5.111      9.344
REMARK  1 active torsions:
REMARK  status: ('A' for Active; 'I' for Inactive)
REMARK    1  A    between atoms: C4_7  and  C9_12 
ROOT
HETATM    1  O1  UNK     1      18.316  -0.930  36.546  1.00  0.00    -0.321 OA
HETATM    2  O2  UNK     1      18.694   0.739  32.034  1.00  0.00    -0.275 OA
HETATM    3  O3  UNK     1      18.909   1.472  29.878  1.00  0.00    -0.260 OA
HETATM    4  C1  UNK     1      19.414  -2.139  34.987  1.00  0.00     0.012 A 
HETATM    5  C2  UNK     1      19.674  -1.407  32.677  1.00  0.00     0.005 A 
HETATM    6  C3  UNK     1      18.708  -0.969  35.242  1.00  0.00     0.088 A 
HETATM    7  C4  UNK     1      19.447  -2.846  36.217  1.00  0.00     0.009 A 
HETATM    8  C5  UNK     1      19.906  -2.363  33.684  1.00  0.00     0.030 A 
HETATM    9  C6  UNK     1      18.955  -0.253  33.006  1.00  0.00     0.093 A 
HETATM   10  C7  UNK     1      18.450   0.007  34.287  1.00  0.00     0.076 A 
HETATM   11  C8  UNK     1      20.154  -1.565  31.295  1.00  0.00    -0.043 A 
HETATM   12  C10 UNK     1      18.768  -2.070  37.128  1.00  0.00     0.155 A 
HETATM   13  C11 UNK     1      19.888  -0.605  30.397  1.00  0.00     0.090 A 
HETATM   14  C12 UNK     1      20.929  -2.790  30.907  1.00  0.00     0.049 C 
HETATM   15  C15 UNK     1      19.133   0.615  30.725  1.00  0.00     0.288 A 
ENDROOT
BRANCH   7  16
HETATM   16  C9  UNK     1      20.035  -4.109  36.552  1.00  0.00    -0.023 A 
HETATM   17  C13 UNK     1      19.723  -5.247  35.807  1.00  0.00     0.012 A 
HETATM   18  C16 UNK     1      20.295  -6.477  36.134  1.00  0.00     0.001 A 
HETATM   19  C18 UNK     1      21.182  -6.571  37.206  1.00  0.00     0.000 A 
HETATM   20  C17 UNK     1      21.496  -5.434  37.952  1.00  0.00     0.001 A 
HETATM   21  C14 UNK     1      20.924  -4.205  37.626  1.00  0.00     0.012 A 
ENDBRANCH   7  16
TORSDOF 1
ENDMDL
MODEL 8
REMARK VINA RESULT:      -7.9      1.657      6.349
REMARK  1 active torsions:
REMARK  status: ('A' for Active; 'I' for Inactive)
REMARK    1  A    between atoms: C4_7  and  C9_12 
ROOT
HETATM    1  O1  UNK     1      18.692  -0.194  32.028  1.00  0.00    -0.321 OA
HETATM    2  O2  UNK     1      18.786   4.244  30.134  1.00  0.00    -0.275 OA
HETATM    3  O3  UNK     1      18.818   6.373  29.300  1.00  0.00    -0.260 OA
HETATM    4  C1  UNK     1      18.379   1.605  33.357  1.00  0.00     0.012 A 
HETATM    5  C2  UNK     1      18.403   3.894  32.523  1.00  0.00     0.005 A 
HETATM    6  C3  UNK     1      18.618   1.167  32.061  1.00  0.00     0.088 A 
HETATM    7  C4  UNK     1      18.306   0.432  34.154  1.00  0.00     0.009 A 
HETATM    8  C5  UNK     1      18.270   2.990  33.595  1.00  0.00     0.030 A 
HETATM    9  C6  UNK     1      18.643   3.381  31.245  1.00  0.00     0.093 A 
HETATM   10  C7  UNK     1      18.758   2.013  30.967  1.00  0.00     0.076 A 
HETATM   11  C8  UNK     1      18.301   5.353  32.687  1.00  0.00    -0.043 A 
HETATM   12  C10 UNK     1      18.502  -0.629  33.300  1.00  0.00     0.155 A 
HETATM   13  C11 UNK     1      18.441   6.142  31.613  1.00  0.00     0.090 A 
HETATM   14  C12 UNK     1      18.043   5.937  34.045  1.00  0.00     0.049 C 
HETATM   15  C15 UNK     1      18.695   5.620  30.260  1.00  0.00     0.288 A 
ENDROOT
BRANCH   7  16
HETATM   16  C9  UNK     1      18.080   0.271  35.559  1.00  0.00    -0.023 A 
HETATM   17  C13 UNK     1      17.780   1.380  36.353  1.00  0.00     0.012 A 
HETATM   18  C16 UNK     1      17.560   1.223  37.721  1.00  0.00     0.001 A 
HETATM   19  C18 UNK     1      17.638  -0.044  38.300  1.00  0.00     0.000 A 
HETATM   20  C17 UNK     1      17.936  -1.154  37.509  1.00  0.00     0.001 A 
HETATM   21  C14 UNK     1      18.156  -0.997  36.141  1.00  0.00     0.012 A 
ENDBRANCH   7  16
TORSDOF 1
ENDMDL
MODEL 9
REMARK VINA RESULT:      -7.8      4.465      6.653
REMARK  1 active torsions:
REMARK  status: ('A' for Active; 'I' for Inactive)
REMARK    1  A    between atoms: C4_7  and  C9_12 
ROOT
HETATM    1  O1  UNK     1      19.881  -2.692  34.720  1.00  0.00    -0.321 OA
HETATM    2  O2  UNK     1      20.829  -1.439  30.157  1.00  0.00    -0.275 OA
HETATM    3  O3  UNK     1      21.236  -0.789  28.003  1.00  0.00    -0.260 OA
HETATM    4  C1  UNK     1      18.949  -0.830  33.847  1.00  0.00     0.012 A 
HETATM    5  C2  UNK     1      19.348  -0.090  31.560  1.00  0.00     0.005 A 
HETATM    6  C3  UNK     1      19.786  -1.912  33.607  1.00  0.00     0.088 A 
HETATM    7  C4  UNK     1      18.513  -0.969  35.191  1.00  0.00     0.009 A 
HETATM    8  C5  UNK     1      18.725   0.098  32.809  1.00  0.00     0.030 A 
HETATM    9  C6  UNK     1      20.178  -1.203  31.390  1.00  0.00     0.093 A 
HETATM   10  C7  UNK     1      20.427  -2.146  32.395  1.00  0.00     0.076 A 
HETATM   11  C8  UNK     1      19.165   0.829  30.426  1.00  0.00    -0.043 A 
HETATM   12  C10 UNK     1      19.106  -2.114  35.674  1.00  0.00     0.155 A 
HETATM   13  C11 UNK     1      19.797   0.576  29.271  1.00  0.00     0.090 A 
HETATM   14  C12 UNK     1      18.280   2.033  30.573  1.00  0.00     0.049 C 
HETATM   15  C15 UNK     1      20.675  -0.589  29.074  1.00  0.00     0.288 A 
ENDROOT
BRANCH   7  16
HETATM   16  C9  UNK     1      17.641  -0.151  35.980  1.00  0.00    -0.023 A 
HETATM   17  C13 UNK     1      16.287  -0.051  35.651  1.00  0.00     0.012 A 
HETATM   18  C16 UNK     1      15.438   0.746  36.419  1.00  0.00     0.001 A 
HETATM   19  C18 UNK     1      15.940   1.444  37.518  1.00  0.00     0.000 A 
HETATM   20  C17 UNK     1      17.292   1.345  37.848  1.00  0.00     0.001 A 
HETATM   21  C14 UNK     1      18.141   0.549  37.081  1.00  0.00     0.012 A 
ENDBRANCH   7  16
TORSDOF 1
ENDMDL
MODEL 10
REMARK VINA RESULT:      -7.8     15.590     17.563
REMARK  1 active torsions:
REMARK  status: ('A' for Active; 'I' for Inactive)
REMARK    1  A    between atoms: C4_7  and  C9_12 
ROOT
HETATM    1  O1  UNK     1      29.445  -3.897  38.163  1.00  0.00    -0.321 OA
HETATM    2  O2  UNK     1      27.481  -8.051  39.638  1.00  0.00    -0.275 OA
HETATM    3  O3  UNK     1      26.606 -10.053  40.310  1.00  0.00    -0.260 OA
HETATM    4  C1  UNK     1      30.524  -5.846  37.794  1.00  0.00     0.012 A 
HETATM    5  C2  UNK     1      29.639  -8.007  38.489  1.00  0.00     0.005 A 
HETATM    6  C3  UNK     1      29.391  -5.248  38.332  1.00  0.00     0.088 A 
HETATM    7  C4  UNK     1      31.308  -4.785  37.268  1.00  0.00     0.009 A 
HETATM    8  C5  UNK     1      30.652  -7.248  37.872  1.00  0.00     0.030 A 
HETATM    9  C6  UNK     1      28.527  -7.337  39.009  1.00  0.00     0.093 A 
HETATM   10  C7  UNK     1      28.362  -5.948  38.951  1.00  0.00     0.076 A 
HETATM   11  C8  UNK     1      29.696  -9.473  38.610  1.00  0.00    -0.043 A 
HETATM   12  C10 UNK     1      30.609  -3.627  37.517  1.00  0.00     0.155 A 
HETATM   13  C11 UNK     1      28.687 -10.118  39.212  1.00  0.00     0.090 A 
HETATM   14  C12 UNK     1      30.874 -10.224  38.062  1.00  0.00     0.049 C 
HETATM   15  C15 UNK     1      27.510  -9.430  39.766  1.00  0.00     0.288 A 
ENDROOT
BRANCH   7  16
HETATM   16  C9  UNK     1      32.575  -4.804  36.599  1.00  0.00    -0.023 A 
HETATM   17  C13 UNK     1      33.612  -5.603  37.084  1.00  0.00     0.012 A 
HETATM   18  C16 UNK     1      34.845  -5.621  36.433  1.00  0.00     0.001 A 
HETATM   19  C18 UNK     1      35.044  -4.840  35.294  1.00  0.00     0.000 A 
HETATM   20  C17 UNK     1      34.009  -4.041  34.807  1.00  0.00     0.001 A 
HETATM   21  C14 UNK     1      32.776  -4.023  35.458  1.00  0.00     0.012 A 
ENDBRANCH   7  16
TORSDOF 1
ENDMDL
