MODEL 1
REMARK VINA RESULT:      -9.2      0.000      0.000
REMARK  7 active torsions:
REMARK  status: ('A' for Active; 'I' for Inactive)
REMARK    1  A    between atoms: C23_30  and  O4_4 
REMARK    2  A    between atoms: C24_31  and  O4_4 
REMARK    3  A    between atoms: C5_12  and  N1_5 
REMARK    4  A    between atoms: C6_13  and  N2_6 
REMARK    5  A    between atoms: C17_24  and  N3_7 
REMARK       I    between atoms: C9_16  and  N3_7 
REMARK    6  A    between atoms: C5_12  and  C7_14 
REMARK    7  A    between atoms: C6_13  and  C9_16 
ROOT
HETATM    1  N1  UNK     1      19.504  -3.478  36.578  1.00  0.00     0.096 N 
HETATM    2  N2  UNK     1      18.537  -0.797  36.094  1.00  0.00     0.100 N 
HETATM    3  C1  UNK     1      20.106  -2.625  35.546  1.00  0.00     0.303 C 
HETATM    4  C2  UNK     1      18.955  -2.659  37.664  1.00  0.00     0.303 C 
HETATM    5  C3  UNK     1      19.085  -1.617  35.007  1.00  0.00     0.303 C 
HETATM    6  C4  UNK     1      17.934  -1.650  37.125  1.00  0.00     0.303 C 
ENDROOT
BRANCH   2   7
HETATM    7  C6  UNK     1      17.563   0.163  35.579  1.00  0.00     0.375 C 
BRANCH   7   8
HETATM    8  C9  UNK     1      18.293   1.363  35.001  1.00  0.00     0.250 C 
HETATM    9  O2  UNK     1      19.297   1.839  35.520  1.00  0.00    -0.271 OA
HETATM   10  N3  UNK     1      17.659   1.798  33.839  1.00  0.00    -0.326 N 
HETATM   11  H15 UNK     1      16.827   1.296  33.537  1.00  0.00     0.169 HD
BRANCH  10  12
HETATM   12  C17 UNK     1      18.029   2.883  33.008  1.00  0.00     0.034 A 
HETATM   13  C19 UNK     1      18.312   2.663  31.660  1.00  0.00     0.032 A 
HETATM   14  C21 UNK     1      18.674   3.731  30.840  1.00  0.00     0.039 A 
HETATM   15  C23 UNK     1      18.754   5.020  31.368  1.00  0.00     0.068 A 
HETATM   16  C22 UNK     1      18.473   5.239  32.717  1.00  0.00     0.039 A 
HETATM   17  C20 UNK     1      18.110   4.171  33.536  1.00  0.00     0.032 A 
BRANCH  15  18
HETATM   18  O4  UNK     1      19.107   6.062  30.569  1.00  0.00    -0.352 OA
BRANCH  18  19
HETATM   19  C24 UNK     1      20.335   5.944  29.850  1.00  0.00     0.171 C 
HETATM   20  C25 UNK     1      21.486   5.987  30.832  1.00  0.00     0.034 C 
ENDBRANCH  18  19
ENDBRANCH  15  18
ENDBRANCH  10  12
ENDBRANCH   7   8
ENDBRANCH   2   7
BRANCH   1  21
HETATM   21  C5  UNK     1      20.479  -4.437  37.093  1.00  0.00     0.312 C 
BRANCH  21  22
HETATM   22  C7  UNK     1      20.353  -5.771  36.444  1.00  0.00    -0.011 A 
HETATM   23  C10 UNK     1      20.449  -5.906  35.114  1.00  0.00     0.092 A 
HETATM   24  C13 UNK     1      20.332  -7.204  34.427  1.00  0.00     0.288 A 
HETATM   25  O1  UNK     1      20.111  -8.315  35.228  1.00  0.00    -0.275 OA
HETATM   26  O3  UNK     1      20.426  -7.290  33.208  1.00  0.00    -0.260 OA
HETATM   27  C11 UNK     1      20.004  -8.203  36.628  1.00  0.00     0.090 A 
HETATM   28  C8  UNK     1      20.118  -6.966  37.265  1.00  0.00     0.006 A 
HETATM   29  C14 UNK     1      19.782  -9.387  37.334  1.00  0.00     0.045 A 
HETATM   30  C12 UNK     1      20.000  -6.941  38.661  1.00  0.00     0.015 A 
HETATM   31  C16 UNK     1      19.776  -8.119  39.382  1.00  0.00     0.007 A 
HETATM   32  C15 UNK     1      19.667  -9.341  38.719  1.00  0.00    -0.059 A 
HETATM   33  C18 UNK     1      19.429 -10.592  39.494  1.00  0.00     0.048 C 
ENDBRANCH  21  22
ENDBRANCH   1  21
TORSDOF 7
ENDMDL
MODEL 2
REMARK VINA RESULT:      -9.2      3.764     12.956
REMARK  7 active torsions:
REMARK  status: ('A' for Active; 'I' for Inactive)
REMARK    1  A    between atoms: C23_30  and  O4_4 
REMARK    2  A    between atoms: C24_31  and  O4_4 
REMARK    3  A    between atoms: C5_12  and  N1_5 
REMARK    4  A    between atoms: C6_13  and  N2_6 
REMARK    5  A    between atoms: C17_24  and  N3_7 
REMARK       I    between atoms: C9_16  and  N3_7 
REMARK    6  A    between atoms: C5_12  and  C7_14 
REMARK    7  A    between atoms: C6_13  and  C9_16 
ROOT
HETATM    1  N1  UNK     1      18.061   5.414  31.557  1.00  0.00     0.096 N 
HETATM    2  N2  UNK     1      18.981   2.738  30.967  1.00  0.00     0.100 N 
HETATM    3  C1  UNK     1      18.215   4.410  32.617  1.00  0.00     0.303 C 
HETATM    4  C2  UNK     1      19.008   5.158  30.466  1.00  0.00     0.303 C 
HETATM    5  C3  UNK     1      18.033   2.994  32.058  1.00  0.00     0.303 C 
HETATM    6  C4  UNK     1      18.827   3.742  29.907  1.00  0.00     0.303 C 
ENDROOT
BRANCH   2   7
HETATM    7  C6  UNK     1      18.807   1.389  30.434  1.00  0.00     0.375 C 
BRANCH   7   8
HETATM    8  C9  UNK     1      19.639   0.412  31.247  1.00  0.00     0.250 C 
HETATM    9  O2  UNK     1      20.811   0.162  30.983  1.00  0.00    -0.271 OA
HETATM   10  N3  UNK     1      18.880  -0.115  32.289  1.00  0.00    -0.326 N 
HETATM   11  H15 UNK     1      17.914   0.193  32.374  1.00  0.00     0.169 HD
BRANCH  10  12
HETATM   12  C17 UNK     1      19.290  -1.054  33.266  1.00  0.00     0.034 A 
HETATM   13  C19 UNK     1      18.836  -0.935  34.580  1.00  0.00     0.032 A 
HETATM   14  C21 UNK     1      19.237  -1.861  35.543  1.00  0.00     0.039 A 
HETATM   15  C23 UNK     1      20.093  -2.905  35.192  1.00  0.00     0.068 A 
HETATM   16  C22 UNK     1      20.547  -3.022  33.879  1.00  0.00     0.039 A 
HETATM   17  C20 UNK     1      20.146  -2.098  32.916  1.00  0.00     0.032 A 
BRANCH  15  18
HETATM   18  O4  UNK     1      20.485  -3.809  36.131  1.00  0.00    -0.352 OA
BRANCH  18  19
HETATM   19  C24 UNK     1      19.571  -4.859  36.443  1.00  0.00     0.171 C 
HETATM   20  C25 UNK     1      19.861  -6.046  35.550  1.00  0.00     0.034 C 
ENDBRANCH  18  19
ENDBRANCH  15  18
ENDBRANCH  10  12
ENDBRANCH   7   8
ENDBRANCH   2   7
BRANCH   1  21
HETATM   21  C5  UNK     1      18.237   6.763  32.092  1.00  0.00     0.312 C 
BRANCH  21  22
HETATM   22  C7  UNK     1      16.937   7.420  32.399  1.00  0.00    -0.011 A 
HETATM   23  C10 UNK     1      15.774   6.851  32.055  1.00  0.00     0.092 A 
HETATM   24  C13 UNK     1      14.464   7.462  32.338  1.00  0.00     0.288 A 
HETATM   25  O1  UNK     1      14.476   8.685  32.991  1.00  0.00    -0.275 OA
HETATM   26  O3  UNK     1      13.419   6.911  32.008  1.00  0.00    -0.260 OA
HETATM   27  C11 UNK     1      15.683   9.309  33.365  1.00  0.00     0.090 A 
HETATM   28  C8  UNK     1      16.917   8.717  33.090  1.00  0.00     0.006 A 
HETATM   29  C14 UNK     1      15.575  10.538  34.018  1.00  0.00     0.045 A 
HETATM   30  C12 UNK     1      18.071   9.401  33.494  1.00  0.00     0.015 A 
HETATM   31  C16 UNK     1      17.979  10.635  34.150  1.00  0.00     0.007 A 
HETATM   32  C15 UNK     1      16.732  11.202  34.411  1.00  0.00    -0.059 A 
HETATM   33  C18 UNK     1      16.642  12.516  35.110  1.00  0.00     0.048 C 
ENDBRANCH  21  22
ENDBRANCH   1  21
TORSDOF 7
ENDMDL
MODEL 3
REMARK VINA RESULT:      -8.9      1.762      2.478
REMARK  7 active torsions:
REMARK  status: ('A' for Active; 'I' for Inactive)
REMARK    1  A    between atoms: C23_30  and  O4_4 
REMARK    2  A    between atoms: C24_31  and  O4_4 
REMARK    3  A    between atoms: C5_12  and  N1_5 
REMARK    4  A    between atoms: C6_13  and  N2_6 
REMARK    5  A    between atoms: C17_24  and  N3_7 
REMARK       I    between atoms: C9_16  and  N3_7 
REMARK    6  A    between atoms: C5_12  and  C7_14 
REMARK    7  A    between atoms: C6_13  and  C9_16 
ROOT
HETATM    1  N1  UNK     1      19.645  -3.766  36.450  1.00  0.00     0.096 N 
HETATM    2  N2  UNK     1      18.306  -1.234  36.057  1.00  0.00     0.100 N 
HETATM    3  C1  UNK     1      18.221  -3.599  36.768  1.00  0.00     0.303 C 
HETATM    4  C2  UNK     1      20.039  -2.856  35.369  1.00  0.00     0.303 C 
HETATM    5  C3  UNK     1      17.912  -2.144  37.139  1.00  0.00     0.303 C 
HETATM    6  C4  UNK     1      19.730  -1.401  35.740  1.00  0.00     0.303 C 
ENDROOT
BRANCH   2   7
HETATM    7  C6  UNK     1      18.012   0.153  36.411  1.00  0.00     0.375 C 
BRANCH   7   8
HETATM    8  C9  UNK     1      17.576   0.910  35.170  1.00  0.00     0.250 C 
HETATM    9  O2  UNK     1      16.604   0.577  34.500  1.00  0.00    -0.271 OA
HETATM   10  N3  UNK     1      18.425   1.991  34.942  1.00  0.00    -0.326 N 
HETATM   11  H15 UNK     1      19.195   2.133  35.592  1.00  0.00     0.169 HD
BRANCH  10  12
HETATM   12  C17 UNK     1      18.356   2.937  33.891  1.00  0.00     0.034 A 
HETATM   13  C19 UNK     1      18.381   4.302  34.179  1.00  0.00     0.032 A 
HETATM   14  C21 UNK     1      18.316   5.234  33.144  1.00  0.00     0.039 A 
HETATM   15  C23 UNK     1      18.223   4.802  31.821  1.00  0.00     0.068 A 
HETATM   16  C22 UNK     1      18.197   3.437  31.533  1.00  0.00     0.039 A 
HETATM   17  C20 UNK     1      18.263   2.505  32.568  1.00  0.00     0.032 A 
BRANCH  15  18
HETATM   18  O4  UNK     1      18.160   5.711  30.810  1.00  0.00    -0.352 OA
BRANCH  18  19
HETATM   19  C24 UNK     1      19.116   5.582  29.759  1.00  0.00     0.171 C 
HETATM   20  C25 UNK     1      20.482   5.962  30.287  1.00  0.00     0.034 C 
ENDBRANCH  18  19
ENDBRANCH  15  18
ENDBRANCH  10  12
ENDBRANCH   7   8
ENDBRANCH   2   7
BRANCH   1  21
HETATM   21  C5  UNK     1      19.937  -5.153  36.094  1.00  0.00     0.312 C 
BRANCH  21  22
HETATM   22  C7  UNK     1      20.707  -5.856  37.157  1.00  0.00    -0.011 A 
HETATM   23  C10 UNK     1      21.767  -5.280  37.741  1.00  0.00     0.092 A 
HETATM   24  C13 UNK     1      22.558  -5.936  38.797  1.00  0.00     0.288 A 
HETATM   25  O1  UNK     1      22.158  -7.209  39.175  1.00  0.00    -0.275 OA
HETATM   26  O3  UNK     1      23.521  -5.378  39.310  1.00  0.00    -0.260 OA
HETATM   27  C11 UNK     1      21.049  -7.840  38.578  1.00  0.00     0.090 A 
HETATM   28  C8  UNK     1      20.308  -7.206  37.579  1.00  0.00     0.006 A 
HETATM   29  C14 UNK     1      20.736  -9.121  39.037  1.00  0.00     0.045 A 
HETATM   30  C12 UNK     1      19.219  -7.901  37.036  1.00  0.00     0.015 A 
HETATM   31  C16 UNK     1      18.894  -9.186  37.486  1.00  0.00     0.007 A 
HETATM   32  C15 UNK     1      19.652  -9.795  38.485  1.00  0.00    -0.059 A 
HETATM   33  C18 UNK     1      19.300 -11.164  38.960  1.00  0.00     0.048 C 
ENDBRANCH  21  22
ENDBRANCH   1  21
TORSDOF 7
ENDMDL
MODEL 4
REMARK VINA RESULT:      -8.7      2.097      2.604
REMARK  7 active torsions:
REMARK  status: ('A' for Active; 'I' for Inactive)
REMARK    1  A    between atoms: C23_30  and  O4_4 
REMARK    2  A    between atoms: C24_31  and  O4_4 
REMARK    3  A    between atoms: C5_12  and  N1_5 
REMARK    4  A    between atoms: C6_13  and  N2_6 
REMARK    5  A    between atoms: C17_24  and  N3_7 
REMARK       I    between atoms: C9_16  and  N3_7 
REMARK    6  A    between atoms: C5_12  and  C7_14 
REMARK    7  A    between atoms: C6_13  and  C9_16 
ROOT
HETATM    1  N1  UNK     1      19.557  -2.736  35.767  1.00  0.00     0.096 N 
HETATM    2  N2  UNK     1      18.840  -0.185  34.613  1.00  0.00     0.100 N 
HETATM    3  C1  UNK     1      20.155  -2.274  34.509  1.00  0.00     0.303 C 
HETATM    4  C2  UNK     1      19.192  -1.593  36.612  1.00  0.00     0.303 C 
HETATM    5  C3  UNK     1      19.203  -1.329  33.767  1.00  0.00     0.303 C 
HETATM    6  C4  UNK     1      18.241  -0.647  35.870  1.00  0.00     0.303 C 
ENDROOT
BRANCH   2   7
HETATM    7  C6  UNK     1      17.931   0.716  33.905  1.00  0.00     0.375 C 
BRANCH   7   8
HETATM    8  C9  UNK     1      18.286   2.154  34.237  1.00  0.00     0.250 C 
HETATM    9  O2  UNK     1      18.812   2.478  35.298  1.00  0.00    -0.271 OA
HETATM   10  N3  UNK     1      17.933   2.993  33.182  1.00  0.00    -0.326 N 
HETATM   11  H15 UNK     1      17.500   2.569  32.365  1.00  0.00     0.169 HD
BRANCH  10  12
HETATM   12  C17 UNK     1      18.099   4.397  33.103  1.00  0.00     0.034 A 
HETATM   13  C19 UNK     1      18.748   4.960  32.004  1.00  0.00     0.032 A 
HETATM   14  C21 UNK     1      18.909   6.343  31.924  1.00  0.00     0.039 A 
HETATM   15  C23 UNK     1      18.423   7.162  32.942  1.00  0.00     0.068 A 
HETATM   16  C22 UNK     1      17.776   6.598  34.041  1.00  0.00     0.039 A 
HETATM   17  C20 UNK     1      17.613   5.216  34.121  1.00  0.00     0.032 A 
BRANCH  15  18
HETATM   18  O4  UNK     1      18.580   8.512  32.864  1.00  0.00    -0.352 OA
BRANCH  18  19
HETATM   19  C24 UNK     1      18.754   9.218  34.092  1.00  0.00     0.171 C 
HETATM   20  C25 UNK     1      20.225   9.231  34.449  1.00  0.00     0.034 C 
ENDBRANCH  18  19
ENDBRANCH  15  18
ENDBRANCH  10  12
ENDBRANCH   7   8
ENDBRANCH   2   7
BRANCH   1  21
HETATM   21  C5  UNK     1      20.466  -3.635  36.475  1.00  0.00     0.312 C 
BRANCH  21  22
HETATM   22  C7  UNK     1      19.795  -4.894  36.900  1.00  0.00    -0.011 A 
HETATM   23  C10 UNK     1      18.554  -5.191  36.490  1.00  0.00     0.092 A 
HETATM   24  C13 UNK     1      17.850  -6.423  36.884  1.00  0.00     0.288 A 
HETATM   25  O1  UNK     1      18.535  -7.292  37.719  1.00  0.00    -0.275 OA
HETATM   26  O3  UNK     1      16.714  -6.661  36.488  1.00  0.00    -0.260 OA
HETATM   27  C11 UNK     1      19.840  -7.007  38.167  1.00  0.00     0.090 A 
HETATM   28  C8  UNK     1      20.495  -5.834  37.785  1.00  0.00     0.006 A 
HETATM   29  C14 UNK     1      20.434  -7.953  39.004  1.00  0.00     0.045 A 
HETATM   30  C12 UNK     1      21.792  -5.626  38.274  1.00  0.00     0.015 A 
HETATM   31  C16 UNK     1      22.400  -6.565  39.115  1.00  0.00     0.007 A 
HETATM   32  C15 UNK     1      21.721  -7.727  39.479  1.00  0.00    -0.059 A 
HETATM   33  C18 UNK     1      22.376  -8.724  40.375  1.00  0.00     0.048 C 
ENDBRANCH  21  22
ENDBRANCH   1  21
TORSDOF 7
ENDMDL
MODEL 5
REMARK VINA RESULT:      -8.6     27.211     29.095
REMARK  7 active torsions:
REMARK  status: ('A' for Active; 'I' for Inactive)
REMARK    1  A    between atoms: C23_30  and  O4_4 
REMARK    2  A    between atoms: C24_31  and  O4_4 
REMARK    3  A    between atoms: C5_12  and  N1_5 
REMARK    4  A    between atoms: C6_13  and  N2_6 
REMARK    5  A    between atoms: C17_24  and  N3_7 
REMARK       I    between atoms: C9_16  and  N3_7 
REMARK    6  A    between atoms: C5_12  and  C7_14 
REMARK    7  A    between atoms: C6_13  and  C9_16 
ROOT
HETATM    1  N1  UNK     1      15.465   9.389   9.399  1.00  0.00     0.096 N 
HETATM    2  N2  UNK     1      17.223  11.618   8.852  1.00  0.00     0.100 N 
HETATM    3  C1  UNK     1      16.818   9.449   9.964  1.00  0.00     0.303 C 
HETATM    4  C2  UNK     1      14.937  10.742   9.188  1.00  0.00     0.303 C 
HETATM    5  C3  UNK     1      17.751  10.265   9.062  1.00  0.00     0.303 C 
HETATM    6  C4  UNK     1      15.870  11.558   8.286  1.00  0.00     0.303 C 
ENDROOT
BRANCH   2   7
HETATM    7  C6  UNK     1      18.112  12.395   7.991  1.00  0.00     0.375 C 
BRANCH   7   8
HETATM    8  C9  UNK     1      19.555  12.127   8.381  1.00  0.00     0.250 C 
HETATM    9  O2  UNK     1      20.259  11.314   7.792  1.00  0.00    -0.271 OA
HETATM   10  N3  UNK     1      19.917  12.926   9.464  1.00  0.00    -0.326 N 
HETATM   11  H15 UNK     1      19.213  13.554   9.846  1.00  0.00     0.169 HD
BRANCH  10  12
HETATM   12  C17 UNK     1      21.171  12.974  10.120  1.00  0.00     0.034 A 
HETATM   13  C19 UNK     1      21.335  12.347  11.355  1.00  0.00     0.032 A 
HETATM   14  C21 UNK     1      22.571  12.391  12.000  1.00  0.00     0.039 A 
HETATM   15  C23 UNK     1      23.642  13.063  11.411  1.00  0.00     0.068 A 
HETATM   16  C22 UNK     1      23.476  13.691  10.177  1.00  0.00     0.039 A 
HETATM   17  C20 UNK     1      22.242  13.646   9.531  1.00  0.00     0.032 A 
BRANCH  15  18
HETATM   18  O4  UNK     1      24.847  13.106  12.041  1.00  0.00    -0.352 OA
BRANCH  18  19
HETATM   19  C24 UNK     1      25.966  12.566  11.339  1.00  0.00     0.171 C 
HETATM   20  C25 UNK     1      26.006  11.068  11.555  1.00  0.00     0.034 C 
ENDBRANCH  18  19
ENDBRANCH  15  18
ENDBRANCH  10  12
ENDBRANCH   7   8
ENDBRANCH   2   7
BRANCH   1  21
HETATM   21  C5  UNK     1      14.576   8.613  10.262  1.00  0.00     0.312 C 
BRANCH  21  22
HETATM   22  C7  UNK     1      14.325   7.247   9.727  1.00  0.00    -0.011 A 
HETATM   23  C10 UNK     1      15.098   6.211  10.082  1.00  0.00     0.092 A 
HETATM   24  C13 UNK     1      14.888   4.842   9.579  1.00  0.00     0.288 A 
HETATM   25  O1  UNK     1      13.832   4.657   8.700  1.00  0.00    -0.275 OA
HETATM   26  O3  UNK     1      15.615   3.918   9.926  1.00  0.00    -0.260 OA
HETATM   27  C11 UNK     1      13.003   5.726   8.308  1.00  0.00     0.090 A 
HETATM   28  C8  UNK     1      13.215   7.019   8.793  1.00  0.00     0.006 A 
HETATM   29  C14 UNK     1      11.971   5.424   7.419  1.00  0.00     0.045 A 
HETATM   30  C12 UNK     1      12.345   8.027   8.355  1.00  0.00     0.015 A 
HETATM   31  C16 UNK     1      11.306   7.739   7.463  1.00  0.00     0.007 A 
HETATM   32  C15 UNK     1      11.119   6.439   6.996  1.00  0.00    -0.059 A 
HETATM   33  C18 UNK     1      10.009   6.139   6.046  1.00  0.00     0.048 C 
ENDBRANCH  21  22
ENDBRANCH   1  21
TORSDOF 7
ENDMDL
MODEL 6
REMARK VINA RESULT:      -8.6      5.017      8.744
REMARK  7 active torsions:
REMARK  status: ('A' for Active; 'I' for Inactive)
REMARK    1  A    between atoms: C23_30  and  O4_4 
REMARK    2  A    between atoms: C24_31  and  O4_4 
REMARK    3  A    between atoms: C5_12  and  N1_5 
REMARK    4  A    between atoms: C6_13  and  N2_6 
REMARK    5  A    between atoms: C17_24  and  N3_7 
REMARK       I    between atoms: C9_16  and  N3_7 
REMARK    6  A    between atoms: C5_12  and  C7_14 
REMARK    7  A    between atoms: C6_13  and  C9_16 
ROOT
HETATM    1  N1  UNK     1      18.845   3.706  31.338  1.00  0.00     0.096 N 
HETATM    2  N2  UNK     1      19.201   6.371  32.401  1.00  0.00     0.100 N 
HETATM    3  C1  UNK     1      17.962   4.233  32.385  1.00  0.00     0.303 C 
HETATM    4  C2  UNK     1      19.357   4.798  30.502  1.00  0.00     0.303 C 
HETATM    5  C3  UNK     1      18.690   5.278  33.238  1.00  0.00     0.303 C 
HETATM    6  C4  UNK     1      20.085   5.843  31.354  1.00  0.00     0.303 C 
ENDROOT
BRANCH   2   7
HETATM    7  C6  UNK     1      19.896   7.367  33.214  1.00  0.00     0.375 C 
BRANCH   7   8
HETATM    8  C9  UNK     1      18.906   8.033  34.153  1.00  0.00     0.250 C 
HETATM    9  O2  UNK     1      18.993   7.947  35.374  1.00  0.00    -0.271 OA
HETATM   10  N3  UNK     1      17.939   8.721  33.424  1.00  0.00    -0.326 N 
HETATM   11  H15 UNK     1      18.003   8.694  32.409  1.00  0.00     0.169 HD
BRANCH  10  12
HETATM   12  C17 UNK     1      16.848   9.468  33.928  1.00  0.00     0.034 A 
HETATM   13  C19 UNK     1      15.610   8.853  34.118  1.00  0.00     0.032 A 
HETATM   14  C21 UNK     1      14.536   9.588  34.617  1.00  0.00     0.039 A 
HETATM   15  C23 UNK     1      14.697  10.939  34.926  1.00  0.00     0.068 A 
HETATM   16  C22 UNK     1      15.935  11.554  34.735  1.00  0.00     0.039 A 
HETATM   17  C20 UNK     1      17.010  10.819  34.237  1.00  0.00     0.032 A 
BRANCH  15  18
HETATM   18  O4  UNK     1      13.649  11.657  35.413  1.00  0.00    -0.352 OA
BRANCH  18  19
HETATM   19  C24 UNK     1      13.840  12.318  36.663  1.00  0.00     0.171 C 
HETATM   20  C25 UNK     1      13.666  11.314  37.783  1.00  0.00     0.034 C 
ENDBRANCH  18  19
ENDBRANCH  15  18
ENDBRANCH  10  12
ENDBRANCH   7   8
ENDBRANCH   2   7
BRANCH   1  21
HETATM   21  C5  UNK     1      18.148   2.712  30.524  1.00  0.00     0.312 C 
BRANCH  21  22
HETATM   22  C7  UNK     1      18.861   1.405  30.501  1.00  0.00    -0.011 A 
HETATM   23  C10 UNK     1      19.468   0.965  29.390  1.00  0.00     0.092 A 
HETATM   24  C13 UNK     1      20.185  -0.320  29.320  1.00  0.00     0.288 A 
HETATM   25  O1  UNK     1      20.211  -1.082  30.478  1.00  0.00    -0.275 OA
HETATM   26  O3  UNK     1      20.729  -0.690  28.285  1.00  0.00    -0.260 OA
HETATM   27  C11 UNK     1      19.582  -0.646  31.661  1.00  0.00     0.090 A 
HETATM   28  C8  UNK     1      18.906   0.574  31.712  1.00  0.00     0.006 A 
HETATM   29  C14 UNK     1      19.673  -1.495  32.766  1.00  0.00     0.045 A 
HETATM   30  C12 UNK     1      18.307   0.935  32.927  1.00  0.00     0.015 A 
HETATM   31  C16 UNK     1      18.390   0.094  34.043  1.00  0.00     0.007 A 
HETATM   32  C15 UNK     1      19.071  -1.119  33.962  1.00  0.00    -0.059 A 
HETATM   33  C18 UNK     1      19.155  -2.009  35.156  1.00  0.00     0.048 C 
ENDBRANCH  21  22
ENDBRANCH   1  21
TORSDOF 7
ENDMDL
MODEL 7
REMARK VINA RESULT:      -8.6      6.300      9.761
REMARK  7 active torsions:
REMARK  status: ('A' for Active; 'I' for Inactive)
REMARK    1  A    between atoms: C23_30  and  O4_4 
REMARK    2  A    between atoms: C24_31  and  O4_4 
REMARK    3  A    between atoms: C5_12  and  N1_5 
REMARK    4  A    between atoms: C6_13  and  N2_6 
REMARK    5  A    between atoms: C17_24  and  N3_7 
REMARK       I    between atoms: C9_16  and  N3_7 
REMARK    6  A    between atoms: C5_12  and  C7_14 
REMARK    7  A    between atoms: C6_13  and  C9_16 
ROOT
HETATM    1  N1  UNK     1      18.593   4.771  32.464  1.00  0.00     0.096 N 
HETATM    2  N2  UNK     1      18.614   7.567  33.196  1.00  0.00     0.100 N 
HETATM    3  C1  UNK     1      17.374   5.449  32.920  1.00  0.00     0.303 C 
HETATM    4  C2  UNK     1      19.494   5.724  31.806  1.00  0.00     0.303 C 
HETATM    5  C3  UNK     1      17.714   6.614  33.856  1.00  0.00     0.303 C 
HETATM    6  C4  UNK     1      19.834   6.889  32.741  1.00  0.00     0.303 C 
ENDROOT
BRANCH   2   7
HETATM    7  C6  UNK     1      18.939   8.677  34.089  1.00  0.00     0.375 C 
BRANCH   7   8
HETATM    8  C9  UNK     1      17.916   9.786  33.910  1.00  0.00     0.250 C 
HETATM    9  O2  UNK     1      18.208  10.887  33.456  1.00  0.00    -0.271 OA
HETATM   10  N3  UNK     1      16.660   9.353  34.328  1.00  0.00    -0.326 N 
HETATM   11  H15 UNK     1      16.581   8.404  34.687  1.00  0.00     0.169 HD
BRANCH  10  12
HETATM   12  C17 UNK     1      15.448  10.086  34.321  1.00  0.00     0.034 A 
HETATM   13  C19 UNK     1      14.699  10.182  33.149  1.00  0.00     0.032 A 
HETATM   14  C21 UNK     1      13.504  10.901  33.142  1.00  0.00     0.039 A 
HETATM   15  C23 UNK     1      13.059  11.525  34.308  1.00  0.00     0.068 A 
HETATM   16  C22 UNK     1      13.809  11.429  35.480  1.00  0.00     0.039 A 
HETATM   17  C20 UNK     1      15.003  10.709  35.487  1.00  0.00     0.032 A 
BRANCH  15  18
HETATM   18  O4  UNK     1      11.893  12.227  34.302  1.00  0.00    -0.352 OA
BRANCH  18  19
HETATM   19  C24 UNK     1      11.302  12.496  33.031  1.00  0.00     0.171 C 
HETATM   20  C25 UNK     1      10.522  13.790  33.115  1.00  0.00     0.034 C 
ENDBRANCH  18  19
ENDBRANCH  15  18
ENDBRANCH  10  12
ENDBRANCH   7   8
ENDBRANCH   2   7
BRANCH   1  21
HETATM   21  C5  UNK     1      18.267   3.662  31.569  1.00  0.00     0.312 C 
BRANCH  21  22
HETATM   22  C7  UNK     1      18.431   2.338  32.232  1.00  0.00    -0.011 A 
HETATM   23  C10 UNK     1      18.067   2.151  33.508  1.00  0.00     0.092 A 
HETATM   24  C13 UNK     1      18.210   0.861  34.204  1.00  0.00     0.288 A 
HETATM   25  O1  UNK     1      18.753  -0.184  33.473  1.00  0.00    -0.275 OA
HETATM   26  O3  UNK     1      17.866   0.727  35.373  1.00  0.00    -0.260 OA
HETATM   27  C11 UNK     1      19.145  -0.018  32.130  1.00  0.00     0.090 A 
HETATM   28  C8  UNK     1      19.003   1.211  31.483  1.00  0.00     0.006 A 
HETATM   29  C14 UNK     1      19.678  -1.139  31.491  1.00  0.00     0.045 A 
HETATM   30  C12 UNK     1      19.418   1.294  30.147  1.00  0.00     0.015 A 
HETATM   31  C16 UNK     1      19.954   0.178  29.493  1.00  0.00     0.007 A 
HETATM   32  C15 UNK     1      20.084  -1.036  30.165  1.00  0.00    -0.059 A 
HETATM   33  C18 UNK     1      20.656  -2.221  29.462  1.00  0.00     0.048 C 
ENDBRANCH  21  22
ENDBRANCH   1  21
TORSDOF 7
ENDMDL
MODEL 8
REMARK VINA RESULT:      -8.5     14.366     17.634
REMARK  7 active torsions:
REMARK  status: ('A' for Active; 'I' for Inactive)
REMARK    1  A    between atoms: C23_30  and  O4_4 
REMARK    2  A    between atoms: C24_31  and  O4_4 
REMARK    3  A    between atoms: C5_12  and  N1_5 
REMARK    4  A    between atoms: C6_13  and  N2_6 
REMARK    5  A    between atoms: C17_24  and  N3_7 
REMARK       I    between atoms: C9_16  and  N3_7 
REMARK    6  A    between atoms: C5_12  and  C7_14 
REMARK    7  A    between atoms: C6_13  and  C9_16 
ROOT
HETATM    1  N1  UNK     1      32.114  -5.998  35.926  1.00  0.00     0.096 N 
HETATM    2  N2  UNK     1      34.720  -6.537  34.796  1.00  0.00     0.100 N 
HETATM    3  C1  UNK     1      32.970  -4.913  35.430  1.00  0.00     0.303 C 
HETATM    4  C2  UNK     1      32.384  -7.239  35.192  1.00  0.00     0.303 C 
HETATM    5  C3  UNK     1      34.450  -5.295  35.531  1.00  0.00     0.303 C 
HETATM    6  C4  UNK     1      33.865  -7.622  35.292  1.00  0.00     0.303 C 
ENDROOT
BRANCH   2   7
HETATM    7  C6  UNK     1      36.132  -6.902  34.892  1.00  0.00     0.375 C 
BRANCH   7   8
HETATM    8  C9  UNK     1      36.616  -7.410  33.545  1.00  0.00     0.250 C 
HETATM    9  O2  UNK     1      36.669  -6.696  32.550  1.00  0.00    -0.271 OA
HETATM   10  N3  UNK     1      36.972  -8.754  33.638  1.00  0.00    -0.326 N 
HETATM   11  H15 UNK     1      36.866  -9.211  34.541  1.00  0.00     0.169 HD
BRANCH  10  12
HETATM   12  C17 UNK     1      37.468  -9.588  32.608  1.00  0.00     0.034 A 
HETATM   13  C19 UNK     1      38.699 -10.227  32.761  1.00  0.00     0.032 A 
HETATM   14  C21 UNK     1      39.187 -11.051  31.747  1.00  0.00     0.039 A 
HETATM   15  C23 UNK     1      38.446 -11.235  30.580  1.00  0.00     0.068 A 
HETATM   16  C22 UNK     1      37.216 -10.596  30.427  1.00  0.00     0.039 A 
HETATM   17  C20 UNK     1      36.727  -9.773  31.441  1.00  0.00     0.032 A 
BRANCH  15  18
HETATM   18  O4  UNK     1      38.922 -12.040  29.591  1.00  0.00    -0.352 OA
BRANCH  18  19
HETATM   19  C24 UNK     1      40.125 -11.630  28.942  1.00  0.00     0.171 C 
HETATM   20  C25 UNK     1      40.300 -12.436  27.674  1.00  0.00     0.034 C 
ENDBRANCH  18  19
ENDBRANCH  15  18
ENDBRANCH  10  12
ENDBRANCH   7   8
ENDBRANCH   2   7
BRANCH   1  21
HETATM   21  C5  UNK     1      30.703  -5.633  35.827  1.00  0.00     0.312 C 
BRANCH  21  22
HETATM   22  C7  UNK     1      30.033  -5.610  37.157  1.00  0.00    -0.011 A 
HETATM   23  C10 UNK     1      30.071  -4.519  37.933  1.00  0.00     0.092 A 
HETATM   24  C13 UNK     1      29.424  -4.449  39.255  1.00  0.00     0.288 A 
HETATM   25  O1  UNK     1      28.755  -5.586  39.681  1.00  0.00    -0.275 OA
HETATM   26  O3  UNK     1      29.479  -3.432  39.938  1.00  0.00    -0.260 OA
HETATM   27  C11 UNK     1      28.699  -6.749  38.887  1.00  0.00     0.090 A 
HETATM   28  C8  UNK     1      29.317  -6.800  37.636  1.00  0.00     0.006 A 
HETATM   29  C14 UNK     1      27.998  -7.834  39.416  1.00  0.00     0.045 A 
HETATM   30  C12 UNK     1      29.215  -7.993  36.909  1.00  0.00     0.015 A 
HETATM   31  C16 UNK     1      28.515  -9.090  37.427  1.00  0.00     0.007 A 
HETATM   32  C15 UNK     1      27.908  -9.010  38.679  1.00  0.00    -0.059 A 
HETATM   33  C18 UNK     1      27.164 -10.182  39.224  1.00  0.00     0.048 C 
ENDBRANCH  21  22
ENDBRANCH   1  21
TORSDOF 7
ENDMDL
MODEL 9
REMARK VINA RESULT:      -8.3      8.742     12.973
REMARK  7 active torsions:
REMARK  status: ('A' for Active; 'I' for Inactive)
REMARK    1  A    between atoms: C23_30  and  O4_4 
REMARK    2  A    between atoms: C24_31  and  O4_4 
REMARK    3  A    between atoms: C5_12  and  N1_5 
REMARK    4  A    between atoms: C6_13  and  N2_6 
REMARK    5  A    between atoms: C17_24  and  N3_7 
REMARK       I    between atoms: C9_16  and  N3_7 
REMARK    6  A    between atoms: C5_12  and  C7_14 
REMARK    7  A    between atoms: C6_13  and  C9_16 
ROOT
HETATM    1  N1  UNK     1      29.944  -7.043  35.340  1.00  0.00     0.096 N 
HETATM    2  N2  UNK     1      28.396  -7.694  37.693  1.00  0.00     0.100 N 
HETATM    3  C1  UNK     1      30.594  -7.359  36.618  1.00  0.00     0.303 C 
HETATM    4  C2  UNK     1      28.655  -7.737  35.236  1.00  0.00     0.303 C 
HETATM    5  C3  UNK     1      29.685  -6.999  37.797  1.00  0.00     0.303 C 
HETATM    6  C4  UNK     1      27.745  -7.378  36.416  1.00  0.00     0.303 C 
ENDROOT
BRANCH   2   7
HETATM    7  C6  UNK     1      27.528  -7.351  38.818  1.00  0.00     0.375 C 
BRANCH   7   8
HETATM    8  C9  UNK     1      26.319  -8.269  38.822  1.00  0.00     0.250 C 
HETATM    9  O2  UNK     1      26.413  -9.486  38.942  1.00  0.00    -0.271 OA
HETATM   10  N3  UNK     1      25.149  -7.526  38.678  1.00  0.00    -0.326 N 
HETATM   11  H15 UNK     1      25.238  -6.516  38.587  1.00  0.00     0.169 HD
BRANCH  10  12
HETATM   12  C17 UNK     1      23.819  -8.009  38.636  1.00  0.00     0.034 A 
HETATM   13  C19 UNK     1      23.314  -8.558  37.458  1.00  0.00     0.032 A 
HETATM   14  C21 UNK     1      22.005  -9.037  37.416  1.00  0.00     0.039 A 
HETATM   15  C23 UNK     1      21.200  -8.965  38.553  1.00  0.00     0.068 A 
HETATM   16  C22 UNK     1      21.705  -8.414  39.731  1.00  0.00     0.039 A 
HETATM   17  C20 UNK     1      23.014  -7.937  39.773  1.00  0.00     0.032 A 
BRANCH  15  18
HETATM   18  O4  UNK     1      19.923  -9.432  38.513  1.00  0.00    -0.352 OA
BRANCH  18  19
HETATM   19  C24 UNK     1      19.084  -8.942  37.468  1.00  0.00     0.171 C 
HETATM   20  C25 UNK     1      18.683  -7.517  37.784  1.00  0.00     0.034 C 
ENDBRANCH  18  19
ENDBRANCH  15  18
ENDBRANCH  10  12
ENDBRANCH   7   8
ENDBRANCH   2   7
BRANCH   1  21
HETATM   21  C5  UNK     1      30.811  -7.389  34.216  1.00  0.00     0.312 C 
BRANCH  21  22
HETATM   22  C7  UNK     1      30.359  -6.763  32.943  1.00  0.00    -0.011 A 
HETATM   23  C10 UNK     1      30.363  -5.432  32.786  1.00  0.00     0.092 A 
HETATM   24  C13 UNK     1      29.926  -4.768  31.546  1.00  0.00     0.288 A 
HETATM   25  O1  UNK     1      29.495  -5.592  30.517  1.00  0.00    -0.275 OA
HETATM   26  O3  UNK     1      29.944  -3.547  31.437  1.00  0.00    -0.260 OA
HETATM   27  C11 UNK     1      29.479  -6.994  30.653  1.00  0.00     0.090 A 
HETATM   28  C8  UNK     1      29.897  -7.609  31.835  1.00  0.00     0.006 A 
HETATM   29  C14 UNK     1      29.027  -7.724  29.553  1.00  0.00     0.045 A 
HETATM   30  C12 UNK     1      29.850  -9.009  31.890  1.00  0.00     0.015 A 
HETATM   31  C16 UNK     1      29.398  -9.754  30.795  1.00  0.00     0.007 A 
HETATM   32  C15 UNK     1      28.987  -9.112  29.628  1.00  0.00    -0.059 A 
HETATM   33  C18 UNK     1      28.507  -9.912  28.465  1.00  0.00     0.048 C 
ENDBRANCH  21  22
ENDBRANCH   1  21
TORSDOF 7
ENDMDL
MODEL 10
REMARK VINA RESULT:      -8.2      8.211     12.003
REMARK  7 active torsions:
REMARK  status: ('A' for Active; 'I' for Inactive)
REMARK    1  A    between atoms: C23_30  and  O4_4 
REMARK    2  A    between atoms: C24_31  and  O4_4 
REMARK    3  A    between atoms: C5_12  and  N1_5 
REMARK    4  A    between atoms: C6_13  and  N2_6 
REMARK    5  A    between atoms: C17_24  and  N3_7 
REMARK       I    between atoms: C9_16  and  N3_7 
REMARK    6  A    between atoms: C5_12  and  C7_14 
REMARK    7  A    between atoms: C6_13  and  C9_16 
ROOT
HETATM    1  N1  UNK     1      29.477  -8.137  35.944  1.00  0.00     0.096 N 
HETATM    2  N2  UNK     1      26.974  -8.301  37.381  1.00  0.00     0.100 N 
HETATM    3  C1  UNK     1      28.473  -9.155  35.613  1.00  0.00     0.303 C 
HETATM    4  C2  UNK     1      28.830  -6.937  36.487  1.00  0.00     0.303 C 
HETATM    5  C3  UNK     1      27.622  -9.502  36.839  1.00  0.00     0.303 C 
HETATM    6  C4  UNK     1      27.978  -7.283  37.714  1.00  0.00     0.303 C 
ENDROOT
BRANCH   2   7
HETATM    7  C6  UNK     1      26.163  -8.632  38.551  1.00  0.00     0.375 C 
BRANCH   7   8
HETATM    8  C9  UNK     1      24.791  -7.995  38.412  1.00  0.00     0.250 C 
HETATM    9  O2  UNK     1      24.565  -6.835  38.739  1.00  0.00    -0.271 OA
HETATM   10  N3  UNK     1      23.889  -8.910  37.873  1.00  0.00    -0.326 N 
HETATM   11  H15 UNK     1      24.232  -9.843  37.656  1.00  0.00     0.169 HD
BRANCH  10  12
HETATM   12  C17 UNK     1      22.517  -8.704  37.589  1.00  0.00     0.034 A 
HETATM   13  C19 UNK     1      22.086  -8.612  36.265  1.00  0.00     0.032 A 
HETATM   14  C21 UNK     1      20.735  -8.412  35.985  1.00  0.00     0.039 A 
HETATM   15  C23 UNK     1      19.815  -8.302  37.027  1.00  0.00     0.068 A 
HETATM   16  C22 UNK     1      20.246  -8.393  38.350  1.00  0.00     0.039 A 
HETATM   17  C20 UNK     1      21.597  -8.594  38.631  1.00  0.00     0.032 A 
BRANCH  15  18
HETATM   18  O4  UNK     1      18.496  -8.107  36.753  1.00  0.00    -0.352 OA
BRANCH  18  19
HETATM   19  C24 UNK     1      18.177  -7.163  35.731  1.00  0.00     0.171 C 
HETATM   20  C25 UNK     1      16.869  -7.563  35.082  1.00  0.00     0.034 C 
ENDBRANCH  18  19
ENDBRANCH  15  18
ENDBRANCH  10  12
ENDBRANCH   7   8
ENDBRANCH   2   7
BRANCH   1  21
HETATM   21  C5  UNK     1      30.286  -7.805  34.773  1.00  0.00     0.312 C 
BRANCH  21  22
HETATM   22  C7  UNK     1      29.854  -8.554  33.561  1.00  0.00    -0.011 A 
HETATM   23  C10 UNK     1      30.374  -9.752  33.264  1.00  0.00     0.092 A 
HETATM   24  C13 UNK     1      29.977 -10.529  32.077  1.00  0.00     0.288 A 
HETATM   25  O1  UNK     1      29.018  -9.960  31.252  1.00  0.00    -0.275 OA
HETATM   26  O3  UNK     1      30.474 -11.624  31.837  1.00  0.00    -0.260 OA
HETATM   27  C11 UNK     1      28.453  -8.702  31.539  1.00  0.00     0.090 A 
HETATM   28  C8  UNK     1      28.840  -7.977  32.668  1.00  0.00     0.006 A 
HETATM   29  C14 UNK     1      27.497  -8.227  30.640  1.00  0.00     0.045 A 
HETATM   30  C12 UNK     1      28.230  -6.733  32.882  1.00  0.00     0.015 A 
HETATM   31  C16 UNK     1      27.270  -6.244  31.989  1.00  0.00     0.007 A 
HETATM   32  C15 UNK     1      26.904  -6.990  30.869  1.00  0.00    -0.059 A 
HETATM   33  C18 UNK     1      25.880  -6.462  29.923  1.00  0.00     0.048 C 
ENDBRANCH  21  22
ENDBRANCH   1  21
TORSDOF 7
ENDMDL
