MODEL 1
REMARK VINA RESULT:      -8.8      0.000      0.000
REMARK  4 active torsions:
REMARK  status: ('A' for Active; 'I' for Inactive)
REMARK    1  A    between atoms: C13_17  and  O2_2 
REMARK    2  A    between atoms: C17_21  and  O2_2 
REMARK    3  A    between atoms: C3_7  and  C8_12 
REMARK    4  A    between atoms: C13_17  and  C9_13 
ROOT
HETATM    1  O1  UNK     1      17.654   3.013  34.071  1.00  0.00    -0.287 OA
HETATM    2  N1  UNK     1      19.261   2.748  30.368  1.00  0.00    -0.355 N 
HETATM    3  C1  UNK     1      18.845   4.010  30.811  1.00  0.00     0.046 A 
HETATM    4  C2  UNK     1      18.281   4.153  32.090  1.00  0.00     0.042 A 
HETATM    5  C3  UNK     1      19.136   1.626  31.156  1.00  0.00     0.046 A 
HETATM    6  C4  UNK     1      18.138   2.949  32.948  1.00  0.00     0.186 A 
HETATM    7  C5  UNK     1      17.859   5.403  32.550  1.00  0.00     0.035 A 
HETATM    8  C6  UNK     1      18.607   1.650  32.392  1.00  0.00     0.086 A 
HETATM    9  C7  UNK     1      18.979   5.140  29.999  1.00  0.00     0.031 A 
HETATM   10  C9  UNK     1      18.000   6.521  31.728  1.00  0.00     0.040 A 
HETATM   11  C10 UNK     1      18.558   6.390  30.456  1.00  0.00     0.020 A 
HETATM   12  H1  UNK     1      19.665   2.654  29.445  1.00  0.00     0.166 HD
ENDROOT
BRANCH   5  13
HETATM   13  C8  UNK     1      19.598   0.343  30.585  1.00  0.00    -0.009 A 
HETATM   14  C11 UNK     1      19.934   0.260  29.233  1.00  0.00     0.013 A 
HETATM   15  C14 UNK     1      20.368  -0.950  28.693  1.00  0.00     0.001 A 
HETATM   16  C16 UNK     1      20.468  -2.080  29.506  1.00  0.00     0.000 A 
HETATM   17  C15 UNK     1      20.132  -1.998  30.857  1.00  0.00     0.001 A 
HETATM   18  C12 UNK     1      19.697  -0.787  31.396  1.00  0.00     0.013 A 
ENDBRANCH   5  13
BRANCH  10  19
HETATM   19  C13 UNK     1      17.563   7.827  32.198  1.00  0.00     0.293 C 
HETATM   20  O3  UNK     1      18.109   8.432  33.122  1.00  0.00    -0.259 OA
BRANCH  19  21
HETATM   21  O2  UNK     1      16.482   8.321  31.510  1.00  0.00    -0.318 OA
BRANCH  21  22
HETATM   22  C17 UNK     1      15.258   8.432  32.246  1.00  0.00     0.174 C 
HETATM   23  C18 UNK     1      14.438   7.178  32.032  1.00  0.00     0.034 C 
ENDBRANCH  21  22
ENDBRANCH  19  21
ENDBRANCH  10  19
TORSDOF 4
ENDMDL
MODEL 2
REMARK VINA RESULT:      -8.3      8.605     13.314
REMARK  4 active torsions:
REMARK  status: ('A' for Active; 'I' for Inactive)
REMARK    1  A    between atoms: C13_17  and  O2_2 
REMARK    2  A    between atoms: C17_21  and  O2_2 
REMARK    3  A    between atoms: C3_7  and  C8_12 
REMARK    4  A    between atoms: C13_17  and  C9_13 
ROOT
HETATM    1  O1  UNK     1      22.251  -5.497  38.030  1.00  0.00    -0.287 OA
HETATM    2  N1  UNK     1      18.592  -4.651  36.525  1.00  0.00    -0.355 N 
HETATM    3  C1  UNK     1      18.957  -5.999  36.636  1.00  0.00     0.046 A 
HETATM    4  C2  UNK     1      20.218  -6.344  37.153  1.00  0.00     0.042 A 
HETATM    5  C3  UNK     1      19.438  -3.637  36.913  1.00  0.00     0.046 A 
HETATM    6  C4  UNK     1      21.141  -5.258  37.573  1.00  0.00     0.186 A 
HETATM    7  C5  UNK     1      20.602  -7.682  37.271  1.00  0.00     0.035 A 
HETATM    8  C6  UNK     1      20.666  -3.855  37.417  1.00  0.00     0.086 A 
HETATM    9  C7  UNK     1      18.087  -7.018  36.238  1.00  0.00     0.031 A 
HETATM   10  C9  UNK     1      19.722  -8.686  36.870  1.00  0.00     0.040 A 
HETATM   11  C10 UNK     1      18.468  -8.356  36.355  1.00  0.00     0.020 A 
HETATM   12  H1  UNK     1      17.683  -4.412  36.150  1.00  0.00     0.166 HD
ENDROOT
BRANCH   5  13
HETATM   13  C8  UNK     1      18.955  -2.251  36.742  1.00  0.00    -0.009 A 
HETATM   14  C11 UNK     1      19.216  -1.560  35.558  1.00  0.00     0.013 A 
HETATM   15  C14 UNK     1      18.761  -0.252  35.397  1.00  0.00     0.001 A 
HETATM   16  C16 UNK     1      18.043   0.368  36.420  1.00  0.00     0.000 A 
HETATM   17  C15 UNK     1      17.782  -0.321  37.604  1.00  0.00     0.001 A 
HETATM   18  C12 UNK     1      18.238  -1.629  37.766  1.00  0.00     0.013 A 
ENDBRANCH   5  13
BRANCH  10  19
HETATM   19  C13 UNK     1      20.111 -10.083  36.988  1.00  0.00     0.293 C 
HETATM   20  O3  UNK     1      19.311 -10.994  37.204  1.00  0.00    -0.259 OA
BRANCH  19  21
HETATM   21  O2  UNK     1      21.460 -10.288  36.837  1.00  0.00    -0.318 OA
BRANCH  21  22
HETATM   22  C17 UNK     1      21.881 -10.853  35.590  1.00  0.00     0.174 C 
HETATM   23  C18 UNK     1      23.271 -11.430  35.754  1.00  0.00     0.034 C 
ENDBRANCH  21  22
ENDBRANCH  19  21
ENDBRANCH  10  19
TORSDOF 4
ENDMDL
MODEL 3
REMARK VINA RESULT:      -8.1      2.675      7.644
REMARK  4 active torsions:
REMARK  status: ('A' for Active; 'I' for Inactive)
REMARK    1  A    between atoms: C13_17  and  O2_2 
REMARK    2  A    between atoms: C17_21  and  O2_2 
REMARK    3  A    between atoms: C3_7  and  C8_12 
REMARK    4  A    between atoms: C13_17  and  C9_13 
ROOT
HETATM    1  O1  UNK     1      18.041   3.516  34.154  1.00  0.00    -0.287 OA
HETATM    2  N1  UNK     1      18.925   6.630  31.727  1.00  0.00    -0.355 N 
HETATM    3  C1  UNK     1      18.814   5.361  31.147  1.00  0.00     0.046 A 
HETATM    4  C2  UNK     1      18.509   4.247  31.948  1.00  0.00     0.042 A 
HETATM    5  C3  UNK     1      18.738   6.829  33.077  1.00  0.00     0.046 A 
HETATM    6  C4  UNK     1      18.308   4.448  33.406  1.00  0.00     0.186 A 
HETATM    7  C5  UNK     1      18.396   2.972  31.388  1.00  0.00     0.035 A 
HETATM    8  C6  UNK     1      18.446   5.834  33.933  1.00  0.00     0.086 A 
HETATM    9  C7  UNK     1      19.006   5.175  29.774  1.00  0.00     0.031 A 
HETATM   10  C9  UNK     1      18.589   2.804  30.018  1.00  0.00     0.040 A 
HETATM   11  C10 UNK     1      18.894   3.902  29.213  1.00  0.00     0.020 A 
HETATM   12  H1  UNK     1      19.146   7.426  31.143  1.00  0.00     0.166 HD
ENDROOT
BRANCH   5  13
HETATM   13  C8  UNK     1      18.888   8.209  33.584  1.00  0.00    -0.009 A 
HETATM   14  C11 UNK     1      17.814   9.097  33.525  1.00  0.00     0.013 A 
HETATM   15  C14 UNK     1      17.956  10.399  34.003  1.00  0.00     0.001 A 
HETATM   16  C16 UNK     1      19.174  10.815  34.542  1.00  0.00     0.000 A 
HETATM   17  C15 UNK     1      20.248   9.928  34.603  1.00  0.00     0.001 A 
HETATM   18  C12 UNK     1      20.106   8.626  34.123  1.00  0.00     0.013 A 
ENDBRANCH   5  13
BRANCH  10  19
HETATM   19  C13 UNK     1      18.474   1.480  29.425  1.00  0.00     0.293 C 
HETATM   20  O3  UNK     1      18.103   1.286  28.266  1.00  0.00    -0.259 OA
BRANCH  19  21
HETATM   21  O2  UNK     1      18.819   0.466  30.283  1.00  0.00    -0.318 OA
BRANCH  21  22
HETATM   22  C17 UNK     1      20.205   0.108  30.321  1.00  0.00     0.174 C 
HETATM   23  C18 UNK     1      20.483  -0.901  29.227  1.00  0.00     0.034 C 
ENDBRANCH  21  22
ENDBRANCH  19  21
ENDBRANCH  10  19
TORSDOF 4
ENDMDL
MODEL 4
REMARK VINA RESULT:      -7.7      1.673      2.702
REMARK  4 active torsions:
REMARK  status: ('A' for Active; 'I' for Inactive)
REMARK    1  A    between atoms: C13_17  and  O2_2 
REMARK    2  A    between atoms: C17_21  and  O2_2 
REMARK    3  A    between atoms: C3_7  and  C8_12 
REMARK    4  A    between atoms: C13_17  and  C9_13 
ROOT
HETATM    1  O1  UNK     1      18.591   4.871  28.898  1.00  0.00    -0.287 OA
HETATM    2  N1  UNK     1      18.740   2.489  32.165  1.00  0.00    -0.355 N 
HETATM    3  C1  UNK     1      18.383   3.830  32.350  1.00  0.00     0.046 A 
HETATM    4  C2  UNK     1      18.317   4.698  31.247  1.00  0.00     0.042 A 
HETATM    5  C3  UNK     1      19.030   1.981  30.918  1.00  0.00     0.046 A 
HETATM    6  C4  UNK     1      18.631   4.163  29.897  1.00  0.00     0.186 A 
HETATM    7  C5  UNK     1      17.964   6.040  31.411  1.00  0.00     0.035 A 
HETATM    8  C6  UNK     1      19.001   2.725  29.797  1.00  0.00     0.086 A 
HETATM    9  C7  UNK     1      18.091   4.330  33.623  1.00  0.00     0.031 A 
HETATM   10  C9  UNK     1      17.675   6.522  32.687  1.00  0.00     0.040 A 
HETATM   11  C10 UNK     1      17.738   5.670  33.790  1.00  0.00     0.020 A 
HETATM   12  H1  UNK     1      18.786   1.872  32.965  1.00  0.00     0.166 HD
ENDROOT
BRANCH   5  13
HETATM   13  C8  UNK     1      19.405   0.554  30.839  1.00  0.00    -0.009 A 
HETATM   14  C11 UNK     1      20.003   0.052  29.683  1.00  0.00     0.013 A 
HETATM   15  C14 UNK     1      20.356  -1.295  29.607  1.00  0.00     0.001 A 
HETATM   16  C16 UNK     1      20.111  -2.142  30.689  1.00  0.00     0.000 A 
HETATM   17  C15 UNK     1      19.513  -1.641  31.845  1.00  0.00     0.001 A 
HETATM   18  C12 UNK     1      19.159  -0.293  31.919  1.00  0.00     0.013 A 
ENDBRANCH   5  13
BRANCH  10  19
HETATM   19  C13 UNK     1      17.307   7.918  32.869  1.00  0.00     0.293 C 
HETATM   20  O3  UNK     1      16.690   8.572  32.027  1.00  0.00    -0.259 OA
BRANCH  19  21
HETATM   21  O2  UNK     1      17.715   8.437  34.073  1.00  0.00    -0.318 OA
BRANCH  21  22
HETATM   22  C17 UNK     1      18.714   9.462  34.017  1.00  0.00     0.174 C 
HETATM   23  C18 UNK     1      20.035   8.888  34.484  1.00  0.00     0.034 C 
ENDBRANCH  21  22
ENDBRANCH  19  21
ENDBRANCH  10  19
TORSDOF 4
ENDMDL
MODEL 5
REMARK VINA RESULT:      -7.6      3.375      8.884
REMARK  4 active torsions:
REMARK  status: ('A' for Active; 'I' for Inactive)
REMARK    1  A    between atoms: C13_17  and  O2_2 
REMARK    2  A    between atoms: C17_21  and  O2_2 
REMARK    3  A    between atoms: C3_7  and  C8_12 
REMARK    4  A    between atoms: C13_17  and  C9_13 
ROOT
HETATM    1  O1  UNK     1      14.656   7.237  32.187  1.00  0.00    -0.287 OA
HETATM    2  N1  UNK     1      18.070   8.853  33.635  1.00  0.00    -0.355 N 
HETATM    3  C1  UNK     1      18.128   7.548  33.131  1.00  0.00     0.046 A 
HETATM    4  C2  UNK     1      16.968   6.942  32.617  1.00  0.00     0.042 A 
HETATM    5  C3  UNK     1      16.899   9.576  33.642  1.00  0.00     0.046 A 
HETATM    6  C4  UNK     1      15.697   7.711  32.621  1.00  0.00     0.186 A 
HETATM    7  C5  UNK     1      17.005   5.641  32.110  1.00  0.00     0.035 A 
HETATM    8  C6  UNK     1      15.733   9.092  33.178  1.00  0.00     0.086 A 
HETATM    9  C7  UNK     1      19.325   6.826  33.131  1.00  0.00     0.031 A 
HETATM   10  C9  UNK     1      18.207   4.935  32.117  1.00  0.00     0.040 A 
HETATM   11  C10 UNK     1      19.364   5.525  32.625  1.00  0.00     0.020 A 
HETATM   12  H1  UNK     1      18.910   9.280  34.005  1.00  0.00     0.166 HD
ENDROOT
BRANCH   5  13
HETATM   13  C8  UNK     1      16.949  10.941  34.207  1.00  0.00    -0.009 A 
HETATM   14  C11 UNK     1      18.132  11.679  34.147  1.00  0.00     0.013 A 
HETATM   15  C14 UNK     1      18.180  12.967  34.682  1.00  0.00     0.001 A 
HETATM   16  C16 UNK     1      17.045  13.517  35.277  1.00  0.00     0.000 A 
HETATM   17  C15 UNK     1      15.862  12.780  35.337  1.00  0.00     0.001 A 
HETATM   18  C12 UNK     1      15.815  11.492  34.804  1.00  0.00     0.013 A 
ENDBRANCH   5  13
BRANCH  10  19
HETATM   19  C13 UNK     1      18.256   3.579  31.592  1.00  0.00     0.293 C 
HETATM   20  O3  UNK     1      17.847   2.596  32.213  1.00  0.00    -0.259 OA
BRANCH  19  21
HETATM   21  O2  UNK     1      18.803   3.500  30.335  1.00  0.00    -0.318 OA
BRANCH  21  22
HETATM   22  C17 UNK     1      18.897   2.189  29.764  1.00  0.00     0.174 C 
HETATM   23  C18 UNK     1      17.859   2.053  28.670  1.00  0.00     0.034 C 
ENDBRANCH  21  22
ENDBRANCH  19  21
ENDBRANCH  10  19
TORSDOF 4
ENDMDL
MODEL 6
REMARK VINA RESULT:      -7.5      2.809      8.040
REMARK  4 active torsions:
REMARK  status: ('A' for Active; 'I' for Inactive)
REMARK    1  A    between atoms: C13_17  and  O2_2 
REMARK    2  A    between atoms: C17_21  and  O2_2 
REMARK    3  A    between atoms: C3_7  and  C8_12 
REMARK    4  A    between atoms: C13_17  and  C9_13 
ROOT
HETATM    1  O1  UNK     1      17.662   2.713  31.073  1.00  0.00    -0.287 OA
HETATM    2  N1  UNK     1      18.564   4.565  34.554  1.00  0.00    -0.355 N 
HETATM    3  C1  UNK     1      18.576   3.164  34.537  1.00  0.00     0.046 A 
HETATM    4  C2  UNK     1      18.269   2.475  33.352  1.00  0.00     0.042 A 
HETATM    5  C3  UNK     1      18.260   5.301  33.431  1.00  0.00     0.046 A 
HETATM    6  C4  UNK     1      17.937   3.258  32.134  1.00  0.00     0.186 A 
HETATM    7  C5  UNK     1      18.274   1.078  33.314  1.00  0.00     0.035 A 
HETATM    8  C6  UNK     1      17.949   4.742  32.248  1.00  0.00     0.086 A 
HETATM    9  C7  UNK     1      18.886   2.431  35.686  1.00  0.00     0.031 A 
HETATM   10  C9  UNK     1      18.587   0.361  34.468  1.00  0.00     0.040 A 
HETATM   11  C10 UNK     1      18.892   1.035  35.651  1.00  0.00     0.020 A 
HETATM   12  H1  UNK     1      18.784   5.053  35.413  1.00  0.00     0.166 HD
ENDROOT
BRANCH   5  13
HETATM   13  C8  UNK     1      18.267   6.773  33.565  1.00  0.00    -0.009 A 
HETATM   14  C11 UNK     1      19.358   7.417  34.151  1.00  0.00     0.013 A 
HETATM   15  C14 UNK     1      19.363   8.806  34.278  1.00  0.00     0.001 A 
HETATM   16  C16 UNK     1      18.279   9.552  33.818  1.00  0.00     0.000 A 
HETATM   17  C15 UNK     1      17.188   8.910  33.232  1.00  0.00     0.001 A 
HETATM   18  C12 UNK     1      17.182   7.521  33.106  1.00  0.00     0.013 A 
ENDBRANCH   5  13
BRANCH  10  19
HETATM   19  C13 UNK     1      18.595  -1.093  34.440  1.00  0.00     0.293 C 
HETATM   20  O3  UNK     1      18.427  -1.792  35.441  1.00  0.00    -0.259 OA
BRANCH  19  21
HETATM   21  O2  UNK     1      18.810  -1.614  33.188  1.00  0.00    -0.318 OA
BRANCH  21  22
HETATM   22  C17 UNK     1      20.115  -2.147  32.936  1.00  0.00     0.174 C 
HETATM   23  C18 UNK     1      20.527  -1.796  31.522  1.00  0.00     0.034 C 
ENDBRANCH  21  22
ENDBRANCH  19  21
ENDBRANCH  10  19
TORSDOF 4
ENDMDL
MODEL 7
REMARK VINA RESULT:      -7.4      3.449      8.090
REMARK  4 active torsions:
REMARK  status: ('A' for Active; 'I' for Inactive)
REMARK    1  A    between atoms: C13_17  and  O2_2 
REMARK    2  A    between atoms: C17_21  and  O2_2 
REMARK    3  A    between atoms: C3_7  and  C8_12 
REMARK    4  A    between atoms: C13_17  and  C9_13 
ROOT
HETATM    1  O1  UNK     1      17.628   2.770  31.173  1.00  0.00    -0.287 OA
HETATM    2  N1  UNK     1      18.602   4.678  34.604  1.00  0.00    -0.355 N 
HETATM    3  C1  UNK     1      18.617   3.278  34.609  1.00  0.00     0.046 A 
HETATM    4  C2  UNK     1      18.286   2.569  33.442  1.00  0.00     0.042 A 
HETATM    5  C3  UNK     1      18.273   5.396  33.477  1.00  0.00     0.046 A 
HETATM    6  C4  UNK     1      17.925   3.333  32.219  1.00  0.00     0.186 A 
HETATM    7  C5  UNK     1      18.293   1.172  33.426  1.00  0.00     0.035 A 
HETATM    8  C6  UNK     1      17.937   4.819  32.309  1.00  0.00     0.086 A 
HETATM    9  C7  UNK     1      18.954   2.563  35.763  1.00  0.00     0.031 A 
HETATM   10  C9  UNK     1      18.632   0.474  34.584  1.00  0.00     0.040 A 
HETATM   11  C10 UNK     1      18.961   1.167  35.749  1.00  0.00     0.020 A 
HETATM   12  H1  UNK     1      18.841   5.180  35.450  1.00  0.00     0.166 HD
ENDROOT
BRANCH   5  13
HETATM   13  C8  UNK     1      18.280   6.870  33.587  1.00  0.00    -0.009 A 
HETATM   14  C11 UNK     1      17.179   7.609  33.152  1.00  0.00     0.013 A 
HETATM   15  C14 UNK     1      17.186   9.000  33.255  1.00  0.00     0.001 A 
HETATM   16  C16 UNK     1      18.295   9.654  33.794  1.00  0.00     0.000 A 
HETATM   17  C15 UNK     1      19.396   8.916  34.229  1.00  0.00     0.001 A 
HETATM   18  C12 UNK     1      19.389   7.525  34.125  1.00  0.00     0.013 A 
ENDBRANCH   5  13
BRANCH  10  19
HETATM   19  C13 UNK     1      18.642  -0.981  34.579  1.00  0.00     0.293 C 
HETATM   20  O3  UNK     1      19.318  -1.651  33.797  1.00  0.00    -0.259 OA
BRANCH  19  21
HETATM   21  O2  UNK     1      17.823  -1.536  35.530  1.00  0.00    -0.318 OA
BRANCH  21  22
HETATM   22  C17 UNK     1      18.472  -2.229  36.603  1.00  0.00     0.174 C 
HETATM   23  C18 UNK     1      18.128  -1.547  37.910  1.00  0.00     0.034 C 
ENDBRANCH  21  22
ENDBRANCH  19  21
ENDBRANCH  10  19
TORSDOF 4
ENDMDL
MODEL 8
REMARK VINA RESULT:      -7.4     13.734     16.646
REMARK  4 active torsions:
REMARK  status: ('A' for Active; 'I' for Inactive)
REMARK    1  A    between atoms: C13_17  and  O2_2 
REMARK    2  A    between atoms: C17_21  and  O2_2 
REMARK    3  A    between atoms: C3_7  and  C8_12 
REMARK    4  A    between atoms: C13_17  and  C9_13 
ROOT
HETATM    1  O1  UNK     1      26.319  -4.785  38.935  1.00  0.00    -0.287 OA
HETATM    2  N1  UNK     1      24.609  -8.451  38.846  1.00  0.00    -0.355 N 
HETATM    3  C1  UNK     1      26.001  -8.375  38.705  1.00  0.00     0.046 A 
HETATM    4  C2  UNK     1      26.642  -7.125  38.730  1.00  0.00     0.042 A 
HETATM    5  C3  UNK     1      23.835  -7.324  39.013  1.00  0.00     0.046 A 
HETATM    6  C4  UNK     1      25.817  -5.901  38.906  1.00  0.00     0.186 A 
HETATM    7  C5  UNK     1      28.028  -7.028  38.590  1.00  0.00     0.035 A 
HETATM    8  C6  UNK     1      24.346  -6.080  39.047  1.00  0.00     0.086 A 
HETATM    9  C7  UNK     1      26.773  -9.528  38.537  1.00  0.00     0.031 A 
HETATM   10  C9  UNK     1      28.784  -8.187  38.424  1.00  0.00     0.040 A 
HETATM   11  C10 UNK     1      28.159  -9.434  38.397  1.00  0.00     0.020 A 
HETATM   12  H1  UNK     1      24.157  -9.355  38.825  1.00  0.00     0.166 HD
ENDROOT
BRANCH   5  13
HETATM   13  C8  UNK     1      22.376  -7.519  39.141  1.00  0.00    -0.009 A 
HETATM   14  C11 UNK     1      21.515  -6.425  39.056  1.00  0.00     0.013 A 
HETATM   15  C14 UNK     1      20.137  -6.608  39.178  1.00  0.00     0.001 A 
HETATM   16  C16 UNK     1      19.620  -7.887  39.384  1.00  0.00     0.000 A 
HETATM   17  C15 UNK     1      20.480  -8.982  39.468  1.00  0.00     0.001 A 
HETATM   18  C12 UNK     1      21.858  -8.798  39.347  1.00  0.00     0.013 A 
ENDBRANCH   5  13
BRANCH  10  19
HETATM   19  C13 UNK     1      30.229  -8.098  38.277  1.00  0.00     0.293 C 
HETATM   20  O3  UNK     1      30.969  -9.082  38.243  1.00  0.00    -0.259 OA
BRANCH  19  21
HETATM   21  O2  UNK     1      30.689  -6.808  38.181  1.00  0.00    -0.318 OA
BRANCH  21  22
HETATM   22  C17 UNK     1      32.103  -6.625  38.315  1.00  0.00     0.174 C 
HETATM   23  C18 UNK     1      32.405  -5.143  38.373  1.00  0.00     0.034 C 
ENDBRANCH  21  22
ENDBRANCH  19  21
ENDBRANCH  10  19
TORSDOF 4
ENDMDL
MODEL 9
REMARK VINA RESULT:      -7.4      6.433      8.641
REMARK  4 active torsions:
REMARK  status: ('A' for Active; 'I' for Inactive)
REMARK    1  A    between atoms: C13_17  and  O2_2 
REMARK    2  A    between atoms: C17_21  and  O2_2 
REMARK    3  A    between atoms: C3_7  and  C8_12 
REMARK    4  A    between atoms: C13_17  and  C9_13 
ROOT
HETATM    1  O1  UNK     1      20.513  -2.948  33.879  1.00  0.00    -0.287 OA
HETATM    2  N1  UNK     1      19.440  -3.346  37.760  1.00  0.00    -0.355 N 
HETATM    3  C1  UNK     1      18.905  -2.269  37.041  1.00  0.00     0.046 A 
HETATM    4  C2  UNK     1      19.248  -2.088  35.690  1.00  0.00     0.042 A 
HETATM    5  C3  UNK     1      20.301  -4.249  37.178  1.00  0.00     0.046 A 
HETATM    6  C4  UNK     1      20.178  -3.055  35.052  1.00  0.00     0.186 A 
HETATM    7  C5  UNK     1      18.726  -1.020  34.956  1.00  0.00     0.035 A 
HETATM    8  C6  UNK     1      20.697  -4.167  35.895  1.00  0.00     0.086 A 
HETATM    9  C7  UNK     1      18.031  -1.360  37.646  1.00  0.00     0.031 A 
HETATM   10  C9  UNK     1      17.855  -0.123  35.574  1.00  0.00     0.040 A 
HETATM   11  C10 UNK     1      17.509  -0.292  36.914  1.00  0.00     0.020 A 
HETATM   12  H1  UNK     1      19.189  -3.467  38.732  1.00  0.00     0.166 HD
ENDROOT
BRANCH   5  13
HETATM   13  C8  UNK     1      20.813  -5.341  38.032  1.00  0.00    -0.009 A 
HETATM   14  C11 UNK     1      19.929  -6.258  38.601  1.00  0.00     0.013 A 
HETATM   15  C14 UNK     1      20.412  -7.288  39.408  1.00  0.00     0.001 A 
HETATM   16  C16 UNK     1      21.782  -7.403  39.645  1.00  0.00     0.000 A 
HETATM   17  C15 UNK     1      22.668  -6.487  39.076  1.00  0.00     0.001 A 
HETATM   18  C12 UNK     1      22.183  -5.456  38.271  1.00  0.00     0.013 A 
ENDBRANCH   5  13
BRANCH  10  19
HETATM   19  C13 UNK     1      17.307   0.993  34.818  1.00  0.00     0.293 C 
HETATM   20  O3  UNK     1      16.220   0.950  34.238  1.00  0.00    -0.259 OA
BRANCH  19  21
HETATM   21  O2  UNK     1      18.118   2.101  34.814  1.00  0.00    -0.318 OA
BRANCH  21  22
HETATM   22  C17 UNK     1      18.279   2.765  33.555  1.00  0.00     0.174 C 
HETATM   23  C18 UNK     1      18.296   4.261  33.787  1.00  0.00     0.034 C 
ENDBRANCH  21  22
ENDBRANCH  19  21
ENDBRANCH  10  19
TORSDOF 4
ENDMDL
MODEL 10
REMARK VINA RESULT:      -7.4      5.777      7.920
REMARK  4 active torsions:
REMARK  status: ('A' for Active; 'I' for Inactive)
REMARK    1  A    between atoms: C13_17  and  O2_2 
REMARK    2  A    between atoms: C17_21  and  O2_2 
REMARK    3  A    between atoms: C3_7  and  C8_12 
REMARK    4  A    between atoms: C13_17  and  C9_13 
ROOT
HETATM    1  O1  UNK     1      20.975  -2.355  33.732  1.00  0.00    -0.287 OA
HETATM    2  N1  UNK     1      18.525  -3.105  36.862  1.00  0.00    -0.355 N 
HETATM    3  C1  UNK     1      18.408  -1.863  36.224  1.00  0.00     0.046 A 
HETATM    4  C2  UNK     1      19.237  -1.556  35.132  1.00  0.00     0.042 A 
HETATM    5  C3  UNK     1      19.435  -4.050  36.448  1.00  0.00     0.046 A 
HETATM    6  C4  UNK     1      20.226  -2.567  34.677  1.00  0.00     0.186 A 
HETATM    7  C5  UNK     1      19.138  -0.323  34.483  1.00  0.00     0.035 A 
HETATM    8  C6  UNK     1      20.278  -3.858  35.417  1.00  0.00     0.086 A 
HETATM    9  C7  UNK     1      17.478  -0.913  36.657  1.00  0.00     0.031 A 
HETATM   10  C9  UNK     1      18.205   0.614  34.926  1.00  0.00     0.040 A 
HETATM   11  C10 UNK     1      17.377   0.319  36.010  1.00  0.00     0.020 A 
HETATM   12  H1  UNK     1      17.925  -3.317  37.649  1.00  0.00     0.166 HD
ENDROOT
BRANCH   5  13
HETATM   13  C8  UNK     1      19.480  -5.322  37.199  1.00  0.00    -0.009 A 
HETATM   14  C11 UNK     1      18.567  -6.337  36.911  1.00  0.00     0.013 A 
HETATM   15  C14 UNK     1      18.608  -7.537  37.621  1.00  0.00     0.001 A 
HETATM   16  C16 UNK     1      19.564  -7.723  38.621  1.00  0.00     0.000 A 
HETATM   17  C15 UNK     1      20.477  -6.709  38.910  1.00  0.00     0.001 A 
HETATM   18  C12 UNK     1      20.434  -5.508  38.200  1.00  0.00     0.013 A 
ENDBRANCH   5  13
BRANCH  10  19
HETATM   19  C13 UNK     1      18.093   1.901  34.257  1.00  0.00     0.293 C 
HETATM   20  O3  UNK     1      18.309   2.977  34.817  1.00  0.00    -0.259 OA
BRANCH  19  21
HETATM   21  O2  UNK     1      17.723   1.801  32.939  1.00  0.00    -0.318 OA
BRANCH  21  22
HETATM   22  C17 UNK     1      18.170   2.849  32.071  1.00  0.00     0.174 C 
HETATM   23  C18 UNK     1      18.646   2.242  30.769  1.00  0.00     0.034 C 
ENDBRANCH  21  22
ENDBRANCH  19  21
ENDBRANCH  10  19
TORSDOF 4
ENDMDL
