MODEL 1
REMARK VINA RESULT:      -8.3      0.000      0.000
REMARK  4 active torsions:
REMARK  status: ('A' for Active; 'I' for Inactive)
REMARK    1  A    between atoms: C9_14  and  O2_2 
REMARK    2  A    between atoms: C5_10  and  O3_3 
REMARK    3  A    between atoms: C10_15  and  O4_4 
REMARK    4  A    between atoms: C1_6  and  C2_7 
ROOT
HETATM    1  O1  UNK     1      16.934   7.492  32.339  1.00  0.00    -0.306 OA
HETATM    2  O5  UNK     1      19.802   9.390  34.526  1.00  0.00    -0.284 OA
HETATM    3  C1  UNK     1      18.201   6.952  32.494  1.00  0.00     0.123 A 
HETATM    4  C3  UNK     1      17.586   9.380  33.719  1.00  0.00     0.051 A 
HETATM    5  C4  UNK     1      16.651   8.683  32.955  1.00  0.00     0.090 A 
HETATM    6  C5  UNK     1      19.195   7.528  33.195  1.00  0.00     0.152 A 
HETATM    7  C6  UNK     1      18.937   8.820  33.873  1.00  0.00     0.220 A 
HETATM    8  C11 UNK     1      17.240  10.591  34.324  1.00  0.00     0.018 A 
HETATM    9  C12 UNK     1      15.364   9.196  32.791  1.00  0.00     0.038 A 
HETATM   10  C14 UNK     1      15.952  11.100  34.158  1.00  0.00     0.001 A 
HETATM   11  C15 UNK     1      15.015  10.404  33.394  1.00  0.00     0.003 A 
ENDROOT
BRANCH   3  12
HETATM   12  C2  UNK     1      18.371   5.673  31.784  1.00  0.00     0.004 A 
HETATM   13  C7  UNK     1      18.017   4.476  32.406  1.00  0.00     0.054 A 
HETATM   14  C9  UNK     1      18.179   3.264  31.733  1.00  0.00     0.102 A 
HETATM   15  C10 UNK     1      18.694   3.251  30.437  1.00  0.00     0.101 A 
HETATM   16  C13 UNK     1      19.048   4.448  29.814  1.00  0.00     0.040 A 
HETATM   17  C8  UNK     1      18.886   5.659  30.487  1.00  0.00     0.017 A 
BRANCH  14  18
HETATM   18  O2  UNK     1      17.829   2.103  32.352  1.00  0.00    -0.353 OA
HETATM   19  C16 UNK     1      18.111   2.001  33.746  1.00  0.00     0.210 C 
ENDBRANCH  14  18
BRANCH  15  20
HETATM   20  O4  UNK     1      18.855   2.075  29.769  1.00  0.00    -0.353 OA
HETATM   21  C17 UNK     1      17.947   1.804  28.703  1.00  0.00     0.210 C 
ENDBRANCH  15  20
ENDBRANCH   3  12
BRANCH   6  22
HETATM   22  O3  UNK     1      20.455   6.980  33.301  1.00  0.00    -0.355 OA
HETATM   23  H8  UNK     1      20.905   7.017  32.441  1.00  0.00     0.218 HD
ENDBRANCH   6  22
TORSDOF 4
ENDMDL
MODEL 2
REMARK VINA RESULT:      -7.9      1.827      7.201
REMARK  4 active torsions:
REMARK  status: ('A' for Active; 'I' for Inactive)
REMARK    1  A    between atoms: C9_14  and  O2_2 
REMARK    2  A    between atoms: C5_10  and  O3_3 
REMARK    3  A    between atoms: C10_15  and  O4_4 
REMARK    4  A    between atoms: C1_6  and  C2_7 
ROOT
HETATM    1  O1  UNK     1      18.083   3.211  33.265  1.00  0.00    -0.306 OA
HETATM    2  O5  UNK     1      19.279   1.585  29.724  1.00  0.00    -0.284 OA
HETATM    3  C1  UNK     1      18.285   3.995  32.140  1.00  0.00     0.123 A 
HETATM    4  C3  UNK     1      18.685   1.241  31.981  1.00  0.00     0.051 A 
HETATM    5  C4  UNK     1      18.280   1.858  33.162  1.00  0.00     0.090 A 
HETATM    6  C5  UNK     1      18.685   3.525  30.945  1.00  0.00     0.152 A 
HETATM    7  C6  UNK     1      18.916   2.070  30.788  1.00  0.00     0.220 A 
HETATM    8  C11 UNK     1      18.870  -0.143  31.935  1.00  0.00     0.018 A 
HETATM    9  C12 UNK     1      18.057   1.093  34.308  1.00  0.00     0.038 A 
HETATM   10  C14 UNK     1      18.646  -0.906  33.083  1.00  0.00     0.001 A 
HETATM   11  C15 UNK     1      18.241  -0.289  34.266  1.00  0.00     0.003 A 
ENDROOT
BRANCH   3  12
HETATM   12  C2  UNK     1      18.038   5.426  32.387  1.00  0.00     0.004 A 
HETATM   13  C7  UNK     1      16.831   6.005  31.994  1.00  0.00     0.054 A 
HETATM   14  C9  UNK     1      16.598   7.361  32.228  1.00  0.00     0.102 A 
HETATM   15  C10 UNK     1      17.573   8.137  32.854  1.00  0.00     0.101 A 
HETATM   16  C13 UNK     1      18.780   7.559  33.246  1.00  0.00     0.040 A 
HETATM   17  C8  UNK     1      19.012   6.204  33.013  1.00  0.00     0.017 A 
BRANCH  14  18
HETATM   18  O2  UNK     1      15.415   7.913  31.840  1.00  0.00    -0.353 OA
HETATM   19  C16 UNK     1      14.224   7.322  32.356  1.00  0.00     0.210 C 
ENDBRANCH  14  18
BRANCH  15  20
HETATM   20  O4  UNK     1      17.356   9.462  33.088  1.00  0.00    -0.353 OA
HETATM   21  C17 UNK     1      18.305  10.139  33.910  1.00  0.00     0.210 C 
ENDBRANCH  15  20
ENDBRANCH   3  12
BRANCH   6  22
HETATM   22  O3  UNK     1      18.908   4.338  29.854  1.00  0.00    -0.355 OA
HETATM   23  H8  UNK     1      18.069   4.719  29.548  1.00  0.00     0.218 HD
ENDBRANCH   6  22
TORSDOF 4
ENDMDL
MODEL 3
REMARK VINA RESULT:      -7.8      8.163     13.394
REMARK  4 active torsions:
REMARK  status: ('A' for Active; 'I' for Inactive)
REMARK    1  A    between atoms: C9_14  and  O2_2 
REMARK    2  A    between atoms: C5_10  and  O3_3 
REMARK    3  A    between atoms: C10_15  and  O4_4 
REMARK    4  A    between atoms: C1_6  and  C2_7 
ROOT
HETATM    1  O1  UNK     1      21.153  -4.641  37.648  1.00  0.00    -0.306 OA
HETATM    2  O5  UNK     1      18.592  -7.804  37.861  1.00  0.00    -0.284 OA
HETATM    3  C1  UNK     1      19.878  -4.576  37.111  1.00  0.00     0.123 A 
HETATM    4  C3  UNK     1      20.711  -6.911  38.386  1.00  0.00     0.051 A 
HETATM    5  C4  UNK     1      21.540  -5.797  38.276  1.00  0.00     0.090 A 
HETATM    6  C5  UNK     1      18.985  -5.583  37.140  1.00  0.00     0.152 A 
HETATM    7  C6  UNK     1      19.362  -6.854  37.802  1.00  0.00     0.220 A 
HETATM    8  C11 UNK     1      21.159  -8.063  39.037  1.00  0.00     0.018 A 
HETATM    9  C12 UNK     1      22.825  -5.828  38.819  1.00  0.00     0.038 A 
HETATM   10  C14 UNK     1      22.445  -8.091  39.579  1.00  0.00     0.001 A 
HETATM   11  C15 UNK     1      23.276  -6.976  39.470  1.00  0.00     0.003 A 
ENDROOT
BRANCH   3  12
HETATM   12  C2  UNK     1      19.591  -3.282  36.468  1.00  0.00     0.004 A 
HETATM   13  C7  UNK     1      20.033  -3.034  35.168  1.00  0.00     0.054 A 
HETATM   14  C9  UNK     1      19.761  -1.808  34.560  1.00  0.00     0.102 A 
HETATM   15  C10 UNK     1      19.046  -0.831  35.252  1.00  0.00     0.101 A 
HETATM   16  C13 UNK     1      18.604  -1.078  36.551  1.00  0.00     0.040 A 
HETATM   17  C8  UNK     1      18.875  -2.304  37.159  1.00  0.00     0.017 A 
BRANCH  14  18
HETATM   18  O2  UNK     1      20.198  -1.580  33.290  1.00  0.00    -0.353 OA
HETATM   19  C16 UNK     1      20.902  -2.640  32.646  1.00  0.00     0.210 C 
ENDBRANCH  14  18
BRANCH  15  20
HETATM   20  O4  UNK     1      18.773   0.369  34.668  1.00  0.00    -0.353 OA
HETATM   21  C17 UNK     1      18.697   1.506  35.526  1.00  0.00     0.210 C 
ENDBRANCH  15  20
ENDBRANCH   3  12
BRANCH   6  22
HETATM   22  O3  UNK     1      17.736  -5.497  36.565  1.00  0.00    -0.355 OA
HETATM   23  H8  UNK     1      17.133  -6.131  36.986  1.00  0.00     0.218 HD
ENDBRANCH   6  22
TORSDOF 4
ENDMDL
MODEL 4
REMARK VINA RESULT:      -7.7      7.481     11.288
REMARK  4 active torsions:
REMARK  status: ('A' for Active; 'I' for Inactive)
REMARK    1  A    between atoms: C9_14  and  O2_2 
REMARK    2  A    between atoms: C5_10  and  O3_3 
REMARK    3  A    between atoms: C10_15  and  O4_4 
REMARK    4  A    between atoms: C1_6  and  C2_7 
ROOT
HETATM    1  O1  UNK     1      18.920  -2.261  37.378  1.00  0.00    -0.306 OA
HETATM    2  O5  UNK     1      19.409  -0.785  33.611  1.00  0.00    -0.284 OA
HETATM    3  C1  UNK     1      19.548  -2.999  36.388  1.00  0.00     0.123 A 
HETATM    4  C3  UNK     1      18.613  -0.439  35.804  1.00  0.00     0.051 A 
HETATM    5  C4  UNK     1      18.474  -1.002  37.070  1.00  0.00     0.090 A 
HETATM    6  C5  UNK     1      19.737  -2.577  35.125  1.00  0.00     0.152 A 
HETATM    7  C6  UNK     1      19.264  -1.224  34.744  1.00  0.00     0.220 A 
HETATM    8  C11 UNK     1      18.138   0.850  35.548  1.00  0.00     0.018 A 
HETATM    9  C12 UNK     1      17.856  -0.278  38.091  1.00  0.00     0.038 A 
HETATM   10  C14 UNK     1      17.521   1.572  36.571  1.00  0.00     0.001 A 
HETATM   11  C15 UNK     1      17.381   1.009  37.839  1.00  0.00     0.003 A 
ENDROOT
BRANCH   3  12
HETATM   12  C2  UNK     1      19.979  -4.330  36.850  1.00  0.00     0.004 A 
HETATM   13  C7  UNK     1      19.243  -5.463  36.503  1.00  0.00     0.054 A 
HETATM   14  C9  UNK     1      19.651  -6.723  36.942  1.00  0.00     0.102 A 
HETATM   15  C10 UNK     1      20.797  -6.849  37.727  1.00  0.00     0.101 A 
HETATM   16  C13 UNK     1      21.534  -5.717  38.074  1.00  0.00     0.040 A 
HETATM   17  C8  UNK     1      21.126  -4.458  37.636  1.00  0.00     0.017 A 
BRANCH  14  18
HETATM   18  O2  UNK     1      18.923  -7.820  36.595  1.00  0.00    -0.353 OA
HETATM   19  C16 UNK     1      17.827  -7.617  35.706  1.00  0.00     0.210 C 
ENDBRANCH  14  18
BRANCH  15  20
HETATM   20  O4  UNK     1      21.206  -8.075  38.160  1.00  0.00    -0.353 OA
HETATM   21  C17 UNK     1      21.666  -8.166  39.507  1.00  0.00     0.210 C 
ENDBRANCH  15  20
ENDBRANCH   3  12
BRANCH   6  22
HETATM   22  O3  UNK     1      20.336  -3.351  34.155  1.00  0.00    -0.355 OA
HETATM   23  H8  UNK     1      20.416  -2.845  33.330  1.00  0.00     0.218 HD
ENDBRANCH   6  22
TORSDOF 4
ENDMDL
MODEL 5
REMARK VINA RESULT:      -7.7      1.423      2.655
REMARK  4 active torsions:
REMARK  status: ('A' for Active; 'I' for Inactive)
REMARK    1  A    between atoms: C9_14  and  O2_2 
REMARK    2  A    between atoms: C5_10  and  O3_3 
REMARK    3  A    between atoms: C10_15  and  O4_4 
REMARK    4  A    between atoms: C1_6  and  C2_7 
ROOT
HETATM    1  O1  UNK     1      19.311   6.819  33.022  1.00  0.00    -0.306 OA
HETATM    2  O5  UNK     1      15.983   9.150  32.708  1.00  0.00    -0.284 OA
HETATM    3  C1  UNK     1      18.157   6.354  32.411  1.00  0.00     0.123 A 
HETATM    4  C3  UNK     1      18.218   8.947  33.433  1.00  0.00     0.051 A 
HETATM    5  C4  UNK     1      19.321   8.099  33.512  1.00  0.00     0.090 A 
HETATM    6  C5  UNK     1      17.024   7.067  32.279  1.00  0.00     0.152 A 
HETATM    7  C6  UNK     1      16.985   8.454  32.800  1.00  0.00     0.220 A 
HETATM    8  C11 UNK     1      18.286  10.243  33.950  1.00  0.00     0.018 A 
HETATM    9  C12 UNK     1      20.500   8.544  34.111  1.00  0.00     0.038 A 
HETATM   10  C14 UNK     1      19.468  10.685  34.548  1.00  0.00     0.001 A 
HETATM   11  C15 UNK     1      20.572   9.837  34.628  1.00  0.00     0.003 A 
ENDROOT
BRANCH   3  12
HETATM   12  C2  UNK     1      18.281   4.968  31.929  1.00  0.00     0.004 A 
HETATM   13  C7  UNK     1      17.987   3.903  32.781  1.00  0.00     0.054 A 
HETATM   14  C9  UNK     1      18.105   2.590  32.325  1.00  0.00     0.102 A 
HETATM   15  C10 UNK     1      18.517   2.342  31.015  1.00  0.00     0.101 A 
HETATM   16  C13 UNK     1      18.812   3.406  30.163  1.00  0.00     0.040 A 
HETATM   17  C8  UNK     1      18.693   4.719  30.620  1.00  0.00     0.017 A 
BRANCH  14  18
HETATM   18  O2  UNK     1      17.814   1.560  33.167  1.00  0.00    -0.353 OA
HETATM   19  C16 UNK     1      18.156   1.729  34.541  1.00  0.00     0.210 C 
ENDBRANCH  14  18
BRANCH  15  20
HETATM   20  O4  UNK     1      18.635   1.064  30.558  1.00  0.00    -0.353 OA
HETATM   21  C17 UNK     1      19.391   0.869  29.364  1.00  0.00     0.210 C 
ENDBRANCH  15  20
ENDBRANCH   3  12
BRANCH   6  22
HETATM   22  O3  UNK     1      15.882   6.562  31.696  1.00  0.00    -0.355 OA
HETATM   23  H8  UNK     1      15.459   5.924  32.294  1.00  0.00     0.218 HD
ENDBRANCH   6  22
TORSDOF 4
ENDMDL
MODEL 6
REMARK VINA RESULT:      -7.7      1.493      2.590
REMARK  4 active torsions:
REMARK  status: ('A' for Active; 'I' for Inactive)
REMARK    1  A    between atoms: C9_14  and  O2_2 
REMARK    2  A    between atoms: C5_10  and  O3_3 
REMARK    3  A    between atoms: C10_15  and  O4_4 
REMARK    4  A    between atoms: C1_6  and  C2_7 
ROOT
HETATM    1  O1  UNK     1      16.849   5.888  32.515  1.00  0.00    -0.306 OA
HETATM    2  O5  UNK     1      19.177   7.965  35.137  1.00  0.00    -0.284 OA
HETATM    3  C1  UNK     1      17.968   5.316  33.098  1.00  0.00     0.123 A 
HETATM    4  C3  UNK     1      17.276   7.938  33.742  1.00  0.00     0.051 A 
HETATM    5  C4  UNK     1      16.523   7.177  32.850  1.00  0.00     0.090 A 
HETATM    6  C5  UNK     1      18.782   5.945  33.965  1.00  0.00     0.152 A 
HETATM    7  C6  UNK     1      18.474   7.342  34.352  1.00  0.00     0.220 A 
HETATM    8  C11 UNK     1      16.896   9.248  34.046  1.00  0.00     0.018 A 
HETATM    9  C12 UNK     1      15.385   7.722  32.256  1.00  0.00     0.038 A 
HETATM   10  C14 UNK     1      15.756   9.790  33.450  1.00  0.00     0.001 A 
HETATM   11  C15 UNK     1      15.002   9.029  32.558  1.00  0.00     0.003 A 
ENDROOT
BRANCH   3  12
HETATM   12  C2  UNK     1      18.203   3.931  32.654  1.00  0.00     0.004 A 
HETATM   13  C7  UNK     1      18.488   3.666  31.314  1.00  0.00     0.054 A 
HETATM   14  C9  UNK     1      18.709   2.355  30.893  1.00  0.00     0.102 A 
HETATM   15  C10 UNK     1      18.647   1.308  31.814  1.00  0.00     0.101 A 
HETATM   16  C13 UNK     1      18.362   1.572  33.153  1.00  0.00     0.040 A 
HETATM   17  C8  UNK     1      18.141   2.884  33.573  1.00  0.00     0.017 A 
BRANCH  14  18
HETATM   18  O2  UNK     1      18.987   2.110  29.583  1.00  0.00    -0.353 OA
HETATM   19  C16 UNK     1      17.876   1.973  28.699  1.00  0.00     0.210 C 
ENDBRANCH  14  18
BRANCH  15  20
HETATM   20  O4  UNK     1      18.863   0.023  31.415  1.00  0.00    -0.353 OA
HETATM   21  C17 UNK     1      18.904  -0.974  32.433  1.00  0.00     0.210 C 
ENDBRANCH  15  20
ENDBRANCH   3  12
BRANCH   6  22
HETATM   22  O3  UNK     1      19.907   5.357  34.501  1.00  0.00    -0.355 OA
HETATM   23  H8  UNK     1      20.233   4.661  33.907  1.00  0.00     0.218 HD
ENDBRANCH   6  22
TORSDOF 4
ENDMDL
MODEL 7
REMARK VINA RESULT:      -7.6      2.076      7.139
REMARK  4 active torsions:
REMARK  status: ('A' for Active; 'I' for Inactive)
REMARK    1  A    between atoms: C9_14  and  O2_2 
REMARK    2  A    between atoms: C5_10  and  O3_3 
REMARK    3  A    between atoms: C10_15  and  O4_4 
REMARK    4  A    between atoms: C1_6  and  C2_7 
ROOT
HETATM    1  O1  UNK     1      18.210   3.591  34.529  1.00  0.00    -0.306 OA
HETATM    2  O5  UNK     1      18.509   1.223  31.226  1.00  0.00    -0.284 OA
HETATM    3  C1  UNK     1      18.228   4.130  33.252  1.00  0.00     0.123 A 
HETATM    4  C3  UNK     1      18.379   1.365  33.577  1.00  0.00     0.051 A 
HETATM    5  C4  UNK     1      18.278   2.229  34.665  1.00  0.00     0.090 A 
HETATM    6  C5  UNK     1      18.331   3.408  32.121  1.00  0.00     0.152 A 
HETATM    7  C6  UNK     1      18.415   1.931  32.220  1.00  0.00     0.220 A 
HETATM    8  C11 UNK     1      18.446  -0.016  33.777  1.00  0.00     0.018 A 
HETATM    9  C12 UNK     1      18.246   1.716  35.962  1.00  0.00     0.038 A 
HETATM   10  C14 UNK     1      18.412  -0.526  35.075  1.00  0.00     0.001 A 
HETATM   11  C15 UNK     1      18.312   0.338  36.165  1.00  0.00     0.003 A 
ENDROOT
BRANCH   3  12
HETATM   12  C2  UNK     1      18.146   5.600  33.248  1.00  0.00     0.004 A 
HETATM   13  C7  UNK     1      16.955   6.234  32.891  1.00  0.00     0.054 A 
HETATM   14  C9  UNK     1      16.879   7.627  32.887  1.00  0.00     0.102 A 
HETATM   15  C10 UNK     1      17.994   8.387  33.240  1.00  0.00     0.101 A 
HETATM   16  C13 UNK     1      19.185   7.754  33.597  1.00  0.00     0.040 A 
HETATM   17  C8  UNK     1      19.261   6.361  33.601  1.00  0.00     0.017 A 
BRANCH  14  18
HETATM   18  O2  UNK     1      15.710   8.232  32.537  1.00  0.00    -0.353 OA
HETATM   19  C16 UNK     1      14.663   7.390  32.058  1.00  0.00     0.210 C 
ENDBRANCH  14  18
BRANCH  15  20
HETATM   20  O4  UNK     1      17.931   9.747  33.241  1.00  0.00    -0.353 OA
HETATM   21  C17 UNK     1      18.906  10.442  34.017  1.00  0.00     0.210 C 
ENDBRANCH  15  20
ENDBRANCH   3  12
BRANCH   6  22
HETATM   22  O3  UNK     1      18.380   3.978  30.868  1.00  0.00    -0.355 OA
HETATM   23  H8  UNK     1      18.530   3.291  30.198  1.00  0.00     0.218 HD
ENDBRANCH   6  22
TORSDOF 4
ENDMDL
MODEL 8
REMARK VINA RESULT:      -7.5      1.524      3.352
REMARK  4 active torsions:
REMARK  status: ('A' for Active; 'I' for Inactive)
REMARK    1  A    between atoms: C9_14  and  O2_2 
REMARK    2  A    between atoms: C5_10  and  O3_3 
REMARK    3  A    between atoms: C10_15  and  O4_4 
REMARK    4  A    between atoms: C1_6  and  C2_7 
ROOT
HETATM    1  O1  UNK     1      19.165   6.502  33.363  1.00  0.00    -0.306 OA
HETATM    2  O5  UNK     1      15.778   8.646  32.624  1.00  0.00    -0.284 OA
HETATM    3  C1  UNK     1      18.042   5.911  32.805  1.00  0.00     0.123 A 
HETATM    4  C3  UNK     1      17.999   8.630  33.420  1.00  0.00     0.051 A 
HETATM    5  C4  UNK     1      19.124   7.842  33.651  1.00  0.00     0.090 A 
HETATM    6  C5  UNK     1      16.892   6.557  32.542  1.00  0.00     0.152 A 
HETATM    7  C6  UNK     1      16.798   8.005  32.843  1.00  0.00     0.220 A 
HETATM    8  C11 UNK     1      18.014   9.992  33.734  1.00  0.00     0.018 A 
HETATM    9  C12 UNK     1      20.273   8.411  34.201  1.00  0.00     0.038 A 
HETATM   10  C14 UNK     1      19.165  10.558  34.283  1.00  0.00     0.001 A 
HETATM   11  C15 UNK     1      20.292   9.770  34.516  1.00  0.00     0.003 A 
ENDROOT
BRANCH   3  12
HETATM   12  C2  UNK     1      18.221   4.473  32.544  1.00  0.00     0.004 A 
HETATM   13  C7  UNK     1      18.507   4.027  31.254  1.00  0.00     0.054 A 
HETATM   14  C9  UNK     1      18.675   2.664  31.007  1.00  0.00     0.102 A 
HETATM   15  C10 UNK     1      18.558   1.747  32.052  1.00  0.00     0.101 A 
HETATM   16  C13 UNK     1      18.273   2.192  33.342  1.00  0.00     0.040 A 
HETATM   17  C8  UNK     1      18.104   3.555  33.589  1.00  0.00     0.017 A 
BRANCH  14  18
HETATM   18  O2  UNK     1      18.954   2.242  29.742  1.00  0.00    -0.353 OA
HETATM   19  C16 UNK     1      17.844   1.944  28.898  1.00  0.00     0.210 C 
ENDBRANCH  14  18
BRANCH  15  20
HETATM   20  O4  UNK     1      18.722   0.414  31.823  1.00  0.00    -0.353 OA
HETATM   21  C17 UNK     1      18.583  -0.458  32.943  1.00  0.00     0.210 C 
ENDBRANCH  15  20
ENDBRANCH   3  12
BRANCH   6  22
HETATM   22  O3  UNK     1      15.782   5.931  32.017  1.00  0.00    -0.355 OA
HETATM   23  H8  UNK     1      15.815   5.957  31.047  1.00  0.00     0.218 HD
ENDBRANCH   6  22
TORSDOF 4
ENDMDL
MODEL 9
REMARK VINA RESULT:      -7.5      1.888      7.062
REMARK  4 active torsions:
REMARK  status: ('A' for Active; 'I' for Inactive)
REMARK    1  A    between atoms: C9_14  and  O2_2 
REMARK    2  A    between atoms: C5_10  and  O3_3 
REMARK    3  A    between atoms: C10_15  and  O4_4 
REMARK    4  A    between atoms: C1_6  and  C2_7 
ROOT
HETATM    1  O1  UNK     1      18.319   4.107  31.179  1.00  0.00    -0.306 OA
HETATM    2  O5  UNK     1      18.666   1.252  34.068  1.00  0.00    -0.284 OA
HETATM    3  C1  UNK     1      18.193   4.419  32.524  1.00  0.00     0.123 A 
HETATM    4  C3  UNK     1      18.715   1.786  31.770  1.00  0.00     0.051 A 
HETATM    5  C4  UNK     1      18.582   2.807  30.832  1.00  0.00     0.090 A 
HETATM    6  C5  UNK     1      18.290   3.527  33.526  1.00  0.00     0.152 A 
HETATM    7  C6  UNK     1      18.566   2.108  33.198  1.00  0.00     0.220 A 
HETATM    8  C11 UNK     1      18.983   0.478  31.358  1.00  0.00     0.018 A 
HETATM    9  C12 UNK     1      18.716   2.525  29.472  1.00  0.00     0.038 A 
HETATM   10  C14 UNK     1      19.117   0.200  29.997  1.00  0.00     0.001 A 
HETATM   11  C15 UNK     1      18.984   1.221  29.056  1.00  0.00     0.003 A 
ENDROOT
BRANCH   3  12
HETATM   12  C2  UNK     1      17.914   5.846  32.758  1.00  0.00     0.004 A 
HETATM   13  C7  UNK     1      16.651   6.367  32.473  1.00  0.00     0.054 A 
HETATM   14  C9  UNK     1      16.387   7.719  32.695  1.00  0.00     0.102 A 
HETATM   15  C10 UNK     1      17.386   8.550  33.202  1.00  0.00     0.101 A 
HETATM   16  C13 UNK     1      18.648   8.030  33.487  1.00  0.00     0.040 A 
HETATM   17  C8  UNK     1      18.912   6.678  33.266  1.00  0.00     0.017 A 
BRANCH  14  18
HETATM   18  O2  UNK     1      15.150   8.214  32.413  1.00  0.00    -0.353 OA
HETATM   19  C16 UNK     1      14.084   7.273  32.309  1.00  0.00     0.210 C 
ENDBRANCH  14  18
BRANCH  15  20
HETATM   20  O4  UNK     1      17.139   9.871  33.424  1.00  0.00    -0.353 OA
HETATM   21  C17 UNK     1      18.220  10.659  33.920  1.00  0.00     0.210 C 
ENDBRANCH  15  20
ENDBRANCH   3  12
BRANCH   6  22
HETATM   22  O3  UNK     1      18.125   3.866  34.852  1.00  0.00    -0.355 OA
HETATM   23  H8  UNK     1      17.420   4.528  34.939  1.00  0.00     0.218 HD
ENDBRANCH   6  22
TORSDOF 4
ENDMDL
MODEL 10
REMARK VINA RESULT:      -7.5      1.253      2.478
REMARK  4 active torsions:
REMARK  status: ('A' for Active; 'I' for Inactive)
REMARK    1  A    between atoms: C9_14  and  O2_2 
REMARK    2  A    between atoms: C5_10  and  O3_3 
REMARK    3  A    between atoms: C10_15  and  O4_4 
REMARK    4  A    between atoms: C1_6  and  C2_7 
ROOT
HETATM    1  O1  UNK     1      18.251   8.299  32.927  1.00  0.00    -0.306 OA
HETATM    2  O5  UNK     1      14.316   9.342  33.116  1.00  0.00    -0.284 OA
HETATM    3  C1  UNK     1      17.259   7.475  32.418  1.00  0.00     0.123 A 
HETATM    4  C3  UNK     1      16.558   9.910  33.580  1.00  0.00     0.051 A 
HETATM    5  C4  UNK     1      17.884   9.494  33.487  1.00  0.00     0.090 A 
HETATM    6  C5  UNK     1      15.943   7.754  32.454  1.00  0.00     0.152 A 
HETATM    7  C6  UNK     1      15.499   9.033  33.057  1.00  0.00     0.220 A 
HETATM    8  C11 UNK     1      16.243  11.140  34.163  1.00  0.00     0.018 A 
HETATM    9  C12 UNK     1      18.905  10.308  33.980  1.00  0.00     0.038 A 
HETATM   10  C14 UNK     1      17.267  11.952  34.653  1.00  0.00     0.001 A 
HETATM   11  C15 UNK     1      18.595  11.536  34.562  1.00  0.00     0.003 A 
ENDROOT
BRANCH   3  12
HETATM   12  C2  UNK     1      17.788   6.226  31.845  1.00  0.00     0.004 A 
HETATM   13  C7  UNK     1      17.552   5.008  32.484  1.00  0.00     0.054 A 
HETATM   14  C9  UNK     1      18.054   3.825  31.940  1.00  0.00     0.102 A 
HETATM   15  C10 UNK     1      18.791   3.860  30.757  1.00  0.00     0.101 A 
HETATM   16  C13 UNK     1      19.027   5.077  30.117  1.00  0.00     0.040 A 
HETATM   17  C8  UNK     1      18.525   6.259  30.661  1.00  0.00     0.017 A 
BRANCH  14  18
HETATM   18  O2  UNK     1      17.816   2.643  32.574  1.00  0.00    -0.353 OA
HETATM   19  C16 UNK     1      18.199   2.555  33.945  1.00  0.00     0.210 C 
ENDBRANCH  14  18
BRANCH  15  20
HETATM   20  O4  UNK     1      19.285   2.711  30.216  1.00  0.00    -0.353 OA
HETATM   21  C17 UNK     1      18.496   2.076  29.211  1.00  0.00     0.210 C 
ENDBRANCH  15  20
ENDBRANCH   3  12
BRANCH   6  22
HETATM   22  O3  UNK     1      14.980   6.896  31.969  1.00  0.00    -0.355 OA
HETATM   23  H8  UNK     1      15.035   6.043  32.429  1.00  0.00     0.218 HD
ENDBRANCH   6  22
TORSDOF 4
ENDMDL
