MODEL 1
REMARK VINA RESULT:      -7.6      0.000      0.000
REMARK  1 active torsions:
REMARK  status: ('A' for Active; 'I' for Inactive)
REMARK    1  A    between atoms: C3_7  and  C4_8 
ROOT
HETATM    1 Cl1  UNK     1      12.667  11.792  34.646  1.00  0.00    -0.084 Cl
HETATM    2  O1  UNK     1      17.531   8.862  33.113  1.00  0.00    -0.309 OA
HETATM    3  O2  UNK     1      13.934   7.169  32.219  1.00  0.00    -0.287 OA
HETATM    4  C1  UNK     1      15.106   8.984  33.176  1.00  0.00     0.050 A 
HETATM    5  C2  UNK     1      16.368   9.506  33.451  1.00  0.00     0.090 A 
HETATM    6  C3  UNK     1      17.443   7.632  32.476  1.00  0.00     0.090 A 
HETATM    7  C5  UNK     1      15.009   7.685  32.494  1.00  0.00     0.187 A 
HETATM    8  C6  UNK     1      16.288   7.030  32.153  1.00  0.00     0.093 A 
HETATM    9  C7  UNK     1      13.955   9.686  33.543  1.00  0.00     0.042 A 
HETATM   10  C8  UNK     1      16.488  10.738  34.096  1.00  0.00     0.040 A 
HETATM   11  C11 UNK     1      14.078  10.917  34.188  1.00  0.00     0.035 A 
HETATM   12  C12 UNK     1      15.341  11.442  34.463  1.00  0.00     0.026 A 
ENDROOT
BRANCH   6  13
HETATM   13  C4  UNK     1      18.752   7.030  32.152  1.00  0.00    -0.002 A 
HETATM   14  C10 UNK     1      18.954   6.410  30.917  1.00  0.00     0.017 A 
HETATM   15  C14 UNK     1      20.191   5.843  30.612  1.00  0.00     0.043 A 
HETATM   16  C15 UNK     1      21.230   5.894  31.540  1.00  0.00     0.116 A 
HETATM   17  C13 UNK     1      21.032   6.514  32.774  1.00  0.00     0.043 A 
HETATM   18  F1  UNK     1      22.419   5.351  31.247  1.00  0.00    -0.206 F 
HETATM   19  C9  UNK     1      19.795   7.081  33.080  1.00  0.00     0.017 A 
ENDBRANCH   6  13
TORSDOF 1
ENDMDL
MODEL 2
REMARK VINA RESULT:      -7.6     12.843     14.749
REMARK  1 active torsions:
REMARK  status: ('A' for Active; 'I' for Inactive)
REMARK    1  A    between atoms: C3_7  and  C4_8 
ROOT
HETATM    1 Cl1  UNK     1      20.363 -10.200  36.942  1.00  0.00    -0.084 Cl
HETATM    2  O1  UNK     1      18.725  -4.568  36.504  1.00  0.00    -0.309 OA
HETATM    3  O2  UNK     1      22.393  -5.360  38.090  1.00  0.00    -0.287 OA
HETATM    4  C1  UNK     1      20.393  -6.207  37.161  1.00  0.00     0.050 A 
HETATM    5  C2  UNK     1      19.152  -5.866  36.627  1.00  0.00     0.090 A 
HETATM    6  C3  UNK     1      19.565  -3.553  36.938  1.00  0.00     0.090 A 
HETATM    7  C5  UNK     1      21.289  -5.133  37.615  1.00  0.00     0.187 A 
HETATM    8  C6  UNK     1      20.784  -3.754  37.462  1.00  0.00     0.093 A 
HETATM    9  C7  UNK     1      20.775  -7.546  37.262  1.00  0.00     0.042 A 
HETATM   10  C8  UNK     1      18.282  -6.866  36.188  1.00  0.00     0.040 A 
HETATM   11  C11 UNK     1      19.904  -8.545  36.823  1.00  0.00     0.035 A 
HETATM   12  C12 UNK     1      18.661  -8.205  36.287  1.00  0.00     0.026 A 
ENDROOT
BRANCH   6  13
HETATM   13  C4  UNK     1      19.011  -2.196  36.752  1.00  0.00    -0.002 A 
HETATM   14  C10 UNK     1      19.215  -1.511  35.552  1.00  0.00     0.017 A 
HETATM   15  C14 UNK     1      18.691  -0.232  35.378  1.00  0.00     0.043 A 
HETATM   16  C15 UNK     1      17.960   0.368  36.402  1.00  0.00     0.116 A 
HETATM   17  C13 UNK     1      17.753  -0.313  37.602  1.00  0.00     0.043 A 
HETATM   18  F1  UNK     1      17.455   1.598  36.235  1.00  0.00    -0.206 F 
HETATM   19  C9  UNK     1      18.278  -1.593  37.777  1.00  0.00     0.017 A 
ENDBRANCH   6  13
TORSDOF 1
ENDMDL
MODEL 3
REMARK VINA RESULT:      -7.5      2.198      3.340
REMARK  1 active torsions:
REMARK  status: ('A' for Active; 'I' for Inactive)
REMARK    1  A    between atoms: C3_7  and  C4_8 
ROOT
HETATM    1 Cl1  UNK     1      15.692  12.382  35.046  1.00  0.00    -0.084 Cl
HETATM    2  O1  UNK     1      17.015   7.395  32.223  1.00  0.00    -0.309 OA
HETATM    3  O2  UNK     1      19.877   9.040  34.612  1.00  0.00    -0.287 OA
HETATM    4  C1  UNK     1      17.687   9.174  33.733  1.00  0.00     0.050 A 
HETATM    5  C2  UNK     1      16.754   8.558  32.902  1.00  0.00     0.090 A 
HETATM    6  C3  UNK     1      18.266   6.813  32.367  1.00  0.00     0.090 A 
HETATM    7  C5  UNK     1      19.011   8.555  33.895  1.00  0.00     0.187 A 
HETATM    8  C6  UNK     1      19.244   7.306  33.143  1.00  0.00     0.093 A 
HETATM    9  C7  UNK     1      17.366  10.358  34.401  1.00  0.00     0.042 A 
HETATM   10  C8  UNK     1      15.490   9.124  32.732  1.00  0.00     0.040 A 
HETATM   11  C11 UNK     1      16.101  10.922  34.229  1.00  0.00     0.035 A 
HETATM   12  C12 UNK     1      15.165  10.306  33.397  1.00  0.00     0.026 A 
ENDROOT
BRANCH   6  13
HETATM   13  C4  UNK     1      18.437   5.562  31.599  1.00  0.00    -0.002 A 
HETATM   14  C10 UNK     1      18.098   4.334  32.171  1.00  0.00     0.017 A 
HETATM   15  C14 UNK     1      18.259   3.155  31.445  1.00  0.00     0.043 A 
HETATM   16  C15 UNK     1      18.760   3.199  30.144  1.00  0.00     0.116 A 
HETATM   17  C13 UNK     1      19.098   4.424  29.569  1.00  0.00     0.043 A 
HETATM   18  F1  UNK     1      18.914   2.067  29.446  1.00  0.00    -0.206 F 
HETATM   19  C9  UNK     1      18.938   5.604  30.296  1.00  0.00     0.017 A 
ENDBRANCH   6  13
TORSDOF 1
ENDMDL
MODEL 4
REMARK VINA RESULT:      -7.4      2.798      3.807
REMARK  1 active torsions:
REMARK  status: ('A' for Active; 'I' for Inactive)
REMARK    1  A    between atoms: C3_7  and  C4_8 
ROOT
HETATM    1 Cl1  UNK     1      14.513  10.437  35.351  1.00  0.00    -0.084 Cl
HETATM    2  O1  UNK     1      16.575   5.778  32.412  1.00  0.00    -0.309 OA
HETATM    3  O2  UNK     1      19.069   7.602  35.069  1.00  0.00    -0.287 OA
HETATM    4  C1  UNK     1      16.940   7.540  34.043  1.00  0.00     0.050 A 
HETATM    5  C2  UNK     1      16.140   6.869  33.121  1.00  0.00     0.090 A 
HETATM    6  C3  UNK     1      17.872   5.331  32.619  1.00  0.00     0.090 A 
HETATM    7  C5  UNK     1      18.313   7.063  34.271  1.00  0.00     0.187 A 
HETATM    8  C6  UNK     1      18.734   5.887  33.483  1.00  0.00     0.093 A 
HETATM    9  C7  UNK     1      16.444   8.645  34.738  1.00  0.00     0.042 A 
HETATM   10  C8  UNK     1      14.834   7.300  32.887  1.00  0.00     0.040 A 
HETATM   11  C11 UNK     1      15.137   9.075  34.502  1.00  0.00     0.035 A 
HETATM   12  C12 UNK     1      14.334   8.404  33.578  1.00  0.00     0.026 A 
ENDROOT
BRANCH   6  13
HETATM   13  C4  UNK     1      18.234   4.148  31.811  1.00  0.00    -0.002 A 
HETATM   14  C10 UNK     1      18.213   2.873  32.382  1.00  0.00     0.017 A 
HETATM   15  C14 UNK     1      18.554   1.758  31.618  1.00  0.00     0.043 A 
HETATM   16  C15 UNK     1      18.916   1.913  30.280  1.00  0.00     0.116 A 
HETATM   17  C13 UNK     1      18.936   3.184  29.706  1.00  0.00     0.043 A 
HETATM   18  F1  UNK     1      19.242   0.841  29.545  1.00  0.00    -0.206 F 
HETATM   19  C9  UNK     1      18.596   4.300  30.470  1.00  0.00     0.017 A 
ENDBRANCH   6  13
TORSDOF 1
ENDMDL
MODEL 5
REMARK VINA RESULT:      -7.4      5.976      8.359
REMARK  1 active torsions:
REMARK  status: ('A' for Active; 'I' for Inactive)
REMARK    1  A    between atoms: C3_7  and  C4_8 
ROOT
HETATM    1 Cl1  UNK     1      20.203  -2.214  29.848  1.00  0.00    -0.084 Cl
HETATM    2  O1  UNK     1      18.547   3.302  31.040  1.00  0.00    -0.309 OA
HETATM    3  O2  UNK     1      18.645   0.641  34.124  1.00  0.00    -0.287 OA
HETATM    4  C1  UNK     1      18.980   1.043  31.820  1.00  0.00     0.050 A 
HETATM    5  C2  UNK     1      18.926   2.003  30.812  1.00  0.00     0.090 A 
HETATM    6  C3  UNK     1      18.196   3.670  32.330  1.00  0.00     0.090 A 
HETATM    7  C5  UNK     1      18.616   1.432  33.191  1.00  0.00     0.187 A 
HETATM    8  C6  UNK     1      18.214   2.840  33.384  1.00  0.00     0.093 A 
HETATM    9  C7  UNK     1      19.374  -0.265  31.529  1.00  0.00     0.042 A 
HETATM   10  C8  UNK     1      19.267   1.661  29.502  1.00  0.00     0.040 A 
HETATM   11  C11 UNK     1      19.715  -0.606  30.220  1.00  0.00     0.035 A 
HETATM   12  C12 UNK     1      19.662   0.356  29.209  1.00  0.00     0.026 A 
ENDROOT
BRANCH   6  13
HETATM   13  C4  UNK     1      17.811   5.090  32.465  1.00  0.00    -0.002 A 
HETATM   14  C10 UNK     1      17.773   5.918  31.340  1.00  0.00     0.017 A 
HETATM   15  C14 UNK     1      17.409   7.257  31.468  1.00  0.00     0.043 A 
HETATM   16  C15 UNK     1      17.081   7.774  32.721  1.00  0.00     0.116 A 
HETATM   17  C13 UNK     1      17.117   6.951  33.846  1.00  0.00     0.043 A 
HETATM   18  F1  UNK     1      16.730   9.061  32.844  1.00  0.00    -0.206 F 
HETATM   19  C9  UNK     1      17.482   5.611  33.718  1.00  0.00     0.017 A 
ENDBRANCH   6  13
TORSDOF 1
ENDMDL
MODEL 6
REMARK VINA RESULT:      -7.4     23.673     25.092
REMARK  1 active torsions:
REMARK  status: ('A' for Active; 'I' for Inactive)
REMARK    1  A    between atoms: C3_7  and  C4_8 
ROOT
HETATM    1 Cl1  UNK     1      18.824  11.330  10.160  1.00  0.00    -0.084 Cl
HETATM    2  O1  UNK     1      13.836   8.904   8.205  1.00  0.00    -0.309 OA
HETATM    3  O2  UNK     1      16.255   6.628  10.566  1.00  0.00    -0.287 OA
HETATM    4  C1  UNK     1      15.883   8.702   9.496  1.00  0.00     0.050 A 
HETATM    5  C2  UNK     1      15.010   9.425   8.685  1.00  0.00     0.090 A 
HETATM    6  C3  UNK     1      13.509   7.597   8.537  1.00  0.00     0.090 A 
HETATM    7  C5  UNK     1      15.537   7.319   9.855  1.00  0.00     0.187 A 
HETATM    8  C6  UNK     1      14.264   6.804   9.313  1.00  0.00     0.093 A 
HETATM    9  C7  UNK     1      17.066   9.285   9.956  1.00  0.00     0.042 A 
HETATM   10  C8  UNK     1      15.315  10.740   8.330  1.00  0.00     0.040 A 
HETATM   11  C11 UNK     1      17.369  10.600   9.599  1.00  0.00     0.035 A 
HETATM   12  C12 UNK     1      16.495  11.325   8.788  1.00  0.00     0.026 A 
ENDROOT
BRANCH   6  13
HETATM   13  C4  UNK     1      12.222   7.139   7.974  1.00  0.00    -0.002 A 
HETATM   14  C10 UNK     1      11.042   7.286   8.707  1.00  0.00     0.017 A 
HETATM   15  C14 UNK     1       9.828   6.855   8.175  1.00  0.00     0.043 A 
HETATM   16  C15 UNK     1       9.789   6.275   6.907  1.00  0.00     0.116 A 
HETATM   17  C13 UNK     1      10.965   6.128   6.171  1.00  0.00     0.043 A 
HETATM   18  F1  UNK     1       8.623   5.862   6.394  1.00  0.00    -0.206 F 
HETATM   19  C9  UNK     1      12.180   6.559   6.704  1.00  0.00     0.017 A 
ENDBRANCH   6  13
TORSDOF 1
ENDMDL
MODEL 7
REMARK VINA RESULT:      -7.4      2.075      2.600
REMARK  1 active torsions:
REMARK  status: ('A' for Active; 'I' for Inactive)
REMARK    1  A    between atoms: C3_7  and  C4_8 
ROOT
HETATM    1 Cl1  UNK     1      16.409  13.708  35.763  1.00  0.00    -0.084 Cl
HETATM    2  O1  UNK     1      18.070   8.765  33.044  1.00  0.00    -0.309 OA
HETATM    3  O2  UNK     1      14.235   8.988  34.401  1.00  0.00    -0.287 OA
HETATM    4  C1  UNK     1      16.339  10.039  34.174  1.00  0.00     0.050 A 
HETATM    5  C2  UNK     1      17.636   9.897  33.685  1.00  0.00     0.090 A 
HETATM    6  C3  UNK     1      17.179   7.714  32.884  1.00  0.00     0.090 A 
HETATM    7  C5  UNK     1      15.389   8.930  33.999  1.00  0.00     0.187 A 
HETATM    8  C6  UNK     1      15.905   7.733  33.304  1.00  0.00     0.093 A 
HETATM    9  C7  UNK     1      15.951  11.216  34.819  1.00  0.00     0.042 A 
HETATM   10  C8  UNK     1      18.557  10.935  33.837  1.00  0.00     0.040 A 
HETATM   11  C11 UNK     1      16.874  12.252  34.970  1.00  0.00     0.035 A 
HETATM   12  C12 UNK     1      18.173  12.112  34.480  1.00  0.00     0.026 A 
ENDROOT
BRANCH   6  13
HETATM   13  C4  UNK     1      17.747   6.549  32.175  1.00  0.00    -0.002 A 
HETATM   14  C10 UNK     1      17.673   5.275  32.744  1.00  0.00     0.017 A 
HETATM   15  C14 UNK     1      18.208   4.177  32.074  1.00  0.00     0.043 A 
HETATM   16  C15 UNK     1      18.820   4.347  30.832  1.00  0.00     0.116 A 
HETATM   17  C13 UNK     1      18.895   5.617  30.260  1.00  0.00     0.043 A 
HETATM   18  F1  UNK     1      19.334   3.291  30.187  1.00  0.00    -0.206 F 
HETATM   19  C9  UNK     1      18.360   6.716  30.931  1.00  0.00     0.017 A 
ENDBRANCH   6  13
TORSDOF 1
ENDMDL
MODEL 8
REMARK VINA RESULT:      -7.3     19.254     20.615
REMARK  1 active torsions:
REMARK  status: ('A' for Active; 'I' for Inactive)
REMARK    1  A    between atoms: C3_7  and  C4_8 
ROOT
HETATM    1 Cl1  UNK     1      26.771  -9.902  40.203  1.00  0.00    -0.084 Cl
HETATM    2  O1  UNK     1      30.863  -6.943  37.189  1.00  0.00    -0.309 OA
HETATM    3  O2  UNK     1      27.965  -4.787  39.074  1.00  0.00    -0.287 OA
HETATM    4  C1  UNK     1      28.867  -6.913  38.571  1.00  0.00     0.050 A 
HETATM    5  C2  UNK     1      29.887  -7.588  37.904  1.00  0.00     0.090 A 
HETATM    6  C3  UNK     1      30.827  -5.558  37.123  1.00  0.00     0.090 A 
HETATM    7  C5  UNK     1      28.829  -5.444  38.509  1.00  0.00     0.187 A 
HETATM    8  C6  UNK     1      29.902  -4.797  37.727  1.00  0.00     0.093 A 
HETATM    9  C7  UNK     1      27.898  -7.622  39.285  1.00  0.00     0.042 A 
HETATM   10  C8  UNK     1      29.946  -8.982  37.948  1.00  0.00     0.040 A 
HETATM   11  C11 UNK     1      27.959  -9.016  39.327  1.00  0.00     0.035 A 
HETATM   12  C12 UNK     1      28.980  -9.694  38.660  1.00  0.00     0.026 A 
ENDROOT
BRANCH   6  13
HETATM   13  C4  UNK     1      31.928  -4.967  36.335  1.00  0.00    -0.002 A 
HETATM   14  C10 UNK     1      32.208  -3.602  36.433  1.00  0.00     0.017 A 
HETATM   15  C14 UNK     1      33.248  -3.045  35.689  1.00  0.00     0.043 A 
HETATM   16  C15 UNK     1      34.012  -3.851  34.845  1.00  0.00     0.116 A 
HETATM   17  C13 UNK     1      33.736  -5.215  34.746  1.00  0.00     0.043 A 
HETATM   18  F1  UNK     1      35.011  -3.317  34.132  1.00  0.00    -0.206 F 
HETATM   19  C9  UNK     1      32.695  -5.772  35.489  1.00  0.00     0.017 A 
ENDBRANCH   6  13
TORSDOF 1
ENDMDL
MODEL 9
REMARK VINA RESULT:      -7.3      4.656      6.054
REMARK  1 active torsions:
REMARK  status: ('A' for Active; 'I' for Inactive)
REMARK    1  A    between atoms: C3_7  and  C4_8 
ROOT
HETATM    1 Cl1  UNK     1      17.431   8.644  33.862  1.00  0.00    -0.084 Cl
HETATM    2  O1  UNK     1      18.616   3.186  32.020  1.00  0.00    -0.309 OA
HETATM    3  O2  UNK     1      18.722   6.184  29.263  1.00  0.00    -0.287 OA
HETATM    4  C1  UNK     1      18.364   5.547  31.510  1.00  0.00     0.050 A 
HETATM    5  C2  UNK     1      18.346   4.475  32.401  1.00  0.00     0.090 A 
HETATM    6  C3  UNK     1      18.912   2.939  30.687  1.00  0.00     0.090 A 
HETATM    7  C5  UNK     1      18.685   5.290  30.098  1.00  0.00     0.187 A 
HETATM    8  C6  UNK     1      18.966   3.886  29.738  1.00  0.00     0.093 A 
HETATM    9  C7  UNK     1      18.082   6.840  31.955  1.00  0.00     0.042 A 
HETATM   10  C8  UNK     1      18.046   4.692  33.747  1.00  0.00     0.040 A 
HETATM   11  C11 UNK     1      17.781   7.054  33.301  1.00  0.00     0.035 A 
HETATM   12  C12 UNK     1      17.764   5.982  34.195  1.00  0.00     0.026 A 
ENDROOT
BRANCH   6  13
HETATM   13  C4  UNK     1      19.192   1.520  30.388  1.00  0.00    -0.002 A 
HETATM   14  C10 UNK     1      19.327   1.094  29.065  1.00  0.00     0.017 A 
HETATM   15  C14 UNK     1      19.593  -0.246  28.784  1.00  0.00     0.043 A 
HETATM   16  C15 UNK     1      19.726  -1.164  29.825  1.00  0.00     0.116 A 
HETATM   17  C13 UNK     1      19.594  -0.742  31.148  1.00  0.00     0.043 A 
HETATM   18  F1  UNK     1      19.983  -2.451  29.555  1.00  0.00    -0.206 F 
HETATM   19  C9  UNK     1      19.327   0.598  31.429  1.00  0.00     0.017 A 
ENDBRANCH   6  13
TORSDOF 1
ENDMDL
MODEL 10
REMARK VINA RESULT:      -7.3      5.620      7.835
REMARK  1 active torsions:
REMARK  status: ('A' for Active; 'I' for Inactive)
REMARK    1  A    between atoms: C3_7  and  C4_8 
ROOT
HETATM    1 Cl1  UNK     1      19.468  -1.778  31.551  1.00  0.00    -0.084 Cl
HETATM    2  O1  UNK     1      17.935   3.603  33.364  1.00  0.00    -0.309 OA
HETATM    3  O2  UNK     1      18.961   3.140  29.448  1.00  0.00    -0.287 OA
HETATM    4  C1  UNK     1      18.664   2.140  31.568  1.00  0.00     0.050 A 
HETATM    5  C2  UNK     1      18.301   2.367  32.894  1.00  0.00     0.090 A 
HETATM    6  C3  UNK     1      17.935   4.672  32.480  1.00  0.00     0.090 A 
HETATM    7  C5  UNK     1      18.657   3.269  30.627  1.00  0.00     0.187 A 
HETATM    8  C6  UNK     1      18.258   4.578  31.181  1.00  0.00     0.093 A 
HETATM    9  C7  UNK     1      19.027   0.859  31.145  1.00  0.00     0.042 A 
HETATM   10  C8  UNK     1      18.297   1.312  33.808  1.00  0.00     0.040 A 
HETATM   11  C11 UNK     1      19.023  -0.194  32.060  1.00  0.00     0.035 A 
HETATM   12  C12 UNK     1      18.659   0.032  33.389  1.00  0.00     0.026 A 
ENDROOT
BRANCH   6  13
HETATM   13  C4  UNK     1      17.520   5.953  33.089  1.00  0.00    -0.002 A 
HETATM   14  C10 UNK     1      18.285   6.529  34.105  1.00  0.00     0.017 A 
HETATM   15  C14 UNK     1      17.893   7.738  34.677  1.00  0.00     0.043 A 
HETATM   16  C15 UNK     1      16.734   8.376  34.235  1.00  0.00     0.116 A 
HETATM   17  C13 UNK     1      15.968   7.804  33.220  1.00  0.00     0.043 A 
HETATM   18  F1  UNK     1      16.357   9.538  34.784  1.00  0.00    -0.206 F 
HETATM   19  C9  UNK     1      16.360   6.594  32.647  1.00  0.00     0.017 A 
ENDBRANCH   6  13
TORSDOF 1
ENDMDL
