MODEL 1
REMARK VINA RESULT:      -8.8      0.000      0.000
REMARK  6 active torsions:
REMARK  status: ('A' for Active; 'I' for Inactive)
REMARK    1  A    between atoms: C19_24  and  O2_2 
REMARK    2  A    between atoms: C23_28  and  O2_2 
REMARK    3  A    between atoms: C5_10  and  N1_4 
REMARK    4  A    between atoms: C6_11  and  N2_5 
REMARK    5  A    between atoms: C5_10  and  C7_12 
REMARK    6  A    between atoms: C6_11  and  C8_13 
ROOT
HETATM    1  C5  UNK     1      18.166   2.799  30.585  1.00  0.00     0.312 C 
ENDROOT
BRANCH   1   2
HETATM    2  N1  UNK     1      18.851   3.747  31.462  1.00  0.00     0.096 N 
HETATM    3  C1  UNK     1      19.323   4.912  30.704  1.00  0.00     0.303 C 
HETATM    4  C3  UNK     1      20.040   5.907  31.622  1.00  0.00     0.303 C 
HETATM    5  N2  UNK     1      19.163   6.331  32.720  1.00  0.00     0.096 N 
HETATM    6  C4  UNK     1      18.690   5.166  33.478  1.00  0.00     0.303 C 
HETATM    7  C2  UNK     1      17.973   4.172  32.559  1.00  0.00     0.303 C 
BRANCH   5   8
HETATM    8  C6  UNK     1      19.849   7.278  33.597  1.00  0.00     0.311 C 
BRANCH   8   9
HETATM    9  C8  UNK     1      19.068   8.553  33.766  1.00  0.00    -0.030 A 
HETATM   10  C11 UNK     1      17.690   8.561  33.552  1.00  0.00     0.015 A 
HETATM   11  C15 UNK     1      16.966   9.744  33.706  1.00  0.00    -0.061 A 
HETATM   12  C20 UNK     1      17.621  10.918  34.077  1.00  0.00     0.007 A 
HETATM   13  C22 UNK     1      15.493   9.752  33.476  1.00  0.00     0.048 C 
HETATM   14  C17 UNK     1      18.999  10.911  34.291  1.00  0.00     0.001 A 
HETATM   15  C12 UNK     1      19.723   9.728  34.136  1.00  0.00     0.009 A 
ENDBRANCH   8   9
ENDBRANCH   5   8
ENDBRANCH   1   2
BRANCH   1  16
HETATM   16  C7  UNK     1      18.866   1.486  30.521  1.00  0.00    -0.011 A 
HETATM   17  C10 UNK     1      19.497   1.092  29.406  1.00  0.00     0.092 A 
HETATM   18  C16 UNK     1      20.202  -0.197  29.295  1.00  0.00     0.288 A 
HETATM   19  O1  UNK     1      20.191  -1.012  30.416  1.00  0.00    -0.275 OA
HETATM   20  O3  UNK     1      20.768  -0.525  28.257  1.00  0.00    -0.260 OA
HETATM   21  C13 UNK     1      19.535  -0.624  31.602  1.00  0.00     0.090 A 
HETATM   22  C9  UNK     1      18.871   0.600  31.692  1.00  0.00     0.009 A 
HETATM   23  C18 UNK     1      19.588  -1.525  32.668  1.00  0.00     0.041 A 
HETATM   24  C14 UNK     1      18.243   0.910  32.906  1.00  0.00     0.051 A 
HETATM   25  C19 UNK     1      18.287   0.018  33.983  1.00  0.00     0.069 A 
HETATM   26  C21 UNK     1      18.959  -1.198  33.864  1.00  0.00     0.039 A 
BRANCH  25  27
HETATM   27  O2  UNK     1      17.670   0.338  35.154  1.00  0.00    -0.351 OA
BRANCH  27  28
HETATM   28  C23 UNK     1      18.375   1.203  36.043  1.00  0.00     0.171 C 
HETATM   29  C24 UNK     1      17.509   1.481  37.253  1.00  0.00     0.034 C 
ENDBRANCH  27  28
ENDBRANCH  25  27
ENDBRANCH   1  16
TORSDOF 6
ENDMDL
MODEL 2
REMARK VINA RESULT:      -8.5     13.143     16.731
REMARK  6 active torsions:
REMARK  status: ('A' for Active; 'I' for Inactive)
REMARK    1  A    between atoms: C19_24  and  O2_2 
REMARK    2  A    between atoms: C23_28  and  O2_2 
REMARK    3  A    between atoms: C5_10  and  N1_4 
REMARK    4  A    between atoms: C6_11  and  N2_5 
REMARK    5  A    between atoms: C5_10  and  C7_12 
REMARK    6  A    between atoms: C6_11  and  C8_13 
ROOT
HETATM    1  C5  UNK     1      25.558  -8.894  37.611  1.00  0.00     0.312 C 
ENDROOT
BRANCH   1   2
HETATM    2  N1  UNK     1      26.967  -9.276  37.539  1.00  0.00     0.096 N 
HETATM    3  C1  UNK     1      27.714  -8.353  36.676  1.00  0.00     0.303 C 
HETATM    4  C3  UNK     1      29.191  -8.753  36.600  1.00  0.00     0.303 C 
HETATM    5  N2  UNK     1      29.790  -8.799  37.940  1.00  0.00     0.096 N 
HETATM    6  C4  UNK     1      29.042  -9.721  38.804  1.00  0.00     0.303 C 
HETATM    7  C2  UNK     1      27.565  -9.321  38.879  1.00  0.00     0.303 C 
BRANCH   5   8
HETATM    8  C6  UNK     1      31.198  -9.183  37.867  1.00  0.00     0.311 C 
BRANCH   8   9
HETATM    9  C8  UNK     1      32.095  -7.990  37.671  1.00  0.00    -0.030 A 
HETATM   10  C11 UNK     1      33.158  -8.058  36.770  1.00  0.00     0.015 A 
HETATM   11  C15 UNK     1      33.991  -6.953  36.590  1.00  0.00    -0.061 A 
HETATM   12  C20 UNK     1      33.759  -5.781  37.309  1.00  0.00     0.007 A 
HETATM   13  C22 UNK     1      35.128  -7.025  35.627  1.00  0.00     0.048 C 
HETATM   14  C17 UNK     1      32.697  -5.713  38.210  1.00  0.00     0.001 A 
HETATM   15  C12 UNK     1      31.865  -6.818  38.391  1.00  0.00     0.009 A 
ENDBRANCH   8   9
ENDBRANCH   5   8
ENDBRANCH   1   2
BRANCH   1  16
HETATM   16  C7  UNK     1      24.680  -9.838  36.866  1.00  0.00    -0.011 A 
HETATM   17  C10 UNK     1      25.146 -11.015  36.426  1.00  0.00     0.092 A 
HETATM   18  C16 UNK     1      24.316 -11.981  35.684  1.00  0.00     0.288 A 
HETATM   19  O1  UNK     1      22.999 -11.620  35.450  1.00  0.00    -0.275 OA
HETATM   20  O3  UNK     1      24.777 -13.049  35.297  1.00  0.00    -0.260 OA
HETATM   21  C13 UNK     1      22.481 -10.388  35.900  1.00  0.00     0.090 A 
HETATM   22  C9  UNK     1      23.279  -9.483  36.601  1.00  0.00     0.009 A 
HETATM   23  C18 UNK     1      21.141 -10.129  35.607  1.00  0.00     0.041 A 
HETATM   24  C14 UNK     1      22.690  -8.280  37.013  1.00  0.00     0.051 A 
HETATM   25  C19 UNK     1      21.348  -8.006  36.726  1.00  0.00     0.069 A 
HETATM   26  C21 UNK     1      20.574  -8.930  36.024  1.00  0.00     0.039 A 
BRANCH  25  27
HETATM   27  O2  UNK     1      20.794  -6.831  37.134  1.00  0.00    -0.351 OA
BRANCH  27  28
HETATM   28  C23 UNK     1      21.034  -6.436  38.483  1.00  0.00     0.171 C 
HETATM   29  C24 UNK     1      20.067  -7.164  39.392  1.00  0.00     0.034 C 
ENDBRANCH  27  28
ENDBRANCH  25  27
ENDBRANCH   1  16
TORSDOF 6
ENDMDL
MODEL 3
REMARK VINA RESULT:      -8.5      3.640      9.452
REMARK  6 active torsions:
REMARK  status: ('A' for Active; 'I' for Inactive)
REMARK    1  A    between atoms: C19_24  and  O2_2 
REMARK    2  A    between atoms: C23_28  and  O2_2 
REMARK    3  A    between atoms: C5_10  and  N1_4 
REMARK    4  A    between atoms: C6_11  and  N2_5 
REMARK    5  A    between atoms: C5_10  and  C7_12 
REMARK    6  A    between atoms: C6_11  and  C8_13 
ROOT
HETATM    1  C5  UNK     1      18.015   6.960  32.463  1.00  0.00     0.312 C 
ENDROOT
BRANCH   1   2
HETATM    2  N1  UNK     1      17.963   5.835  31.530  1.00  0.00     0.096 N 
HETATM    3  C1  UNK     1      19.149   5.817  30.667  1.00  0.00     0.303 C 
HETATM    4  C3  UNK     1      19.096   4.638  29.690  1.00  0.00     0.303 C 
HETATM    5  N2  UNK     1      18.968   3.366  30.412  1.00  0.00     0.096 N 
HETATM    6  C4  UNK     1      17.782   3.384  31.277  1.00  0.00     0.303 C 
HETATM    7  C2  UNK     1      17.836   4.564  32.253  1.00  0.00     0.303 C 
BRANCH   5   8
HETATM    8  C6  UNK     1      18.914   2.242  29.480  1.00  0.00     0.311 C 
BRANCH   8   9
HETATM    9  C8  UNK     1      19.365   0.958  30.122  1.00  0.00    -0.030 A 
HETATM   10  C11 UNK     1      18.871   0.593  31.374  1.00  0.00     0.015 A 
HETATM   11  C15 UNK     1      19.291  -0.597  31.970  1.00  0.00    -0.061 A 
HETATM   12  C20 UNK     1      20.204  -1.421  31.313  1.00  0.00     0.007 A 
HETATM   13  C22 UNK     1      18.764  -0.986  33.310  1.00  0.00     0.048 C 
HETATM   14  C17 UNK     1      20.698  -1.057  30.061  1.00  0.00     0.001 A 
HETATM   15  C12 UNK     1      20.279   0.133  29.465  1.00  0.00     0.009 A 
ENDBRANCH   8   9
ENDBRANCH   5   8
ENDBRANCH   1   2
BRANCH   1  16
HETATM   16  C7  UNK     1      16.677   7.582  32.669  1.00  0.00    -0.011 A 
HETATM   17  C10 UNK     1      15.553   6.924  32.355  1.00  0.00     0.092 A 
HETATM   18  C16 UNK     1      14.209   7.498  32.541  1.00  0.00     0.288 A 
HETATM   19  O1  UNK     1      14.145   8.778  33.068  1.00  0.00    -0.275 OA
HETATM   20  O3  UNK     1      13.201   6.866  32.242  1.00  0.00    -0.260 OA
HETATM   21  C13 UNK     1      15.311   9.494  33.407  1.00  0.00     0.090 A 
HETATM   22  C9  UNK     1      16.578   8.938  33.225  1.00  0.00     0.009 A 
HETATM   23  C18 UNK     1      15.127  10.777  33.928  1.00  0.00     0.041 A 
HETATM   24  C14 UNK     1      17.686   9.715  33.586  1.00  0.00     0.051 A 
HETATM   25  C19 UNK     1      17.519  11.001  34.109  1.00  0.00     0.069 A 
HETATM   26  C21 UNK     1      16.241  11.532  34.281  1.00  0.00     0.039 A 
BRANCH  25  27
HETATM   27  O2  UNK     1      18.609  11.740  34.453  1.00  0.00    -0.351 OA
BRANCH  27  28
HETATM   28  C23 UNK     1      18.489  13.158  34.355  1.00  0.00     0.171 C 
HETATM   29  C24 UNK     1      18.823  13.587  32.942  1.00  0.00     0.034 C 
ENDBRANCH  27  28
ENDBRANCH  25  27
ENDBRANCH   1  16
TORSDOF 6
ENDMDL
MODEL 4
REMARK VINA RESULT:      -8.4     14.788     17.550
REMARK  6 active torsions:
REMARK  status: ('A' for Active; 'I' for Inactive)
REMARK    1  A    between atoms: C19_24  and  O2_2 
REMARK    2  A    between atoms: C23_28  and  O2_2 
REMARK    3  A    between atoms: C5_10  and  N1_4 
REMARK    4  A    between atoms: C6_11  and  N2_5 
REMARK    5  A    between atoms: C5_10  and  C7_12 
REMARK    6  A    between atoms: C6_11  and  C8_13 
ROOT
HETATM    1  C5  UNK     1      33.404  -8.533  33.027  1.00  0.00     0.312 C 
ENDROOT
BRANCH   1   2
HETATM    2  N1  UNK     1      33.223  -7.535  34.081  1.00  0.00     0.096 N 
HETATM    3  C1  UNK     1      31.805  -7.402  34.436  1.00  0.00     0.303 C 
HETATM    4  C3  UNK     1      31.616  -6.357  35.540  1.00  0.00     0.303 C 
HETATM    5  N2  UNK     1      32.411  -6.700  36.726  1.00  0.00     0.096 N 
HETATM    6  C4  UNK     1      33.829  -6.835  36.371  1.00  0.00     0.303 C 
HETATM    7  C2  UNK     1      34.018  -7.880  35.266  1.00  0.00     0.303 C 
BRANCH   5   8
HETATM    8  C6  UNK     1      32.232  -5.702  37.778  1.00  0.00     0.311 C 
BRANCH   8   9
HETATM    9  C8  UNK     1      30.797  -5.611  38.227  1.00  0.00    -0.030 A 
HETATM   10  C11 UNK     1      30.086  -6.772  38.527  1.00  0.00     0.015 A 
HETATM   11  C15 UNK     1      28.756  -6.688  38.941  1.00  0.00    -0.061 A 
HETATM   12  C20 UNK     1      28.139  -5.443  39.056  1.00  0.00     0.007 A 
HETATM   13  C22 UNK     1      27.995  -7.930  39.261  1.00  0.00     0.048 C 
HETATM   14  C17 UNK     1      28.851  -4.282  38.755  1.00  0.00     0.001 A 
HETATM   15  C12 UNK     1      30.180  -4.366  38.340  1.00  0.00     0.009 A 
ENDBRANCH   8   9
ENDBRANCH   5   8
ENDBRANCH   1   2
BRANCH   1  16
HETATM   16  C7  UNK     1      33.481  -7.914  31.674  1.00  0.00    -0.011 A 
HETATM   17  C10 UNK     1      34.608  -7.330  31.244  1.00  0.00     0.092 A 
HETATM   18  C16 UNK     1      34.732  -6.705  29.916  1.00  0.00     0.288 A 
HETATM   19  O1  UNK     1      33.611  -6.743  29.102  1.00  0.00    -0.275 OA
HETATM   20  O3  UNK     1      35.780  -6.179  29.556  1.00  0.00    -0.260 OA
HETATM   21  C13 UNK     1      32.412  -7.351  29.528  1.00  0.00     0.090 A 
HETATM   22  C9  UNK     1      32.309  -7.938  30.789  1.00  0.00     0.009 A 
HETATM   23  C18 UNK     1      31.346  -7.329  28.625  1.00  0.00     0.041 A 
HETATM   24  C14 UNK     1      31.083  -8.519  31.137  1.00  0.00     0.051 A 
HETATM   25  C19 UNK     1      30.005  -8.506  30.244  1.00  0.00     0.069 A 
HETATM   26  C21 UNK     1      30.138  -7.912  28.989  1.00  0.00     0.039 A 
BRANCH  25  27
HETATM   27  O2  UNK     1      28.822  -9.076  30.601  1.00  0.00    -0.351 OA
BRANCH  27  28
HETATM   28  C23 UNK     1      27.632  -8.454  30.120  1.00  0.00     0.171 C 
HETATM   29  C24 UNK     1      27.255  -7.320  31.049  1.00  0.00     0.034 C 
ENDBRANCH  27  28
ENDBRANCH  25  27
ENDBRANCH   1  16
TORSDOF 6
ENDMDL
MODEL 5
REMARK VINA RESULT:      -8.3     14.512     17.640
REMARK  6 active torsions:
REMARK  status: ('A' for Active; 'I' for Inactive)
REMARK    1  A    between atoms: C19_24  and  O2_2 
REMARK    2  A    between atoms: C23_28  and  O2_2 
REMARK    3  A    between atoms: C5_10  and  N1_4 
REMARK    4  A    between atoms: C6_11  and  N2_5 
REMARK    5  A    between atoms: C5_10  and  C7_12 
REMARK    6  A    between atoms: C6_11  and  C8_13 
ROOT
HETATM    1  C5  UNK     1      31.639  -6.578  31.901  1.00  0.00     0.312 C 
ENDROOT
BRANCH   1   2
HETATM    2  N1  UNK     1      31.654  -7.341  33.149  1.00  0.00     0.096 N 
HETATM    3  C1  UNK     1      32.622  -6.775  34.096  1.00  0.00     0.303 C 
HETATM    4  C3  UNK     1      32.637  -7.573  35.403  1.00  0.00     0.303 C 
HETATM    5  N2  UNK     1      31.298  -7.617  36.004  1.00  0.00     0.096 N 
HETATM    6  C4  UNK     1      30.329  -8.182  35.057  1.00  0.00     0.303 C 
HETATM    7  C2  UNK     1      30.315  -7.383  33.749  1.00  0.00     0.303 C 
BRANCH   5   8
HETATM    8  C6  UNK     1      31.312  -8.381  37.250  1.00  0.00     0.311 C 
BRANCH   8   9
HETATM    9  C8  UNK     1      30.057  -8.169  38.053  1.00  0.00    -0.030 A 
HETATM   10  C11 UNK     1      29.256  -9.258  38.396  1.00  0.00     0.015 A 
HETATM   11  C15 UNK     1      28.091  -9.061  39.139  1.00  0.00    -0.061 A 
HETATM   12  C20 UNK     1      27.730  -7.775  39.539  1.00  0.00     0.007 A 
HETATM   13  C22 UNK     1      27.234 -10.225  39.504  1.00  0.00     0.048 C 
HETATM   14  C17 UNK     1      28.531  -6.686  39.197  1.00  0.00     0.001 A 
HETATM   15  C12 UNK     1      29.694  -6.883  38.453  1.00  0.00     0.009 A 
ENDBRANCH   8   9
ENDBRANCH   5   8
ENDBRANCH   1   2
BRANCH   1  16
HETATM   16  C7  UNK     1      32.090  -7.393  30.739  1.00  0.00    -0.011 A 
HETATM   17  C10 UNK     1      33.388  -7.472  30.411  1.00  0.00     0.092 A 
HETATM   18  C16 UNK     1      33.881  -8.264  29.271  1.00  0.00     0.288 A 
HETATM   19  O1  UNK     1      32.930  -8.944  28.527  1.00  0.00    -0.275 OA
HETATM   20  O3  UNK     1      35.076  -8.313  29.001  1.00  0.00    -0.260 OA
HETATM   21  C13 UNK     1      31.558  -8.878  28.847  1.00  0.00     0.090 A 
HETATM   22  C9  UNK     1      31.106  -8.124  29.931  1.00  0.00     0.009 A 
HETATM   23  C18 UNK     1      30.690  -9.603  28.028  1.00  0.00     0.041 A 
HETATM   24  C14 UNK     1      29.727  -8.110  30.181  1.00  0.00     0.051 A 
HETATM   25  C19 UNK     1      28.845  -8.830  29.370  1.00  0.00     0.069 A 
HETATM   26  C21 UNK     1      29.326  -9.577  28.294  1.00  0.00     0.039 A 
BRANCH  25  27
HETATM   27  O2  UNK     1      27.509  -8.803  29.630  1.00  0.00    -0.351 OA
BRANCH  27  28
HETATM   28  C23 UNK     1      27.075  -7.976  30.709  1.00  0.00     0.171 C 
HETATM   29  C24 UNK     1      26.371  -6.760  30.147  1.00  0.00     0.034 C 
ENDBRANCH  27  28
ENDBRANCH  25  27
ENDBRANCH   1  16
TORSDOF 6
ENDMDL
MODEL 6
REMARK VINA RESULT:      -8.3      6.243     12.537
REMARK  6 active torsions:
REMARK  status: ('A' for Active; 'I' for Inactive)
REMARK    1  A    between atoms: C19_24  and  O2_2 
REMARK    2  A    between atoms: C23_28  and  O2_2 
REMARK    3  A    between atoms: C5_10  and  N1_4 
REMARK    4  A    between atoms: C6_11  and  N2_5 
REMARK    5  A    between atoms: C5_10  and  C7_12 
REMARK    6  A    between atoms: C6_11  and  C8_13 
ROOT
HETATM    1  C5  UNK     1      19.548  -2.871  35.334  1.00  0.00     0.312 C 
ENDROOT
BRANCH   1   2
HETATM    2  N1  UNK     1      19.688  -3.804  36.450  1.00  0.00     0.096 N 
HETATM    3  C1  UNK     1      19.168  -5.130  36.091  1.00  0.00     0.303 C 
HETATM    4  C3  UNK     1      19.315  -6.108  37.260  1.00  0.00     0.303 C 
HETATM    5  N2  UNK     1      20.717  -6.206  37.687  1.00  0.00     0.096 N 
HETATM    6  C4  UNK     1      21.237  -4.881  38.045  1.00  0.00     0.303 C 
HETATM    7  C2  UNK     1      21.089  -3.902  36.875  1.00  0.00     0.303 C 
BRANCH   5   8
HETATM    8  C6  UNK     1      20.856  -7.138  38.804  1.00  0.00     0.311 C 
BRANCH   8   9
HETATM    9  C8  UNK     1      20.597  -8.560  38.384  1.00  0.00    -0.030 A 
HETATM   10  C11 UNK     1      21.338  -9.127  37.348  1.00  0.00     0.015 A 
HETATM   11  C15 UNK     1      21.097 -10.444  36.957  1.00  0.00    -0.061 A 
HETATM   12  C20 UNK     1      20.115 -11.194  37.604  1.00  0.00     0.007 A 
HETATM   13  C22 UNK     1      21.889 -11.050  35.849  1.00  0.00     0.048 C 
HETATM   14  C17 UNK     1      19.374 -10.627  38.640  1.00  0.00     0.001 A 
HETATM   15  C12 UNK     1      19.614  -9.310  39.030  1.00  0.00     0.009 A 
ENDBRANCH   8   9
ENDBRANCH   5   8
ENDBRANCH   1   2
BRANCH   1  16
HETATM   16  C7  UNK     1      18.990  -1.559  35.764  1.00  0.00    -0.011 A 
HETATM   17  C10 UNK     1      18.710  -1.315  37.052  1.00  0.00     0.092 A 
HETATM   18  C16 UNK     1      18.157  -0.034  37.525  1.00  0.00     0.288 A 
HETATM   19  O1  UNK     1      17.930   0.939  36.565  1.00  0.00    -0.275 OA
HETATM   20  O3  UNK     1      17.912   0.153  38.712  1.00  0.00    -0.260 OA
HETATM   21  C13 UNK     1      18.214   0.711  35.203  1.00  0.00     0.090 A 
HETATM   22  C9  UNK     1      18.738  -0.508  34.769  1.00  0.00     0.009 A 
HETATM   23  C18 UNK     1      17.945   1.762  34.324  1.00  0.00     0.041 A 
HETATM   24  C14 UNK     1      18.991  -0.655  33.399  1.00  0.00     0.051 A 
HETATM   25  C19 UNK     1      18.727   0.388  32.506  1.00  0.00     0.069 A 
HETATM   26  C21 UNK     1      18.205   1.596  32.968  1.00  0.00     0.039 A 
BRANCH  25  27
HETATM   27  O2  UNK     1      18.980   0.225  31.178  1.00  0.00    -0.351 OA
BRANCH  27  28
HETATM   28  C23 UNK     1      20.262  -0.288  30.821  1.00  0.00     0.171 C 
HETATM   29  C24 UNK     1      20.420  -0.222  29.317  1.00  0.00     0.034 C 
ENDBRANCH  27  28
ENDBRANCH  25  27
ENDBRANCH   1  16
TORSDOF 6
ENDMDL
MODEL 7
REMARK VINA RESULT:      -8.3     23.141     25.385
REMARK  6 active torsions:
REMARK  status: ('A' for Active; 'I' for Inactive)
REMARK    1  A    between atoms: C19_24  and  O2_2 
REMARK    2  A    between atoms: C23_28  and  O2_2 
REMARK    3  A    between atoms: C5_10  and  N1_4 
REMARK    4  A    between atoms: C6_11  and  N2_5 
REMARK    5  A    between atoms: C5_10  and  C7_12 
REMARK    6  A    between atoms: C6_11  and  C8_13 
ROOT
HETATM    1  C5  UNK     1      13.162   6.888   7.202  1.00  0.00     0.312 C 
ENDROOT
BRANCH   1   2
HETATM    2  N1  UNK     1      11.870   6.255   7.463  1.00  0.00     0.096 N 
HETATM    3  C1  UNK     1      11.461   6.460   8.858  1.00  0.00     0.303 C 
HETATM    4  C3  UNK     1      10.107   5.798   9.132  1.00  0.00     0.303 C 
HETATM    5  N2  UNK     1       9.080   6.310   8.217  1.00  0.00     0.096 N 
HETATM    6  C4  UNK     1       9.489   6.107   6.822  1.00  0.00     0.303 C 
HETATM    7  C2  UNK     1      10.843   6.768   6.548  1.00  0.00     0.303 C 
BRANCH   5   8
HETATM    8  C6  UNK     1       7.789   5.676   8.477  1.00  0.00     0.311 C 
BRANCH   8   9
HETATM    9  C8  UNK     1       7.188   6.140   9.777  1.00  0.00    -0.030 A 
HETATM   10  C11 UNK     1       6.855   5.211  10.762  1.00  0.00     0.015 A 
HETATM   11  C15 UNK     1       6.296   5.640  11.966  1.00  0.00    -0.061 A 
HETATM   12  C20 UNK     1       6.073   6.999  12.185  1.00  0.00     0.007 A 
HETATM   13  C22 UNK     1       5.938   4.646  13.019  1.00  0.00     0.048 C 
HETATM   14  C17 UNK     1       6.407   7.929  11.201  1.00  0.00     0.001 A 
HETATM   15  C12 UNK     1       6.964   7.499   9.996  1.00  0.00     0.009 A 
ENDBRANCH   8   9
ENDBRANCH   5   8
ENDBRANCH   1   2
BRANCH   1  16
HETATM   16  C7  UNK     1      14.151   6.612   8.280  1.00  0.00    -0.011 A 
HETATM   17  C10 UNK     1      14.542   5.361   8.558  1.00  0.00     0.092 A 
HETATM   18  C16 UNK     1      15.517   5.040   9.615  1.00  0.00     0.288 A 
HETATM   19  O1  UNK     1      16.031   6.108  10.333  1.00  0.00    -0.275 OA
HETATM   20  O3  UNK     1      15.851   3.881   9.841  1.00  0.00    -0.260 OA
HETATM   21  C13 UNK     1      15.638   7.435  10.064  1.00  0.00     0.090 A 
HETATM   22  C9  UNK     1      14.713   7.723   9.060  1.00  0.00     0.009 A 
HETATM   23  C18 UNK     1      16.221   8.430  10.851  1.00  0.00     0.041 A 
HETATM   24  C14 UNK     1      14.375   9.068   8.856  1.00  0.00     0.051 A 
HETATM   25  C19 UNK     1      14.949  10.077   9.636  1.00  0.00     0.069 A 
HETATM   26  C21 UNK     1      15.872   9.758  10.633  1.00  0.00     0.039 A 
BRANCH  25  27
HETATM   27  O2  UNK     1      14.606  11.377   9.423  1.00  0.00    -0.351 OA
BRANCH  27  28
HETATM   28  C23 UNK     1      15.627  12.244   8.931  1.00  0.00     0.171 C 
HETATM   29  C24 UNK     1      15.629  12.197   7.418  1.00  0.00     0.034 C 
ENDBRANCH  27  28
ENDBRANCH  25  27
ENDBRANCH   1  16
TORSDOF 6
ENDMDL
MODEL 8
REMARK VINA RESULT:      -8.3     14.893     17.477
REMARK  6 active torsions:
REMARK  status: ('A' for Active; 'I' for Inactive)
REMARK    1  A    between atoms: C19_24  and  O2_2 
REMARK    2  A    between atoms: C23_28  and  O2_2 
REMARK    3  A    between atoms: C5_10  and  N1_4 
REMARK    4  A    between atoms: C6_11  and  N2_5 
REMARK    5  A    between atoms: C5_10  and  C7_12 
REMARK    6  A    between atoms: C6_11  and  C8_13 
ROOT
HETATM    1  C5  UNK     1      30.944  -9.596  37.652  1.00  0.00     0.312 C 
ENDROOT
BRANCH   1   2
HETATM    2  N1  UNK     1      30.668  -9.891  36.247  1.00  0.00     0.096 N 
HETATM    3  C1  UNK     1      29.398  -9.288  35.826  1.00  0.00     0.303 C 
HETATM    4  C3  UNK     1      29.109  -9.596  34.354  1.00  0.00     0.303 C 
HETATM    5  N2  UNK     1      30.206  -9.130  33.497  1.00  0.00     0.096 N 
HETATM    6  C4  UNK     1      31.477  -9.731  33.918  1.00  0.00     0.303 C 
HETATM    7  C2  UNK     1      31.765  -9.423  35.391  1.00  0.00     0.303 C 
BRANCH   5   8
HETATM    8  C6  UNK     1      29.931  -9.427  32.093  1.00  0.00     0.311 C 
BRANCH   8   9
HETATM    9  C8  UNK     1      29.182  -8.308  31.419  1.00  0.00    -0.030 A 
HETATM   10  C11 UNK     1      29.746  -7.035  31.348  1.00  0.00     0.015 A 
HETATM   11  C15 UNK     1      29.051  -5.997  30.725  1.00  0.00    -0.061 A 
HETATM   12  C20 UNK     1      27.792  -6.235  30.173  1.00  0.00     0.007 A 
HETATM   13  C22 UNK     1      29.654  -4.635  30.650  1.00  0.00     0.048 C 
HETATM   14  C17 UNK     1      27.228  -7.508  30.244  1.00  0.00     0.001 A 
HETATM   15  C12 UNK     1      27.922  -8.545  30.867  1.00  0.00     0.009 A 
ENDBRANCH   8   9
ENDBRANCH   5   8
ENDBRANCH   1   2
BRANCH   1  16
HETATM   16  C7  UNK     1      29.874  -8.766  38.272  1.00  0.00    -0.011 A 
HETATM   17  C10 UNK     1      28.751  -9.325  38.745  1.00  0.00     0.092 A 
HETATM   18  C16 UNK     1      27.666  -8.546  39.366  1.00  0.00     0.288 A 
HETATM   19  O1  UNK     1      27.851  -7.175  39.448  1.00  0.00    -0.275 OA
HETATM   20  O3  UNK     1      26.652  -9.093  39.787  1.00  0.00    -0.260 OA
HETATM   21  C13 UNK     1      29.022  -6.559  38.959  1.00  0.00     0.090 A 
HETATM   22  C9  UNK     1      30.041  -7.310  38.373  1.00  0.00     0.009 A 
HETATM   23  C18 UNK     1      29.100  -5.171  39.094  1.00  0.00     0.041 A 
HETATM   24  C14 UNK     1      31.171  -6.622  37.911  1.00  0.00     0.051 A 
HETATM   25  C19 UNK     1      31.264  -5.232  38.038  1.00  0.00     0.069 A 
HETATM   26  C21 UNK     1      30.230  -4.507  38.630  1.00  0.00     0.039 A 
BRANCH  25  27
HETATM   27  O2  UNK     1      32.371  -4.583  37.583  1.00  0.00    -0.351 OA
BRANCH  27  28
HETATM   28  C23 UNK     1      32.185  -3.659  36.511  1.00  0.00     0.171 C 
HETATM   29  C24 UNK     1      32.599  -4.319  35.213  1.00  0.00     0.034 C 
ENDBRANCH  27  28
ENDBRANCH  25  27
ENDBRANCH   1  16
TORSDOF 6
ENDMDL
MODEL 9
REMARK VINA RESULT:      -8.3      1.899      4.461
REMARK  6 active torsions:
REMARK  status: ('A' for Active; 'I' for Inactive)
REMARK    1  A    between atoms: C19_24  and  O2_2 
REMARK    2  A    between atoms: C23_28  and  O2_2 
REMARK    3  A    between atoms: C5_10  and  N1_4 
REMARK    4  A    between atoms: C6_11  and  N2_5 
REMARK    5  A    between atoms: C5_10  and  C7_12 
REMARK    6  A    between atoms: C6_11  and  C8_13 
ROOT
HETATM    1  C5  UNK     1      17.734   0.251  34.149  1.00  0.00     0.312 C 
ENDROOT
BRANCH   1   2
HETATM    2  N1  UNK     1      18.383   1.526  33.847  1.00  0.00     0.096 N 
HETATM    3  C1  UNK     1      17.835   2.112  32.618  1.00  0.00     0.303 C 
HETATM    4  C3  UNK     1      18.514   3.449  32.302  1.00  0.00     0.303 C 
HETATM    5  N2  UNK     1      18.373   4.385  33.424  1.00  0.00     0.096 N 
HETATM    6  C4  UNK     1      18.920   3.798  34.653  1.00  0.00     0.303 C 
HETATM    7  C2  UNK     1      18.240   2.462  34.969  1.00  0.00     0.303 C 
BRANCH   5   8
HETATM    8  C6  UNK     1      19.024   5.658  33.122  1.00  0.00     0.311 C 
BRANCH   8   9
HETATM    9  C8  UNK     1      18.119   6.830  33.396  1.00  0.00    -0.030 A 
HETATM   10  C11 UNK     1      18.658   8.106  33.554  1.00  0.00     0.015 A 
HETATM   11  C15 UNK     1      17.820   9.191  33.810  1.00  0.00    -0.061 A 
HETATM   12  C20 UNK     1      16.442   9.000  33.905  1.00  0.00     0.007 A 
HETATM   13  C22 UNK     1      18.397  10.556  33.981  1.00  0.00     0.048 C 
HETATM   14  C17 UNK     1      15.902   7.724  33.747  1.00  0.00     0.001 A 
HETATM   15  C12 UNK     1      16.740   6.639  33.492  1.00  0.00     0.009 A 
ENDBRANCH   8   9
ENDBRANCH   5   8
ENDBRANCH   1   2
BRANCH   1  16
HETATM   16  C7  UNK     1      18.719  -0.823  34.457  1.00  0.00    -0.011 A 
HETATM   17  C10 UNK     1      18.966  -1.193  35.721  1.00  0.00     0.092 A 
HETATM   18  C16 UNK     1      19.932  -2.249  36.074  1.00  0.00     0.288 A 
HETATM   19  O1  UNK     1      20.594  -2.864  35.024  1.00  0.00    -0.275 OA
HETATM   20  O3  UNK     1      20.133  -2.561  37.243  1.00  0.00    -0.260 OA
HETATM   21  C13 UNK     1      20.355  -2.495  33.684  1.00  0.00     0.090 A 
HETATM   22  C9  UNK     1      19.437  -1.493  33.365  1.00  0.00     0.009 A 
HETATM   23  C18 UNK     1      21.080  -3.182  32.708  1.00  0.00     0.041 A 
HETATM   24  C14 UNK     1      19.258  -1.185  32.010  1.00  0.00     0.051 A 
HETATM   25  C19 UNK     1      19.977  -1.863  31.020  1.00  0.00     0.069 A 
HETATM   26  C21 UNK     1      20.886  -2.861  31.369  1.00  0.00     0.039 A 
BRANCH  25  27
HETATM   27  O2  UNK     1      19.788  -1.549  29.709  1.00  0.00    -0.351 OA
BRANCH  27  28
HETATM   28  C23 UNK     1      20.424  -0.366  29.229  1.00  0.00     0.171 C 
HETATM   29  C24 UNK     1      19.377   0.707  29.015  1.00  0.00     0.034 C 
ENDBRANCH  27  28
ENDBRANCH  25  27
ENDBRANCH   1  16
TORSDOF 6
ENDMDL
MODEL 10
REMARK VINA RESULT:      -8.2      2.291      3.896
REMARK  6 active torsions:
REMARK  status: ('A' for Active; 'I' for Inactive)
REMARK    1  A    between atoms: C19_24  and  O2_2 
REMARK    2  A    between atoms: C23_28  and  O2_2 
REMARK    3  A    between atoms: C5_10  and  N1_4 
REMARK    4  A    between atoms: C6_11  and  N2_5 
REMARK    5  A    between atoms: C5_10  and  C7_12 
REMARK    6  A    between atoms: C6_11  and  C8_13 
ROOT
HETATM    1  C5  UNK     1      18.529   5.606  32.898  1.00  0.00     0.312 C 
ENDROOT
BRANCH   1   2
HETATM    2  N1  UNK     1      17.235   6.286  32.869  1.00  0.00     0.096 N 
HETATM    3  C1  UNK     1      16.872   6.775  34.204  1.00  0.00     0.303 C 
HETATM    4  C3  UNK     1      15.517   7.489  34.173  1.00  0.00     0.303 C 
HETATM    5  N2  UNK     1      15.530   8.595  33.208  1.00  0.00     0.096 N 
HETATM    6  C4  UNK     1      15.895   8.107  31.873  1.00  0.00     0.303 C 
HETATM    7  C2  UNK     1      17.250   7.393  31.905  1.00  0.00     0.303 C 
BRANCH   5   8
HETATM    8  C6  UNK     1      14.236   9.274  33.178  1.00  0.00     0.311 C 
BRANCH   8   9
HETATM    9  C8  UNK     1      14.384  10.769  33.267  1.00  0.00    -0.030 A 
HETATM   10  C11 UNK     1      15.465  11.323  33.952  1.00  0.00     0.015 A 
HETATM   11  C15 UNK     1      15.602  12.709  34.036  1.00  0.00    -0.061 A 
HETATM   12  C20 UNK     1      14.658  13.540  33.433  1.00  0.00     0.007 A 
HETATM   13  C22 UNK     1      16.757  13.302  34.770  1.00  0.00     0.048 C 
HETATM   14  C17 UNK     1      13.577  12.986  32.748  1.00  0.00     0.001 A 
HETATM   15  C12 UNK     1      13.440  11.601  32.665  1.00  0.00     0.009 A 
ENDBRANCH   8   9
ENDBRANCH   5   8
ENDBRANCH   1   2
BRANCH   1  16
HETATM   16  C7  UNK     1      18.464   4.247  32.292  1.00  0.00    -0.011 A 
HETATM   17  C10 UNK     1      18.467   4.081  30.962  1.00  0.00     0.092 A 
HETATM   18  C16 UNK     1      18.403   2.759  30.317  1.00  0.00     0.288 A 
HETATM   19  O1  UNK     1      18.339   1.658  31.157  1.00  0.00    -0.275 OA
HETATM   20  O3  UNK     1      18.408   2.646  29.096  1.00  0.00    -0.260 OA
HETATM   21  C13 UNK     1      18.333   1.801  32.560  1.00  0.00     0.090 A 
HETATM   22  C9  UNK     1      18.393   3.061  33.157  1.00  0.00     0.009 A 
HETATM   23  C18 UNK     1      18.264   0.624  33.308  1.00  0.00     0.041 A 
HETATM   24  C14 UNK     1      18.382   3.118  34.557  1.00  0.00     0.051 A 
HETATM   25  C19 UNK     1      18.313   1.947  35.320  1.00  0.00     0.069 A 
HETATM   26  C21 UNK     1      18.255   0.701  34.696  1.00  0.00     0.039 A 
BRANCH  25  27
HETATM   27  O2  UNK     1      18.303   2.024  36.679  1.00  0.00    -0.351 OA
BRANCH  27  28
HETATM   28  C23 UNK     1      17.198   1.425  37.354  1.00  0.00     0.171 C 
HETATM   29  C24 UNK     1      17.692   0.244  38.161  1.00  0.00     0.034 C 
ENDBRANCH  27  28
ENDBRANCH  25  27
ENDBRANCH   1  16
TORSDOF 6
ENDMDL
