MODEL 1
REMARK VINA RESULT:      -7.9      0.000      0.000
REMARK  1 active torsions:
REMARK  status: ('A' for Active; 'I' for Inactive)
REMARK       I    between atoms: C6_10  and  N1_4 
REMARK    1  A    between atoms: C6_10  and  C7_11 
ROOT
HETATM    1  O2  UNK     1      10.709   5.523   9.314  1.00  0.00    -0.274 OA
HETATM    2  O3  UNK     1      12.282   5.129  10.922  1.00  0.00    -0.259 OA
HETATM    3  C7  UNK     1      13.078   5.879   8.819  1.00  0.00     0.108 A 
HETATM    4  C8  UNK     1      12.788   6.263   7.571  1.00  0.00     0.037 A 
HETATM    5  C9  UNK     1      11.407   6.298   7.116  1.00  0.00    -0.001 A 
HETATM    6  C10 UNK     1      12.021   5.480   9.776  1.00  0.00     0.304 A 
HETATM    7  C11 UNK     1      10.398   5.927   8.000  1.00  0.00     0.089 A 
HETATM    8  C12 UNK     1      11.057   6.691   5.823  1.00  0.00     0.014 A 
HETATM    9  C13 UNK     1       9.055   5.938   7.627  1.00  0.00     0.038 A 
HETATM   10  C14 UNK     1       9.715   6.708   5.434  1.00  0.00     0.001 A 
HETATM   11  C15 UNK     1       8.716   6.332   6.335  1.00  0.00     0.003 A 
ENDROOT
BRANCH   3  12
HETATM   12  C6  UNK     1      14.508   5.878   9.187  1.00  0.00     0.259 C 
HETATM   13  N1  UNK     1      14.988   6.950   9.937  1.00  0.00    -0.348 N 
HETATM   14  C4  UNK     1      16.403   6.973  10.319  1.00  0.00     0.126 C 
HETATM   15  C5  UNK     1      14.195   8.080  10.442  1.00  0.00     0.126 C 
HETATM   16  C2  UNK     1      17.068   8.285   9.917  1.00  0.00     0.020 C 
HETATM   17  C1  UNK     1      16.300   9.480  10.475  1.00  0.00     0.003 C 
HETATM   18  C3  UNK     1      14.832   9.417  10.061  1.00  0.00     0.020 C 
HETATM   19  O1  UNK     1      15.191   4.924   8.809  1.00  0.00    -0.267 OA
ENDBRANCH   3  12
TORSDOF 1
ENDMDL
MODEL 2
REMARK VINA RESULT:      -7.8      1.283      2.131
REMARK  1 active torsions:
REMARK  status: ('A' for Active; 'I' for Inactive)
REMARK       I    between atoms: C6_10  and  N1_4 
REMARK    1  A    between atoms: C6_10  and  C7_11 
ROOT
HETATM    1  O2  UNK     1      11.725   6.736   6.485  1.00  0.00    -0.274 OA
HETATM    2  O3  UNK     1      13.998   6.948   6.415  1.00  0.00    -0.259 OA
HETATM    3  C7  UNK     1      13.072   6.096   8.423  1.00  0.00     0.108 A 
HETATM    4  C8  UNK     1      11.975   5.743   9.103  1.00  0.00     0.037 A 
HETATM    5  C9  UNK     1      10.661   5.872   8.494  1.00  0.00    -0.001 A 
HETATM    6  C10 UNK     1      12.995   6.624   7.042  1.00  0.00     0.304 A 
HETATM    7  C11 UNK     1      10.567   6.366   7.197  1.00  0.00     0.089 A 
HETATM    8  C12 UNK     1       9.490   5.517   9.166  1.00  0.00     0.014 A 
HETATM    9  C13 UNK     1       9.338   6.513   6.554  1.00  0.00     0.038 A 
HETATM   10  C14 UNK     1       8.251   5.659   8.536  1.00  0.00     0.001 A 
HETATM   11  C15 UNK     1       8.175   6.155   7.233  1.00  0.00     0.003 A 
ENDROOT
BRANCH   3  12
HETATM   12  C6  UNK     1      14.359   5.928   9.127  1.00  0.00     0.259 C 
HETATM   13  N1  UNK     1      14.908   7.044   9.756  1.00  0.00    -0.348 N 
HETATM   14  C4  UNK     1      16.182   6.905  10.467  1.00  0.00     0.126 C 
HETATM   15  C5  UNK     1      14.307   8.385   9.825  1.00  0.00     0.126 C 
HETATM   16  C2  UNK     1      17.196   7.945  10.001  1.00  0.00     0.020 C 
HETATM   17  C1  UNK     1      16.624   9.355  10.113  1.00  0.00     0.003 C 
HETATM   18  C3  UNK     1      15.296   9.458   9.368  1.00  0.00     0.020 C 
HETATM   19  O1  UNK     1      14.869   4.806   9.119  1.00  0.00    -0.267 OA
ENDBRANCH   3  12
TORSDOF 1
ENDMDL
MODEL 3
REMARK VINA RESULT:      -7.8     11.553     13.819
REMARK  1 active torsions:
REMARK  status: ('A' for Active; 'I' for Inactive)
REMARK       I    between atoms: C6_10  and  N1_4 
REMARK    1  A    between atoms: C6_10  and  C7_11 
ROOT
HETATM    1  O2  UNK     1      19.362   0.959  15.163  1.00  0.00    -0.274 OA
HETATM    2  O3  UNK     1      19.315  -0.697  13.590  1.00  0.00    -0.259 OA
HETATM    3  C7  UNK     1      18.881  -1.345  15.827  1.00  0.00     0.108 A 
HETATM    4  C8  UNK     1      18.754  -0.978  17.108  1.00  0.00     0.037 A 
HETATM    5  C9  UNK     1      18.930   0.413  17.493  1.00  0.00    -0.001 A 
HETATM    6  C10 UNK     1      19.199  -0.365  14.765  1.00  0.00     0.304 A 
HETATM    7  C11 UNK     1      19.230   1.350  16.510  1.00  0.00     0.089 A 
HETATM    8  C12 UNK     1      18.809   0.841  18.817  1.00  0.00     0.014 A 
HETATM    9  C13 UNK     1      19.410   2.699  16.812  1.00  0.00     0.038 A 
HETATM   10  C14 UNK     1      18.986   2.190  19.136  1.00  0.00     0.001 A 
HETATM   11  C15 UNK     1      19.286   3.116  18.136  1.00  0.00     0.003 A 
ENDROOT
BRANCH   3  12
HETATM   12  C6  UNK     1      18.683  -2.780  15.536  1.00  0.00     0.259 C 
HETATM   13  N1  UNK     1      19.668  -3.671  15.958  1.00  0.00    -0.348 N 
HETATM   14  C4  UNK     1      19.496  -5.101  15.687  1.00  0.00     0.126 C 
HETATM   15  C5  UNK     1      20.885  -3.329  16.709  1.00  0.00     0.126 C 
HETATM   16  C2  UNK     1      20.715  -5.685  14.981  1.00  0.00     0.020 C 
HETATM   17  C1  UNK     1      21.992  -5.396  15.766  1.00  0.00     0.003 C 
HETATM   18  C3  UNK     1      22.132  -3.900  16.034  1.00  0.00     0.020 C 
HETATM   19  O1  UNK     1      17.654  -3.102  14.941  1.00  0.00    -0.267 OA
ENDBRANCH   3  12
TORSDOF 1
ENDMDL
MODEL 4
REMARK VINA RESULT:      -7.7      1.787      2.030
REMARK  1 active torsions:
REMARK  status: ('A' for Active; 'I' for Inactive)
REMARK       I    between atoms: C6_10  and  N1_4 
REMARK    1  A    between atoms: C6_10  and  C7_11 
ROOT
HETATM    1  O2  UNK     1      11.268   7.447   9.640  1.00  0.00    -0.274 OA
HETATM    2  O3  UNK     1      12.753   8.118  11.241  1.00  0.00    -0.259 OA
HETATM    3  C7  UNK     1      13.658   7.543   9.128  1.00  0.00     0.108 A 
HETATM    4  C8  UNK     1      13.435   7.122   7.877  1.00  0.00     0.037 A 
HETATM    5  C9  UNK     1      12.081   6.832   7.432  1.00  0.00    -0.001 A 
HETATM    6  C10 UNK     1      12.552   7.731  10.095  1.00  0.00     0.304 A 
HETATM    7  C11 UNK     1      11.028   7.002   8.325  1.00  0.00     0.089 A 
HETATM    8  C12 UNK     1      11.801   6.390   6.137  1.00  0.00     0.014 A 
HETATM    9  C13 UNK     1       9.707   6.743   7.961  1.00  0.00     0.038 A 
HETATM   10  C14 UNK     1      10.483   6.126   5.757  1.00  0.00     0.001 A 
HETATM   11  C15 UNK     1       9.438   6.302   6.667  1.00  0.00     0.003 A 
ENDROOT
BRANCH   3  12
HETATM   12  C6  UNK     1      15.066   7.811   9.485  1.00  0.00     0.259 C 
HETATM   13  N1  UNK     1      15.497   9.136   9.478  1.00  0.00    -0.348 N 
HETATM   14  C4  UNK     1      16.888   9.432   9.833  1.00  0.00     0.126 C 
HETATM   15  C5  UNK     1      14.672  10.317   9.185  1.00  0.00     0.126 C 
HETATM   16  C2  UNK     1      17.569  10.279   8.763  1.00  0.00     0.020 C 
HETATM   17  C1  UNK     1      16.765  11.544   8.475  1.00  0.00     0.003 C 
HETATM   18  C3  UNK     1      15.322  11.196   8.116  1.00  0.00     0.020 C 
HETATM   19  O1  UNK     1      15.772   6.844   9.773  1.00  0.00    -0.267 OA
ENDBRANCH   3  12
TORSDOF 1
ENDMDL
MODEL 5
REMARK VINA RESULT:      -7.6      1.814      6.132
REMARK  1 active torsions:
REMARK  status: ('A' for Active; 'I' for Inactive)
REMARK       I    between atoms: C6_10  and  N1_4 
REMARK    1  A    between atoms: C6_10  and  C7_11 
ROOT
HETATM    1  O2  UNK     1      14.469   6.740  10.345  1.00  0.00    -0.274 OA
HETATM    2  O3  UNK     1      12.528   5.550  10.527  1.00  0.00    -0.259 OA
HETATM    3  C7  UNK     1      12.391   7.642   9.423  1.00  0.00     0.108 A 
HETATM    4  C8  UNK     1      13.025   8.741   8.998  1.00  0.00     0.037 A 
HETATM    5  C9  UNK     1      14.452   8.902   9.231  1.00  0.00    -0.001 A 
HETATM    6  C10 UNK     1      13.105   6.559  10.137  1.00  0.00     0.304 A 
HETATM    7  C11 UNK     1      15.141   7.896   9.900  1.00  0.00     0.089 A 
HETATM    8  C12 UNK     1      15.154  10.032   8.807  1.00  0.00     0.014 A 
HETATM    9  C13 UNK     1      16.509   7.988  10.155  1.00  0.00     0.038 A 
HETATM   10  C14 UNK     1      16.525  10.139   9.055  1.00  0.00     0.001 A 
HETATM   11  C15 UNK     1      17.200   9.119   9.727  1.00  0.00     0.003 A 
ENDROOT
BRANCH   3  12
HETATM   12  C6  UNK     1      10.944   7.571   9.137  1.00  0.00     0.259 C 
HETATM   13  N1  UNK     1      10.522   6.713   8.124  1.00  0.00    -0.348 N 
HETATM   14  C4  UNK     1       9.091   6.619   7.823  1.00  0.00     0.126 C 
HETATM   15  C5  UNK     1      11.379   5.827   7.323  1.00  0.00     0.126 C 
HETATM   16  C2  UNK     1       8.818   6.847   6.339  1.00  0.00     0.020 C 
HETATM   17  C1  UNK     1       9.652   5.901   5.479  1.00  0.00     0.003 C 
HETATM   18  C3  UNK     1      11.133   6.023   5.827  1.00  0.00     0.020 C 
HETATM   19  O1  UNK     1      10.196   8.275   9.819  1.00  0.00    -0.267 OA
ENDBRANCH   3  12
TORSDOF 1
ENDMDL
MODEL 6
REMARK VINA RESULT:      -7.6     21.861     23.672
REMARK  1 active torsions:
REMARK  status: ('A' for Active; 'I' for Inactive)
REMARK       I    between atoms: C6_10  and  N1_4 
REMARK    1  A    between atoms: C6_10  and  C7_11 
ROOT
HETATM    1  O2  UNK     1      18.936   1.755  28.616  1.00  0.00    -0.274 OA
HETATM    2  O3  UNK     1      18.131   3.893  28.649  1.00  0.00    -0.259 OA
HETATM    3  C7  UNK     1      18.670   2.928  30.745  1.00  0.00     0.108 A 
HETATM    4  C8  UNK     1      19.128   1.866  31.419  1.00  0.00     0.037 A 
HETATM    5  C9  UNK     1      19.524   0.662  30.707  1.00  0.00    -0.001 A 
HETATM    6  C10 UNK     1      18.549   2.921  29.270  1.00  0.00     0.304 A 
HETATM    7  C11 UNK     1      19.419   0.634  29.320  1.00  0.00     0.089 A 
HETATM    8  C12 UNK     1      20.007  -0.470  31.368  1.00  0.00     0.014 A 
HETATM    9  C13 UNK     1      19.782  -0.489  28.578  1.00  0.00     0.038 A 
HETATM   10  C14 UNK     1      20.375  -1.603  30.638  1.00  0.00     0.001 A 
HETATM   11  C15 UNK     1      20.263  -1.613  29.246  1.00  0.00     0.003 A 
ENDROOT
BRANCH   3  12
HETATM   12  C6  UNK     1      18.294   4.103  31.557  1.00  0.00     0.259 C 
HETATM   13  N1  UNK     1      19.178   5.179  31.591  1.00  0.00    -0.348 N 
HETATM   14  C4  UNK     1      18.829   6.361  32.385  1.00  0.00     0.126 C 
HETATM   15  C5  UNK     1      20.449   5.283  30.859  1.00  0.00     0.126 C 
HETATM   16  C2  UNK     1      19.948   6.734  33.352  1.00  0.00     0.020 C 
HETATM   17  C1  UNK     1      21.274   6.905  32.614  1.00  0.00     0.003 C 
HETATM   18  C3  UNK     1      21.599   5.658  31.795  1.00  0.00     0.020 C 
HETATM   19  O1  UNK     1      17.216   4.062  32.152  1.00  0.00    -0.267 OA
ENDBRANCH   3  12
TORSDOF 1
ENDMDL
MODEL 7
REMARK VINA RESULT:      -7.6     24.567     26.668
REMARK  1 active torsions:
REMARK  status: ('A' for Active; 'I' for Inactive)
REMARK       I    between atoms: C6_10  and  N1_4 
REMARK    1  A    between atoms: C6_10  and  C7_11 
ROOT
HETATM    1  O2  UNK     1      20.519  -2.447  31.692  1.00  0.00    -0.274 OA
HETATM    2  O3  UNK     1      20.646  -3.430  33.750  1.00  0.00    -0.259 OA
HETATM    3  C7  UNK     1      19.589  -1.311  33.648  1.00  0.00     0.108 A 
HETATM    4  C8  UNK     1      19.199  -0.276  32.895  1.00  0.00     0.037 A 
HETATM    5  C9  UNK     1      19.455  -0.272  31.463  1.00  0.00    -0.001 A 
HETATM    6  C10 UNK     1      20.287  -2.479  33.063  1.00  0.00     0.304 A 
HETATM    7  C11 UNK     1      20.110  -1.360  30.894  1.00  0.00     0.089 A 
HETATM    8  C12 UNK     1      19.067   0.786  30.639  1.00  0.00     0.014 A 
HETATM    9  C13 UNK     1      20.386  -1.419  29.529  1.00  0.00     0.038 A 
HETATM   10  C14 UNK     1      19.337   0.742  29.269  1.00  0.00     0.001 A 
HETATM   11  C15 UNK     1      19.995  -0.358  28.715  1.00  0.00     0.003 A 
ENDROOT
BRANCH   3  12
HETATM   12  C6  UNK     1      19.282  -1.222  35.089  1.00  0.00     0.259 C 
HETATM   13  N1  UNK     1      17.954  -1.028  35.461  1.00  0.00    -0.348 N 
HETATM   14  C4  UNK     1      17.619  -0.940  36.885  1.00  0.00     0.126 C 
HETATM   15  C5  UNK     1      16.801  -0.940  34.552  1.00  0.00     0.126 C 
HETATM   16  C2  UNK     1      16.819   0.321  37.193  1.00  0.00     0.020 C 
HETATM   17  C1  UNK     1      15.582   0.414  36.304  1.00  0.00     0.003 C 
HETATM   18  C3  UNK     1      15.970   0.312  34.831  1.00  0.00     0.020 C 
HETATM   19  O1  UNK     1      20.223  -1.330  35.878  1.00  0.00    -0.267 OA
ENDBRANCH   3  12
TORSDOF 1
ENDMDL
MODEL 8
REMARK VINA RESULT:      -7.6     24.495     26.682
REMARK  1 active torsions:
REMARK  status: ('A' for Active; 'I' for Inactive)
REMARK       I    between atoms: C6_10  and  N1_4 
REMARK    1  A    between atoms: C6_10  and  C7_11 
ROOT
HETATM    1  O2  UNK     1      18.950   1.415  31.334  1.00  0.00    -0.274 OA
HETATM    2  O3  UNK     1      17.792   2.445  33.012  1.00  0.00    -0.259 OA
HETATM    3  C7  UNK     1      18.187   0.122  33.265  1.00  0.00     0.108 A 
HETATM    4  C8  UNK     1      18.722  -0.996  32.762  1.00  0.00     0.037 A 
HETATM    5  C9  UNK     1      19.417  -0.967  31.485  1.00  0.00    -0.001 A 
HETATM    6  C10 UNK     1      18.280   1.417  32.554  1.00  0.00     0.304 A 
HETATM    7  C11 UNK     1      19.515   0.240  30.800  1.00  0.00     0.089 A 
HETATM    8  C12 UNK     1      19.989  -2.110  30.921  1.00  0.00     0.014 A 
HETATM    9  C13 UNK     1      20.168   0.336  29.572  1.00  0.00     0.038 A 
HETATM   10  C14 UNK     1      20.646  -2.029  29.691  1.00  0.00     0.001 A 
HETATM   11  C15 UNK     1      20.735  -0.809  29.018  1.00  0.00     0.003 A 
ENDROOT
BRANCH   3  12
HETATM   12  C6  UNK     1      17.504  -0.009  34.568  1.00  0.00     0.259 C 
HETATM   13  N1  UNK     1      18.245  -0.488  35.646  1.00  0.00    -0.348 N 
HETATM   14  C4  UNK     1      17.594  -0.625  36.952  1.00  0.00     0.126 C 
HETATM   15  C5  UNK     1      19.672  -0.845  35.629  1.00  0.00     0.126 C 
HETATM   16  C2  UNK     1      17.778  -2.027  37.523  1.00  0.00     0.020 C 
HETATM   17  C1  UNK     1      19.255  -2.407  37.572  1.00  0.00     0.003 C 
HETATM   18  C3  UNK     1      19.899  -2.246  36.198  1.00  0.00     0.020 C 
HETATM   19  O1  UNK     1      16.317   0.318  34.622  1.00  0.00    -0.267 OA
ENDBRANCH   3  12
TORSDOF 1
ENDMDL
MODEL 9
REMARK VINA RESULT:      -7.4      1.966      5.957
REMARK  1 active torsions:
REMARK  status: ('A' for Active; 'I' for Inactive)
REMARK       I    between atoms: C6_10  and  N1_4 
REMARK    1  A    between atoms: C6_10  and  C7_11 
ROOT
HETATM    1  O2  UNK     1      14.020   7.054  10.703  1.00  0.00    -0.274 OA
HETATM    2  O3  UNK     1      12.411   5.470  10.362  1.00  0.00    -0.259 OA
HETATM    3  C7  UNK     1      12.758   7.026   8.609  1.00  0.00     0.108 A 
HETATM    4  C8  UNK     1      13.435   8.087   8.154  1.00  0.00     0.037 A 
HETATM    5  C9  UNK     1      14.467   8.704   8.972  1.00  0.00    -0.001 A 
HETATM    6  C10 UNK     1      13.028   6.443   9.943  1.00  0.00     0.304 A 
HETATM    7  C11 UNK     1      14.736   8.172  10.230  1.00  0.00     0.089 A 
HETATM    8  C12 UNK     1      15.197   9.812   8.540  1.00  0.00     0.014 A 
HETATM    9  C13 UNK     1      15.713   8.716  11.063  1.00  0.00     0.038 A 
HETATM   10  C14 UNK     1      16.180  10.369   9.364  1.00  0.00     0.001 A 
HETATM   11  C15 UNK     1      16.436   9.821  10.622  1.00  0.00     0.003 A 
ENDROOT
BRANCH   3  12
HETATM   12  C6  UNK     1      11.731   6.470   7.704  1.00  0.00     0.259 C 
HETATM   13  N1  UNK     1      10.437   6.975   7.802  1.00  0.00    -0.348 N 
HETATM   14  C4  UNK     1       9.398   6.445   6.913  1.00  0.00     0.126 C 
HETATM   15  C5  UNK     1       9.988   8.049   8.701  1.00  0.00     0.126 C 
HETATM   16  C2  UNK     1       8.176   5.979   7.699  1.00  0.00     0.020 C 
HETATM   17  C1  UNK     1       7.651   7.092   8.602  1.00  0.00     0.003 C 
HETATM   18  C3  UNK     1       8.761   7.621   9.506  1.00  0.00     0.020 C 
HETATM   19  O1  UNK     1      12.085   5.595   6.913  1.00  0.00    -0.267 OA
ENDBRANCH   3  12
TORSDOF 1
ENDMDL
MODEL 10
REMARK VINA RESULT:      -7.4     23.517     25.714
REMARK  1 active torsions:
REMARK  status: ('A' for Active; 'I' for Inactive)
REMARK       I    between atoms: C6_10  and  N1_4 
REMARK    1  A    between atoms: C6_10  and  C7_11 
ROOT
HETATM    1  O2  UNK     1      14.074   9.273  34.645  1.00  0.00    -0.274 OA
HETATM    2  O3  UNK     1      14.062   7.404  33.333  1.00  0.00    -0.259 OA
HETATM    3  C7  UNK     1      15.915   8.860  33.089  1.00  0.00     0.108 A 
HETATM    4  C8  UNK     1      16.526   9.989  33.469  1.00  0.00     0.037 A 
HETATM    5  C9  UNK     1      15.926  10.842  34.483  1.00  0.00    -0.001 A 
HETATM    6  C10 UNK     1      14.624   8.438  33.677  1.00  0.00     0.304 A 
HETATM    7  C11 UNK     1      14.712  10.463  35.048  1.00  0.00     0.089 A 
HETATM    8  C12 UNK     1      16.526  12.028  34.909  1.00  0.00     0.014 A 
HETATM    9  C13 UNK     1      14.084  11.235  36.025  1.00  0.00     0.038 A 
HETATM   10  C14 UNK     1      15.909  12.813  35.888  1.00  0.00     0.001 A 
HETATM   11  C15 UNK     1      14.691  12.417  36.444  1.00  0.00     0.003 A 
ENDROOT
BRANCH   3  12
HETATM   12  C6  UNK     1      16.604   8.063  32.055  1.00  0.00     0.259 C 
HETATM   13  N1  UNK     1      17.537   7.118  32.476  1.00  0.00    -0.348 N 
HETATM   14  C4  UNK     1      18.233   6.309  31.471  1.00  0.00     0.126 C 
HETATM   15  C5  UNK     1      17.885   6.802  33.869  1.00  0.00     0.126 C 
HETATM   16  C2  UNK     1      19.746   6.378  31.649  1.00  0.00     0.020 C 
HETATM   17  C1  UNK     1      20.146   5.999  33.072  1.00  0.00     0.003 C 
HETATM   18  C3  UNK     1      19.398   6.858  34.088  1.00  0.00     0.020 C 
HETATM   19  O1  UNK     1      16.305   8.278  30.879  1.00  0.00    -0.267 OA
ENDBRANCH   3  12
TORSDOF 1
ENDMDL
