MODEL 1
REMARK VINA RESULT:      -8.7      0.000      0.000
REMARK  5 active torsions:
REMARK  status: ('A' for Active; 'I' for Inactive)
REMARK    1  A    between atoms: C1_4  and  N1_3 
REMARK       I    between atoms: C5_8  and  N1_3 
REMARK    2  A    between atoms: C1_4  and  C2_5 
REMARK    3  A    between atoms: C4_7  and  C5_8 
REMARK    4  A    between atoms: C4_7  and  C8_11 
REMARK    5  A    between atoms: C10_13  and  C9_12 
ROOT
HETATM    1  C4  UNK     1      19.954  -4.740  37.262  1.00  0.00     0.043 C 
HETATM    2  C9  UNK     1      20.748  -5.082  38.297  1.00  0.00     0.031 C 
ENDROOT
BRANCH   1   3
HETATM    3  C5  UNK     1      19.945  -3.279  36.887  1.00  0.00     0.253 C 
HETATM    4  O1  UNK     1      20.397  -2.417  37.640  1.00  0.00    -0.268 OA
HETATM    5  N1  UNK     1      19.386  -3.012  35.648  1.00  0.00    -0.349 N 
HETATM    6  H2  UNK     1      19.066  -3.769  35.051  1.00  0.00     0.163 HD
BRANCH   5   7
HETATM    7  C1  UNK     1      19.282  -1.671  35.122  1.00  0.00     0.114 C 
HETATM    8  C3  UNK     1      17.911  -1.083  35.450  1.00  0.00     0.037 C 
BRANCH   7   9
HETATM    9  C2  UNK     1      19.592  -1.633  33.640  1.00  0.00    -0.036 A 
HETATM   10  C6  UNK     1      18.903  -0.748  32.829  1.00  0.00     0.009 A 
HETATM   11  C11 UNK     1      19.188  -0.711  31.464  1.00  0.00     0.001 A 
HETATM   12  C15 UNK     1      20.158  -1.561  30.932  1.00  0.00     0.000 A 
HETATM   13  C12 UNK     1      20.843  -2.446  31.765  1.00  0.00     0.001 A 
HETATM   14  C7  UNK     1      20.557  -2.482  33.129  1.00  0.00     0.009 A 
ENDBRANCH   7   9
ENDBRANCH   5   7
ENDBRANCH   1   3
BRANCH   1  15
HETATM   15  C8  UNK     1      19.155  -5.737  36.524  1.00  0.00    -0.021 A 
HETATM   16  C13 UNK     1      19.768  -6.514  35.556  1.00  0.00     0.012 A 
HETATM   17  C18 UNK     1      19.012  -7.458  34.860  1.00  0.00     0.001 A 
HETATM   18  C20 UNK     1      17.655  -7.610  35.142  1.00  0.00     0.000 A 
HETATM   19  C19 UNK     1      17.053  -6.819  36.122  1.00  0.00     0.001 A 
HETATM   20  C14 UNK     1      17.809  -5.876  36.818  1.00  0.00     0.012 A 
ENDBRANCH   1  15
BRANCH   2  21
HETATM   21  C10 UNK     1      20.943  -6.443  38.818  1.00  0.00    -0.013 A 
HETATM   22  C16 UNK     1      22.196  -6.915  39.183  1.00  0.00     0.044 A 
HETATM   23 Cl1  UNK     1      23.623  -5.946  39.054  1.00  0.00    -0.083 Cl
HETATM   24  C21 UNK     1      22.327  -8.215  39.671  1.00  0.00     0.024 A 
HETATM   25  C23 UNK     1      21.202  -9.032  39.792  1.00  0.00     0.002 A 
HETATM   26  C22 UNK     1      19.947  -8.548  39.423  1.00  0.00     0.001 A 
HETATM   27  C17 UNK     1      19.816  -7.248  38.935  1.00  0.00     0.013 A 
ENDBRANCH   2  21
TORSDOF 5
ENDMDL
MODEL 2
REMARK VINA RESULT:      -8.7     10.596     12.339
REMARK  5 active torsions:
REMARK  status: ('A' for Active; 'I' for Inactive)
REMARK    1  A    between atoms: C1_4  and  N1_3 
REMARK       I    between atoms: C5_8  and  N1_3 
REMARK    2  A    between atoms: C1_4  and  C2_5 
REMARK    3  A    between atoms: C4_7  and  C5_8 
REMARK    4  A    between atoms: C4_7  and  C8_11 
REMARK    5  A    between atoms: C10_13  and  C9_12 
ROOT
HETATM    1  C4  UNK     1      30.859  -6.231  33.805  1.00  0.00     0.043 C 
HETATM    2  C9  UNK     1      30.211  -6.995  34.708  1.00  0.00     0.031 C 
ENDROOT
BRANCH   1   3
HETATM    3  C5  UNK     1      30.084  -5.874  32.561  1.00  0.00     0.253 C 
HETATM    4  O1  UNK     1      30.055  -4.723  32.127  1.00  0.00    -0.268 OA
HETATM    5  N1  UNK     1      29.420  -6.941  31.979  1.00  0.00    -0.349 N 
HETATM    6  H2  UNK     1      29.513  -7.878  32.358  1.00  0.00     0.163 HD
BRANCH   5   7
HETATM    7  C1  UNK     1      28.619  -6.792  30.785  1.00  0.00     0.114 C 
HETATM    8  C3  UNK     1      27.144  -6.660  31.156  1.00  0.00     0.037 C 
BRANCH   7   9
HETATM    9  C2  UNK     1      28.874  -7.915  29.803  1.00  0.00    -0.036 A 
HETATM   10  C6  UNK     1      27.880  -8.850  29.574  1.00  0.00     0.009 A 
HETATM   11  C11 UNK     1      28.114  -9.886  28.669  1.00  0.00     0.001 A 
HETATM   12  C15 UNK     1      29.340  -9.970  28.008  1.00  0.00     0.000 A 
HETATM   13  C12 UNK     1      30.330  -9.018  28.251  1.00  0.00     0.001 A 
HETATM   14  C7  UNK     1      30.095  -7.983  29.156  1.00  0.00     0.009 A 
ENDBRANCH   7   9
ENDBRANCH   5   7
ENDBRANCH   1   3
BRANCH   1  15
HETATM   15  C8  UNK     1      32.238  -5.755  34.027  1.00  0.00    -0.021 A 
HETATM   16  C13 UNK     1      32.441  -4.526  34.631  1.00  0.00     0.012 A 
HETATM   17  C18 UNK     1      33.745  -4.077  34.841  1.00  0.00     0.001 A 
HETATM   18  C20 UNK     1      34.826  -4.863  34.444  1.00  0.00     0.000 A 
HETATM   19  C19 UNK     1      34.603  -6.100  33.836  1.00  0.00     0.001 A 
HETATM   20  C14 UNK     1      33.299  -6.549  33.626  1.00  0.00     0.012 A 
ENDBRANCH   1  15
BRANCH   2  21
HETATM   21  C10 UNK     1      30.749  -7.439  36.003  1.00  0.00    -0.013 A 
HETATM   22  C16 UNK     1      30.644  -6.659  37.146  1.00  0.00     0.044 A 
HETATM   23 Cl1  UNK     1      29.875  -5.110  37.142  1.00  0.00    -0.083 Cl
HETATM   24  C21 UNK     1      31.172  -7.126  38.350  1.00  0.00     0.024 A 
HETATM   25  C23 UNK     1      31.802  -8.371  38.399  1.00  0.00     0.002 A 
HETATM   26  C22 UNK     1      31.903  -9.147  37.245  1.00  0.00     0.001 A 
HETATM   27  C17 UNK     1      31.374  -8.680  36.041  1.00  0.00     0.013 A 
ENDBRANCH   2  21
TORSDOF 5
ENDMDL
MODEL 3
REMARK VINA RESULT:      -8.6     10.200     12.115
REMARK  5 active torsions:
REMARK  status: ('A' for Active; 'I' for Inactive)
REMARK    1  A    between atoms: C1_4  and  N1_3 
REMARK       I    between atoms: C5_8  and  N1_3 
REMARK    2  A    between atoms: C1_4  and  C2_5 
REMARK    3  A    between atoms: C4_7  and  C5_8 
REMARK    4  A    between atoms: C4_7  and  C8_11 
REMARK    5  A    between atoms: C10_13  and  C9_12 
ROOT
HETATM    1  C4  UNK     1      31.461  -6.127  34.433  1.00  0.00     0.043 C 
HETATM    2  C9  UNK     1      30.273  -5.992  35.058  1.00  0.00     0.031 C 
ENDROOT
BRANCH   1   3
HETATM    3  C5  UNK     1      31.404  -6.341  32.941  1.00  0.00     0.253 C 
HETATM    4  O1  UNK     1      32.156  -7.132  32.374  1.00  0.00    -0.268 OA
HETATM    5  N1  UNK     1      30.452  -5.573  32.291  1.00  0.00    -0.349 N 
HETATM    6  H2  UNK     1      29.830  -4.967  32.816  1.00  0.00     0.163 HD
BRANCH   5   7
HETATM    7  C1  UNK     1      30.255  -5.636  30.862  1.00  0.00     0.114 C 
HETATM    8  C3  UNK     1      29.885  -4.257  30.321  1.00  0.00     0.037 C 
BRANCH   7   9
HETATM    9  C2  UNK     1      29.243  -6.698  30.488  1.00  0.00    -0.036 A 
HETATM   10  C6  UNK     1      27.915  -6.515  30.832  1.00  0.00     0.009 A 
HETATM   11  C11 UNK     1      26.981  -7.493  30.488  1.00  0.00     0.001 A 
HETATM   12  C15 UNK     1      27.391  -8.639  29.805  1.00  0.00     0.000 A 
HETATM   13  C12 UNK     1      28.734  -8.805  29.466  1.00  0.00     0.001 A 
HETATM   14  C7  UNK     1      29.667  -7.828  29.811  1.00  0.00     0.009 A 
ENDBRANCH   7   9
ENDBRANCH   5   7
ENDBRANCH   1   3
BRANCH   1  15
HETATM   15  C8  UNK     1      32.742  -6.049  35.160  1.00  0.00    -0.021 A 
HETATM   16  C13 UNK     1      33.515  -4.906  35.050  1.00  0.00     0.012 A 
HETATM   17  C18 UNK     1      34.726  -4.833  35.739  1.00  0.00     0.001 A 
HETATM   18  C20 UNK     1      35.146  -5.904  36.527  1.00  0.00     0.000 A 
HETATM   19  C19 UNK     1      34.354  -7.049  36.628  1.00  0.00     0.001 A 
HETATM   20  C14 UNK     1      33.143  -7.122  35.939  1.00  0.00     0.012 A 
ENDBRANCH   1  15
BRANCH   2  21
HETATM   21  C10 UNK     1      30.081  -5.743  36.494  1.00  0.00    -0.013 A 
HETATM   22  C16 UNK     1      29.664  -6.744  37.361  1.00  0.00     0.044 A 
HETATM   23 Cl1  UNK     1      29.338  -8.355  36.825  1.00  0.00    -0.083 Cl
HETATM   24  C21 UNK     1      29.496  -6.456  38.716  1.00  0.00     0.024 A 
HETATM   25  C23 UNK     1      29.748  -5.169  39.192  1.00  0.00     0.002 A 
HETATM   26  C22 UNK     1      30.166  -4.170  38.314  1.00  0.00     0.001 A 
HETATM   27  C17 UNK     1      30.334  -4.458  36.959  1.00  0.00     0.013 A 
ENDBRANCH   2  21
TORSDOF 5
ENDMDL
MODEL 4
REMARK VINA RESULT:      -8.5      7.493     10.908
REMARK  5 active torsions:
REMARK  status: ('A' for Active; 'I' for Inactive)
REMARK    1  A    between atoms: C1_4  and  N1_3 
REMARK       I    between atoms: C5_8  and  N1_3 
REMARK    2  A    between atoms: C1_4  and  C2_5 
REMARK    3  A    between atoms: C4_7  and  C5_8 
REMARK    4  A    between atoms: C4_7  and  C8_11 
REMARK    5  A    between atoms: C10_13  and  C9_12 
ROOT
HETATM    1  C4  UNK     1      18.440   4.337  31.905  1.00  0.00     0.043 C 
HETATM    2  C9  UNK     1      18.138   5.651  31.860  1.00  0.00     0.031 C 
ENDROOT
BRANCH   1   3
HETATM    3  C5  UNK     1      18.794   3.692  30.589  1.00  0.00     0.253 C 
HETATM    4  O1  UNK     1      18.994   4.360  29.576  1.00  0.00    -0.268 OA
HETATM    5  N1  UNK     1      18.862   2.309  30.633  1.00  0.00    -0.349 N 
HETATM    6  H2  UNK     1      18.728   1.812  31.508  1.00  0.00     0.163 HD
BRANCH   5   7
HETATM    7  C1  UNK     1      19.179   1.515  29.469  1.00  0.00     0.114 C 
HETATM    8  C3  UNK     1      17.982   1.469  28.522  1.00  0.00     0.037 C 
BRANCH   7   9
HETATM    9  C2  UNK     1      19.669   0.136  29.856  1.00  0.00    -0.036 A 
HETATM   10  C6  UNK     1      20.170  -0.702  28.875  1.00  0.00     0.009 A 
HETATM   11  C11 UNK     1      20.621  -1.973  29.231  1.00  0.00     0.001 A 
HETATM   12  C15 UNK     1      20.564  -2.387  30.562  1.00  0.00     0.000 A 
HETATM   13  C12 UNK     1      20.056  -1.527  31.537  1.00  0.00     0.001 A 
HETATM   14  C7  UNK     1      19.605  -0.257  31.181  1.00  0.00     0.009 A 
ENDBRANCH   7   9
ENDBRANCH   5   7
ENDBRANCH   1   3
BRANCH   1  15
HETATM   15  C8  UNK     1      18.444   3.578  33.171  1.00  0.00    -0.021 A 
HETATM   16  C13 UNK     1      19.095   4.104  34.274  1.00  0.00     0.012 A 
HETATM   17  C18 UNK     1      19.098   3.386  35.470  1.00  0.00     0.001 A 
HETATM   18  C20 UNK     1      18.451   2.153  35.545  1.00  0.00     0.000 A 
HETATM   19  C19 UNK     1      17.799   1.638  34.423  1.00  0.00     0.001 A 
HETATM   20  C14 UNK     1      17.796   2.356  33.227  1.00  0.00     0.012 A 
ENDBRANCH   1  15
BRANCH   2  21
HETATM   21  C10 UNK     1      17.796   6.495  33.014  1.00  0.00    -0.013 A 
HETATM   22  C16 UNK     1      18.760   7.214  33.707  1.00  0.00     0.044 A 
HETATM   23 Cl1  UNK     1      20.433   7.176  33.271  1.00  0.00    -0.083 Cl
HETATM   24  C21 UNK     1      18.383   8.000  34.796  1.00  0.00     0.024 A 
HETATM   25  C23 UNK     1      17.043   8.061  35.182  1.00  0.00     0.002 A 
HETATM   26  C22 UNK     1      16.082   7.335  34.480  1.00  0.00     0.001 A 
HETATM   27  C17 UNK     1      16.459   6.549  33.390  1.00  0.00     0.013 A 
ENDBRANCH   2  21
TORSDOF 5
ENDMDL
MODEL 5
REMARK VINA RESULT:      -8.5      8.992     10.734
REMARK  5 active torsions:
REMARK  status: ('A' for Active; 'I' for Inactive)
REMARK    1  A    between atoms: C1_4  and  N1_3 
REMARK       I    between atoms: C5_8  and  N1_3 
REMARK    2  A    between atoms: C1_4  and  C2_5 
REMARK    3  A    between atoms: C4_7  and  C5_8 
REMARK    4  A    between atoms: C4_7  and  C8_11 
REMARK    5  A    between atoms: C10_13  and  C9_12 
ROOT
HETATM    1  C4  UNK     1      28.906  -7.379  34.385  1.00  0.00     0.043 C 
HETATM    2  C9  UNK     1      28.011  -6.916  35.282  1.00  0.00     0.031 C 
ENDROOT
BRANCH   1   3
HETATM    3  C5  UNK     1      28.832  -6.776  33.005  1.00  0.00     0.253 C 
HETATM    4  O1  UNK     1      29.385  -5.711  32.735  1.00  0.00    -0.268 OA
HETATM    5  N1  UNK     1      28.093  -7.519  32.098  1.00  0.00    -0.349 N 
HETATM    6  H2  UNK     1      27.692  -8.412  32.366  1.00  0.00     0.163 HD
BRANCH   5   7
HETATM    7  C1  UNK     1      27.903  -7.098  30.730  1.00  0.00     0.114 C 
HETATM    8  C3  UNK     1      26.417  -6.893  30.444  1.00  0.00     0.037 C 
BRANCH   7   9
HETATM    9  C2  UNK     1      28.555  -8.060  29.759  1.00  0.00    -0.036 A 
HETATM   10  C6  UNK     1      27.847  -9.169  29.330  1.00  0.00     0.009 A 
HETATM   11  C11 UNK     1      28.446 -10.056  28.436  1.00  0.00     0.001 A 
HETATM   12  C15 UNK     1      29.745  -9.819  27.985  1.00  0.00     0.000 A 
HETATM   13  C12 UNK     1      30.443  -8.695  28.427  1.00  0.00     0.001 A 
HETATM   14  C7  UNK     1      29.843  -7.809  29.321  1.00  0.00     0.009 A 
ENDBRANCH   7   9
ENDBRANCH   5   7
ENDBRANCH   1   3
BRANCH   1  15
HETATM   15  C8  UNK     1      29.912  -8.399  34.737  1.00  0.00    -0.021 A 
HETATM   16  C13 UNK     1      29.648  -9.731  34.468  1.00  0.00     0.012 A 
HETATM   17  C18 UNK     1      30.600 -10.695  34.800  1.00  0.00     0.001 A 
HETATM   18  C20 UNK     1      31.801 -10.313  35.396  1.00  0.00     0.000 A 
HETATM   19  C19 UNK     1      32.051  -8.966  35.660  1.00  0.00     0.001 A 
HETATM   20  C14 UNK     1      31.099  -8.001  35.328  1.00  0.00     0.012 A 
ENDBRANCH   1  15
BRANCH   2  21
HETATM   21  C10 UNK     1      27.913  -7.329  36.690  1.00  0.00    -0.013 A 
HETATM   22  C16 UNK     1      28.595  -6.661  37.698  1.00  0.00     0.044 A 
HETATM   23 Cl1  UNK     1      29.610  -5.297  37.381  1.00  0.00    -0.083 Cl
HETATM   24  C21 UNK     1      28.469  -7.093  39.018  1.00  0.00     0.024 A 
HETATM   25  C23 UNK     1      27.661  -8.190  39.319  1.00  0.00     0.002 A 
HETATM   26  C22 UNK     1      26.980  -8.855  38.300  1.00  0.00     0.001 A 
HETATM   27  C17 UNK     1      27.105  -8.422  36.979  1.00  0.00     0.013 A 
ENDBRANCH   2  21
TORSDOF 5
ENDMDL
MODEL 6
REMARK VINA RESULT:      -8.5      9.142     10.949
REMARK  5 active torsions:
REMARK  status: ('A' for Active; 'I' for Inactive)
REMARK    1  A    between atoms: C1_4  and  N1_3 
REMARK       I    between atoms: C5_8  and  N1_3 
REMARK    2  A    between atoms: C1_4  and  C2_5 
REMARK    3  A    between atoms: C4_7  and  C5_8 
REMARK    4  A    between atoms: C4_7  and  C8_11 
REMARK    5  A    between atoms: C10_13  and  C9_12 
ROOT
HETATM    1  C4  UNK     1      29.173  -6.998  34.389  1.00  0.00     0.043 C 
HETATM    2  C9  UNK     1      28.100  -6.906  35.201  1.00  0.00     0.031 C 
ENDROOT
BRANCH   1   3
HETATM    3  C5  UNK     1      28.987  -6.483  32.984  1.00  0.00     0.253 C 
HETATM    4  O1  UNK     1      29.487  -5.422  32.613  1.00  0.00    -0.268 OA
HETATM    5  N1  UNK     1      28.212  -7.299  32.177  1.00  0.00    -0.349 N 
HETATM    6  H2  UNK     1      27.859  -8.185  32.524  1.00  0.00     0.163 HD
BRANCH   5   7
HETATM    7  C1  UNK     1      27.917  -6.968  30.802  1.00  0.00     0.114 C 
HETATM    8  C3  UNK     1      26.407  -6.853  30.602  1.00  0.00     0.037 C 
BRANCH   7   9
HETATM    9  C2  UNK     1      28.557  -7.952  29.846  1.00  0.00    -0.036 A 
HETATM   10  C6  UNK     1      29.855  -7.732  29.419  1.00  0.00     0.009 A 
HETATM   11  C11 UNK     1      30.446  -8.638  28.538  1.00  0.00     0.001 A 
HETATM   12  C15 UNK     1      29.728  -9.750  28.097  1.00  0.00     0.000 A 
HETATM   13  C12 UNK     1      28.421  -9.956  28.539  1.00  0.00     0.001 A 
HETATM   14  C7  UNK     1      27.831  -9.050  29.419  1.00  0.00     0.009 A 
ENDBRANCH   7   9
ENDBRANCH   5   7
ENDBRANCH   1   3
BRANCH   1  15
HETATM   15  C8  UNK     1      30.460  -7.551  34.852  1.00  0.00    -0.021 A 
HETATM   16  C13 UNK     1      30.701  -8.908  34.721  1.00  0.00     0.012 A 
HETATM   17  C18 UNK     1      31.918  -9.430  35.158  1.00  0.00     0.001 A 
HETATM   18  C20 UNK     1      32.877  -8.588  35.719  1.00  0.00     0.000 A 
HETATM   19  C19 UNK     1      32.618  -7.222  35.844  1.00  0.00     0.001 A 
HETATM   20  C14 UNK     1      31.401  -6.700  35.407  1.00  0.00     0.012 A 
ENDBRANCH   1  15
BRANCH   2  21
HETATM   21  C10 UNK     1      28.053  -7.311  36.614  1.00  0.00    -0.013 A 
HETATM   22  C16 UNK     1      27.735  -8.607  36.993  1.00  0.00     0.044 A 
HETATM   23 Cl1  UNK     1      27.368  -9.845  35.842  1.00  0.00    -0.083 Cl
HETATM   24  C21 UNK     1      27.703  -8.941  38.348  1.00  0.00     0.024 A 
HETATM   25  C23 UNK     1      27.992  -7.973  39.311  1.00  0.00     0.002 A 
HETATM   26  C22 UNK     1      28.311  -6.673  38.920  1.00  0.00     0.001 A 
HETATM   27  C17 UNK     1      28.343  -6.340  37.565  1.00  0.00     0.013 A 
ENDBRANCH   2  21
TORSDOF 5
ENDMDL
MODEL 7
REMARK VINA RESULT:      -8.5      9.056     10.877
REMARK  5 active torsions:
REMARK  status: ('A' for Active; 'I' for Inactive)
REMARK    1  A    between atoms: C1_4  and  N1_3 
REMARK       I    between atoms: C5_8  and  N1_3 
REMARK    2  A    between atoms: C1_4  and  C2_5 
REMARK    3  A    between atoms: C4_7  and  C5_8 
REMARK    4  A    between atoms: C4_7  and  C8_11 
REMARK    5  A    between atoms: C10_13  and  C9_12 
ROOT
HETATM    1  C4  UNK     1      29.156  -7.037  34.473  1.00  0.00     0.043 C 
HETATM    2  C9  UNK     1      28.060  -6.947  35.255  1.00  0.00     0.031 C 
ENDROOT
BRANCH   1   3
HETATM    3  C5  UNK     1      29.009  -6.521  33.064  1.00  0.00     0.253 C 
HETATM    4  O1  UNK     1      29.636  -5.540  32.667  1.00  0.00    -0.268 OA
HETATM    5  N1  UNK     1      28.116  -7.239  32.286  1.00  0.00    -0.349 N 
HETATM    6  H2  UNK     1      27.658  -8.066  32.654  1.00  0.00     0.163 HD
BRANCH   5   7
HETATM    7  C1  UNK     1      27.838  -6.890  30.912  1.00  0.00     0.114 C 
HETATM    8  C3  UNK     1      26.330  -6.805  30.687  1.00  0.00     0.037 C 
BRANCH   7   9
HETATM    9  C2  UNK     1      28.516  -7.842  29.950  1.00  0.00    -0.036 A 
HETATM   10  C6  UNK     1      27.843  -8.978  29.536  1.00  0.00     0.009 A 
HETATM   11  C11 UNK     1      28.467  -9.856  28.650  1.00  0.00     0.001 A 
HETATM   12  C15 UNK     1      29.757  -9.584  28.192  1.00  0.00     0.000 A 
HETATM   13  C12 UNK     1      30.420  -8.433  28.620  1.00  0.00     0.001 A 
HETATM   14  C7  UNK     1      29.795  -7.557  29.506  1.00  0.00     0.009 A 
ENDBRANCH   7   9
ENDBRANCH   5   7
ENDBRANCH   1   3
BRANCH   1  15
HETATM   15  C8  UNK     1      30.431  -7.588  34.972  1.00  0.00    -0.021 A 
HETATM   16  C13 UNK     1      31.347  -6.740  35.571  1.00  0.00     0.012 A 
HETATM   17  C18 UNK     1      32.552  -7.262  36.043  1.00  0.00     0.001 A 
HETATM   18  C20 UNK     1      32.822  -8.623  35.909  1.00  0.00     0.000 A 
HETATM   19  C19 UNK     1      31.888  -9.464  35.303  1.00  0.00     0.001 A 
HETATM   20  C14 UNK     1      30.683  -8.942  34.831  1.00  0.00     0.012 A 
ENDBRANCH   1  15
BRANCH   2  21
HETATM   21  C10 UNK     1      27.975  -7.354  36.665  1.00  0.00    -0.013 A 
HETATM   22  C16 UNK     1      27.660  -8.655  37.034  1.00  0.00     0.044 A 
HETATM   23 Cl1  UNK     1      27.345  -9.895  35.872  1.00  0.00    -0.083 Cl
HETATM   24  C21 UNK     1      27.591  -8.990  38.387  1.00  0.00     0.024 A 
HETATM   25  C23 UNK     1      27.838  -8.019  39.359  1.00  0.00     0.002 A 
HETATM   26  C22 UNK     1      28.153  -6.716  38.979  1.00  0.00     0.001 A 
HETATM   27  C17 UNK     1      28.223  -6.381  37.626  1.00  0.00     0.013 A 
ENDBRANCH   2  21
TORSDOF 5
ENDMDL
MODEL 8
REMARK VINA RESULT:      -8.4      9.465     11.049
REMARK  5 active torsions:
REMARK  status: ('A' for Active; 'I' for Inactive)
REMARK    1  A    between atoms: C1_4  and  N1_3 
REMARK       I    between atoms: C5_8  and  N1_3 
REMARK    2  A    between atoms: C1_4  and  C2_5 
REMARK    3  A    between atoms: C4_7  and  C5_8 
REMARK    4  A    between atoms: C4_7  and  C8_11 
REMARK    5  A    between atoms: C10_13  and  C9_12 
ROOT
HETATM    1  C4  UNK     1      29.640  -6.813  34.169  1.00  0.00     0.043 C 
HETATM    2  C9  UNK     1      30.850  -6.401  34.599  1.00  0.00     0.031 C 
ENDROOT
BRANCH   1   3
HETATM    3  C5  UNK     1      29.225  -6.335  32.800  1.00  0.00     0.253 C 
HETATM    4  O1  UNK     1      29.401  -5.172  32.441  1.00  0.00    -0.268 OA
HETATM    5  N1  UNK     1      28.634  -7.310  32.012  1.00  0.00    -0.349 N 
HETATM    6  H2  UNK     1      28.552  -8.265  32.346  1.00  0.00     0.163 HD
BRANCH   5   7
HETATM    7  C1  UNK     1      28.165  -7.039  30.673  1.00  0.00     0.114 C 
HETATM    8  C3  UNK     1      26.640  -6.956  30.658  1.00  0.00     0.037 C 
BRANCH   7   9
HETATM    9  C2  UNK     1      28.702  -8.050  29.683  1.00  0.00    -0.036 A 
HETATM   10  C6  UNK     1      27.901  -9.112  29.300  1.00  0.00     0.009 A 
HETATM   11  C11 UNK     1      28.396 -10.043  28.387  1.00  0.00     0.001 A 
HETATM   12  C15 UNK     1      29.684  -9.898  27.872  1.00  0.00     0.000 A 
HETATM   13  C12 UNK     1      30.476  -8.821  28.268  1.00  0.00     0.001 A 
HETATM   14  C7  UNK     1      29.982  -7.890  29.181  1.00  0.00     0.009 A 
ENDBRANCH   7   9
ENDBRANCH   5   7
ENDBRANCH   1   3
BRANCH   1  15
HETATM   15  C8  UNK     1      28.778  -7.695  34.980  1.00  0.00    -0.021 A 
HETATM   16  C13 UNK     1      28.788  -9.058  34.739  1.00  0.00     0.012 A 
HETATM   17  C18 UNK     1      27.974  -9.891  35.507  1.00  0.00     0.001 A 
HETATM   18  C20 UNK     1      27.163  -9.349  36.503  1.00  0.00     0.000 A 
HETATM   19  C19 UNK     1      27.166  -7.972  36.733  1.00  0.00     0.001 A 
HETATM   20  C14 UNK     1      27.980  -7.139  35.966  1.00  0.00     0.012 A 
ENDBRANCH   1  15
BRANCH   2  21
HETATM   21  C10 UNK     1      31.476  -6.764  35.879  1.00  0.00    -0.013 A 
HETATM   22  C16 UNK     1      31.297  -5.999  37.024  1.00  0.00     0.044 A 
HETATM   23 Cl1  UNK     1      30.328  -4.567  37.038  1.00  0.00    -0.083 Cl
HETATM   24  C21 UNK     1      31.914  -6.386  38.214  1.00  0.00     0.024 A 
HETATM   25  C23 UNK     1      32.705  -7.535  38.249  1.00  0.00     0.002 A 
HETATM   26  C22 UNK     1      32.879  -8.296  37.093  1.00  0.00     0.001 A 
HETATM   27  C17 UNK     1      32.262  -7.909  35.903  1.00  0.00     0.013 A 
ENDBRANCH   2  21
TORSDOF 5
ENDMDL
MODEL 9
REMARK VINA RESULT:      -8.3      9.789     11.365
REMARK  5 active torsions:
REMARK  status: ('A' for Active; 'I' for Inactive)
REMARK    1  A    between atoms: C1_4  and  N1_3 
REMARK       I    between atoms: C5_8  and  N1_3 
REMARK    2  A    between atoms: C1_4  and  C2_5 
REMARK    3  A    between atoms: C4_7  and  C5_8 
REMARK    4  A    between atoms: C4_7  and  C8_11 
REMARK    5  A    between atoms: C10_13  and  C9_12 
ROOT
HETATM    1  C4  UNK     1      29.924  -6.310  33.847  1.00  0.00     0.043 C 
HETATM    2  C9  UNK     1      30.934  -5.562  34.337  1.00  0.00     0.031 C 
ENDROOT
BRANCH   1   3
HETATM    3  C5  UNK     1      29.515  -6.022  32.424  1.00  0.00     0.253 C 
HETATM    4  O1  UNK     1      29.917  -5.025  31.826  1.00  0.00    -0.268 OA
HETATM    5  N1  UNK     1      28.657  -6.962  31.877  1.00  0.00    -0.349 N 
HETATM    6  H2  UNK     1      28.390  -7.788  32.404  1.00  0.00     0.163 HD
BRANCH   5   7
HETATM    7  C1  UNK     1      28.151  -6.852  30.529  1.00  0.00     0.114 C 
HETATM    8  C3  UNK     1      26.624  -6.845  30.540  1.00  0.00     0.037 C 
BRANCH   7   9
HETATM    9  C2  UNK     1      28.721  -7.931  29.633  1.00  0.00    -0.036 A 
HETATM   10  C6  UNK     1      30.005  -7.788  29.137  1.00  0.00     0.009 A 
HETATM   11  C11 UNK     1      30.532  -8.781  28.312  1.00  0.00     0.001 A 
HETATM   12  C15 UNK     1      29.765  -9.903  27.995  1.00  0.00     0.000 A 
HETATM   13  C12 UNK     1      28.472 -10.030  28.505  1.00  0.00     0.001 A 
HETATM   14  C7  UNK     1      27.947  -9.036  29.329  1.00  0.00     0.009 A 
ENDBRANCH   7   9
ENDBRANCH   5   7
ENDBRANCH   1   3
BRANCH   1  15
HETATM   15  C8  UNK     1      29.270  -7.363  34.647  1.00  0.00    -0.021 A 
HETATM   16  C13 UNK     1      29.758  -8.657  34.592  1.00  0.00     0.012 A 
HETATM   17  C18 UNK     1      29.140  -9.652  35.349  1.00  0.00     0.001 A 
HETATM   18  C20 UNK     1      28.042  -9.338  36.150  1.00  0.00     0.000 A 
HETATM   19  C19 UNK     1      27.563  -8.028  36.194  1.00  0.00     0.001 A 
HETATM   20  C14 UNK     1      28.181  -7.033  35.437  1.00  0.00     0.012 A 
ENDBRANCH   1  15
BRANCH   2  21
HETATM   21  C10 UNK     1      31.522  -5.684  35.679  1.00  0.00    -0.013 A 
HETATM   22  C16 UNK     1      32.580  -6.545  35.938  1.00  0.00     0.044 A 
HETATM   23 Cl1  UNK     1      33.288  -7.537  34.712  1.00  0.00    -0.083 Cl
HETATM   24  C21 UNK     1      33.101  -6.624  37.230  1.00  0.00     0.024 A 
HETATM   25  C23 UNK     1      32.560  -5.841  38.251  1.00  0.00     0.002 A 
HETATM   26  C22 UNK     1      31.498  -4.980  37.979  1.00  0.00     0.001 A 
HETATM   27  C17 UNK     1      30.976  -4.900  36.688  1.00  0.00     0.013 A 
ENDBRANCH   2  21
TORSDOF 5
ENDMDL
MODEL 10
REMARK VINA RESULT:      -8.3      9.051     10.811
REMARK  5 active torsions:
REMARK  status: ('A' for Active; 'I' for Inactive)
REMARK    1  A    between atoms: C1_4  and  N1_3 
REMARK       I    between atoms: C5_8  and  N1_3 
REMARK    2  A    between atoms: C1_4  and  C2_5 
REMARK    3  A    between atoms: C4_7  and  C5_8 
REMARK    4  A    between atoms: C4_7  and  C8_11 
REMARK    5  A    between atoms: C10_13  and  C9_12 
ROOT
HETATM    1  C4  UNK     1      29.995  -7.514  35.652  1.00  0.00     0.043 C 
HETATM    2  C9  UNK     1      29.221  -8.586  35.918  1.00  0.00     0.031 C 
ENDROOT
BRANCH   1   3
HETATM    3  C5  UNK     1      30.472  -7.378  34.227  1.00  0.00     0.253 C 
HETATM    4  O1  UNK     1      31.466  -7.977  33.819  1.00  0.00    -0.268 OA
HETATM    5  N1  UNK     1      29.704  -6.527  33.449  1.00  0.00    -0.349 N 
HETATM    6  H2  UNK     1      28.869  -6.092  33.828  1.00  0.00     0.163 HD
BRANCH   5   7
HETATM    7  C1  UNK     1      30.010  -6.265  32.062  1.00  0.00     0.114 C 
HETATM    8  C3  UNK     1      29.733  -4.800  31.731  1.00  0.00     0.037 C 
BRANCH   7   9
HETATM    9  C2  UNK     1      29.275  -7.218  31.143  1.00  0.00    -0.036 A 
HETATM   10  C6  UNK     1      29.986  -7.911  30.179  1.00  0.00     0.009 A 
HETATM   11  C11 UNK     1      29.309  -8.789  29.332  1.00  0.00     0.001 A 
HETATM   12  C15 UNK     1      27.931  -8.959  29.462  1.00  0.00     0.000 A 
HETATM   13  C12 UNK     1      27.230  -8.253  30.440  1.00  0.00     0.001 A 
HETATM   14  C7  UNK     1      27.907  -7.375  31.286  1.00  0.00     0.009 A 
ENDBRANCH   7   9
ENDBRANCH   5   7
ENDBRANCH   1   3
BRANCH   1  15
HETATM   15  C8  UNK     1      30.341  -6.521  36.687  1.00  0.00    -0.021 A 
HETATM   16  C13 UNK     1      31.561  -6.614  37.334  1.00  0.00     0.012 A 
HETATM   17  C18 UNK     1      31.887  -5.674  38.312  1.00  0.00     0.001 A 
HETATM   18  C20 UNK     1      30.989  -4.655  38.628  1.00  0.00     0.000 A 
HETATM   19  C19 UNK     1      29.763  -4.575  37.965  1.00  0.00     0.001 A 
HETATM   20  C14 UNK     1      29.437  -5.515  36.987  1.00  0.00     0.012 A 
ENDBRANCH   1  15
BRANCH   2  21
HETATM   21  C10 UNK     1      28.616  -8.908  37.219  1.00  0.00    -0.013 A 
HETATM   22  C16 UNK     1      29.325  -9.571  38.211  1.00  0.00     0.044 A 
HETATM   23 Cl1  UNK     1      30.967 -10.069  37.999  1.00  0.00    -0.083 Cl
HETATM   24  C21 UNK     1      28.705  -9.853  39.429  1.00  0.00     0.024 A 
HETATM   25  C23 UNK     1      27.381  -9.469  39.643  1.00  0.00     0.002 A 
HETATM   26  C22 UNK     1      26.677  -8.804  38.640  1.00  0.00     0.001 A 
HETATM   27  C17 UNK     1      27.297  -8.521  37.423  1.00  0.00     0.013 A 
ENDBRANCH   2  21
TORSDOF 5
ENDMDL
