MODEL 1
REMARK VINA RESULT:      -8.4      0.000      0.000
REMARK  3 active torsions:
REMARK  status: ('A' for Active; 'I' for Inactive)
REMARK    1  A    between atoms: C6_15  and  S1_1 
REMARK    2  A    between atoms: N1_8  and  S1_1 
REMARK       I    between atoms: C5_14  and  N2_9 
REMARK    3  A    between atoms: C5_14  and  C7_16 
ROOT
HETATM    1  O3  UNK     1      15.333  11.236  11.203  1.00  0.00    -0.267 OA
HETATM    2  N1  UNK     1      12.953   7.398   9.205  1.00  0.00    -0.203 NA
HETATM    3  N2  UNK     1      14.361   9.844   9.614  1.00  0.00    -0.345 N 
HETATM    4  C1  UNK     1      13.104   7.953  10.581  1.00  0.00     0.127 C 
HETATM    5  C2  UNK     1      14.131   7.730   8.351  1.00  0.00     0.127 C 
HETATM    6  C3  UNK     1      13.254   9.466  10.496  1.00  0.00     0.141 C 
HETATM    7  C4  UNK     1      14.299   9.246   8.273  1.00  0.00     0.141 C 
HETATM    8  C5  UNK     1      15.311  10.754  10.070  1.00  0.00     0.260 C 
ENDROOT
BRANCH   8   9
HETATM    9  C7  UNK     1      16.366  11.177   9.128  1.00  0.00     0.108 A 
HETATM   10  C10 UNK     1      17.645  10.443   9.000  1.00  0.00     0.304 A 
HETATM   11  O4  UNK     1      18.561  10.938   8.075  1.00  0.00    -0.274 OA
HETATM   12  O5  UNK     1      17.892   9.447   9.671  1.00  0.00    -0.259 OA
HETATM   13  C13 UNK     1      18.288  12.081   7.298  1.00  0.00     0.089 A 
HETATM   14  C11 UNK     1      17.079  12.756   7.434  1.00  0.00    -0.001 A 
HETATM   15  C16 UNK     1      19.267  12.502   6.400  1.00  0.00     0.038 A 
HETATM   16  C9  UNK     1      16.101  12.263   8.392  1.00  0.00     0.037 A 
HETATM   17  C15 UNK     1      16.846  13.886   6.647  1.00  0.00     0.014 A 
HETATM   18  C17 UNK     1      17.818  14.321   5.741  1.00  0.00     0.001 A 
HETATM   19  C18 UNK     1      19.025  13.630   5.618  1.00  0.00     0.003 A 
ENDBRANCH   8   9
BRANCH   2  20
HETATM   20  S1  UNK     1      12.425   5.770   9.123  1.00  0.00     0.250 S 
HETATM   21  O1  UNK     1      11.831   5.403  10.390  1.00  0.00    -0.205 OA
HETATM   22  O2  UNK     1      13.471   4.967   8.528  1.00  0.00    -0.205 OA
BRANCH  20  23
HETATM   23  C6  UNK     1      11.123   5.928   7.941  1.00  0.00     0.115 A 
HETATM   24  S2  UNK     1       9.558   6.050   8.620  1.00  0.00    -0.089 SA
HETATM   25  C14 UNK     1       8.842   6.166   7.068  1.00  0.00     0.051 A 
HETATM   26  C12 UNK     1       9.781   6.110   6.061  1.00  0.00     0.009 A 
HETATM   27  C8  UNK     1      11.105   5.972   6.570  1.00  0.00     0.033 A 
ENDBRANCH  20  23
ENDBRANCH   2  20
TORSDOF 3
ENDMDL
MODEL 2
REMARK VINA RESULT:      -8.3     33.978     35.866
REMARK  3 active torsions:
REMARK  status: ('A' for Active; 'I' for Inactive)
REMARK    1  A    between atoms: C6_15  and  S1_1 
REMARK    2  A    between atoms: N1_8  and  S1_1 
REMARK       I    between atoms: C5_14  and  N2_9 
REMARK    3  A    between atoms: C5_14  and  C7_16 
ROOT
HETATM    1  O3  UNK     1      35.772  -5.839  36.411  1.00  0.00    -0.267 OA
HETATM    2  N1  UNK     1      34.895  -7.502  31.843  1.00  0.00    -0.203 NA
HETATM    3  N2  UNK     1      34.676  -6.800  34.599  1.00  0.00    -0.345 N 
HETATM    4  C1  UNK     1      36.111  -7.111  32.615  1.00  0.00     0.127 C 
HETATM    5  C2  UNK     1      33.684  -6.780  32.333  1.00  0.00     0.127 C 
HETATM    6  C3  UNK     1      35.893  -7.435  34.088  1.00  0.00     0.141 C 
HETATM    7  C4  UNK     1      33.466  -7.085  33.814  1.00  0.00     0.141 C 
HETATM    8  C5  UNK     1      34.740  -6.060  35.777  1.00  0.00     0.260 C 
ENDROOT
BRANCH   8   9
HETATM    9  C7  UNK     1      33.480  -5.503  36.309  1.00  0.00     0.108 A 
HETATM   10  C10 UNK     1      33.074  -4.101  36.059  1.00  0.00     0.304 A 
HETATM   11  O4  UNK     1      31.862  -3.694  36.613  1.00  0.00    -0.274 OA
HETATM   12  O5  UNK     1      33.764  -3.334  35.398  1.00  0.00    -0.259 OA
HETATM   13  C13 UNK     1      31.062  -4.567  37.374  1.00  0.00     0.089 A 
HETATM   14  C11 UNK     1      31.462  -5.881  37.596  1.00  0.00    -0.001 A 
HETATM   15  C16 UNK     1      29.867  -4.067  37.888  1.00  0.00     0.038 A 
HETATM   16  C9  UNK     1      32.723  -6.338  37.031  1.00  0.00     0.037 A 
HETATM   17  C15 UNK     1      30.641  -6.716  38.356  1.00  0.00     0.014 A 
HETATM   18  C17 UNK     1      29.439  -6.230  38.879  1.00  0.00     0.001 A 
HETATM   19  C18 UNK     1      29.053  -4.908  38.644  1.00  0.00     0.003 A 
ENDBRANCH   8   9
BRANCH   2  20
HETATM   20  S1  UNK     1      35.087  -7.539  30.141  1.00  0.00     0.250 S 
HETATM   21  O1  UNK     1      35.868  -8.703  29.781  1.00  0.00    -0.205 OA
HETATM   22  O2  UNK     1      35.458  -6.218  29.682  1.00  0.00    -0.205 OA
BRANCH  20  23
HETATM   23  C6  UNK     1      33.417  -7.836  29.650  1.00  0.00     0.115 A 
HETATM   24  S2  UNK     1      32.901  -9.456  29.831  1.00  0.00    -0.089 SA
HETATM   25  C14 UNK     1      31.343  -9.077  29.229  1.00  0.00     0.051 A 
HETATM   26  C12 UNK     1      31.227  -7.744  28.900  1.00  0.00     0.009 A 
HETATM   27  C8  UNK     1      32.433  -7.025  29.145  1.00  0.00     0.033 A 
ENDBRANCH  20  23
ENDBRANCH   2  20
TORSDOF 3
ENDMDL
MODEL 3
REMARK VINA RESULT:      -8.2     35.429     37.419
REMARK  3 active torsions:
REMARK  status: ('A' for Active; 'I' for Inactive)
REMARK    1  A    between atoms: C6_15  and  S1_1 
REMARK    2  A    between atoms: N1_8  and  S1_1 
REMARK       I    between atoms: C5_14  and  N2_9 
REMARK    3  A    between atoms: C5_14  and  C7_16 
ROOT
HETATM    1  O3  UNK     1      28.760 -10.318  39.121  1.00  0.00    -0.267 OA
HETATM    2  N1  UNK     1      31.193  -6.409  37.335  1.00  0.00    -0.203 NA
HETATM    3  N2  UNK     1      29.385  -8.584  37.703  1.00  0.00    -0.345 N 
HETATM    4  C1  UNK     1      31.449  -7.422  38.400  1.00  0.00     0.127 C 
HETATM    5  C2  UNK     1      29.731  -6.207  37.115  1.00  0.00     0.127 C 
HETATM    6  C3  UNK     1      30.812  -8.745  37.994  1.00  0.00     0.141 C 
HETATM    7  C4  UNK     1      29.081  -7.532  36.723  1.00  0.00     0.141 C 
HETATM    8  C5  UNK     1      28.470  -9.446  38.302  1.00  0.00     0.260 C 
ENDROOT
BRANCH   8   9
HETATM    9  C7  UNK     1      27.049  -9.310  37.923  1.00  0.00     0.108 A 
HETATM   10  C10 UNK     1      26.237  -8.140  38.327  1.00  0.00     0.304 A 
HETATM   11  O4  UNK     1      24.909  -8.126  37.907  1.00  0.00    -0.274 OA
HETATM   12  O5  UNK     1      26.704  -7.226  38.997  1.00  0.00    -0.259 OA
HETATM   13  C13 UNK     1      24.362  -9.171  37.138  1.00  0.00     0.089 A 
HETATM   14  C11 UNK     1      25.142 -10.261  36.769  1.00  0.00    -0.001 A 
HETATM   15  C16 UNK     1      23.022  -9.068  36.767  1.00  0.00     0.038 A 
HETATM   16  C9  UNK     1      26.534 -10.306  37.191  1.00  0.00     0.037 A 
HETATM   17  C15 UNK     1      24.563 -11.277  36.006  1.00  0.00     0.014 A 
HETATM   18  C17 UNK     1      23.221 -11.189  35.625  1.00  0.00     0.001 A 
HETATM   19  C18 UNK     1      22.453 -10.086  36.005  1.00  0.00     0.003 A 
ENDBRANCH   8   9
BRANCH   2  20
HETATM   20  S1  UNK     1      32.122  -4.974  37.448  1.00  0.00     0.250 S 
HETATM   21  O1  UNK     1      32.558  -4.802  38.817  1.00  0.00    -0.205 OA
HETATM   22  O2  UNK     1      31.434  -3.913  36.745  1.00  0.00    -0.205 OA
BRANCH  20  23
HETATM   23  C6  UNK     1      33.528  -5.441  36.488  1.00  0.00     0.115 A 
HETATM   24  S2  UNK     1      33.334  -5.243  34.801  1.00  0.00    -0.089 SA
HETATM   25  C14 UNK     1      34.917  -5.826  34.502  1.00  0.00     0.051 A 
HETATM   26  C12 UNK     1      35.571  -6.164  35.667  1.00  0.00     0.009 A 
HETATM   27  C8  UNK     1      34.763  -5.939  36.819  1.00  0.00     0.033 A 
ENDBRANCH  20  23
ENDBRANCH   2  20
TORSDOF 3
ENDMDL
MODEL 4
REMARK VINA RESULT:      -8.1     32.998     34.801
REMARK  3 active torsions:
REMARK  status: ('A' for Active; 'I' for Inactive)
REMARK    1  A    between atoms: C6_15  and  S1_1 
REMARK    2  A    between atoms: N1_8  and  S1_1 
REMARK       I    between atoms: C5_14  and  N2_9 
REMARK    3  A    between atoms: C5_14  and  C7_16 
ROOT
HETATM    1  O3  UNK     1      34.381  -7.580  35.217  1.00  0.00    -0.267 OA
HETATM    2  N1  UNK     1      32.044  -8.168  30.905  1.00  0.00    -0.203 NA
HETATM    3  N2  UNK     1      32.663  -7.799  33.665  1.00  0.00    -0.345 N 
HETATM    4  C1  UNK     1      33.438  -8.381  31.395  1.00  0.00     0.127 C 
HETATM    5  C2  UNK     1      31.349  -7.104  31.688  1.00  0.00     0.127 C 
HETATM    6  C3  UNK     1      33.395  -8.783  32.864  1.00  0.00     0.141 C 
HETATM    7  C4  UNK     1      31.315  -7.491  33.165  1.00  0.00     0.141 C 
HETATM    8  C5  UNK     1      33.247  -7.301  34.826  1.00  0.00     0.260 C 
ENDROOT
BRANCH   8   9
HETATM    9  C7  UNK     1      32.449  -6.374  35.655  1.00  0.00     0.108 A 
HETATM   10  C10 UNK     1      32.577  -4.904  35.534  1.00  0.00     0.304 A 
HETATM   11  O4  UNK     1      31.769  -4.136  36.368  1.00  0.00    -0.274 OA
HETATM   12  O5  UNK     1      33.352  -4.384  34.740  1.00  0.00    -0.259 OA
HETATM   13  C13 UNK     1      30.875  -4.723  37.284  1.00  0.00     0.089 A 
HETATM   14  C11 UNK     1      30.771  -6.107  37.382  1.00  0.00    -0.001 A 
HETATM   15  C16 UNK     1      30.109  -3.871  38.078  1.00  0.00     0.038 A 
HETATM   16  C9  UNK     1      31.600  -6.938  36.523  1.00  0.00     0.037 A 
HETATM   17  C15 UNK     1      29.873  -6.652  38.302  1.00  0.00     0.014 A 
HETATM   18  C17 UNK     1      29.098  -5.811  39.106  1.00  0.00     0.001 A 
HETATM   19  C18 UNK     1      29.216  -4.424  38.993  1.00  0.00     0.003 A 
ENDBRANCH   8   9
BRANCH   2  20
HETATM   20  S1  UNK     1      31.873  -8.055  29.204  1.00  0.00     0.250 S 
HETATM   21  O1  UNK     1      32.830  -8.941  28.575  1.00  0.00    -0.205 OA
HETATM   22  O2  UNK     1      31.791  -6.660  28.832  1.00  0.00    -0.205 OA
BRANCH  20  23
HETATM   23  C6  UNK     1      30.269  -8.766  29.009  1.00  0.00     0.115 A 
HETATM   24  S2  UNK     1      30.255 -10.281  28.216  1.00  0.00    -0.089 SA
HETATM   25  C14 UNK     1      28.550 -10.388  28.349  1.00  0.00     0.051 A 
HETATM   26  C12 UNK     1      28.012  -9.289  28.983  1.00  0.00     0.009 A 
HETATM   27  C8  UNK     1      29.011  -8.349  29.365  1.00  0.00     0.033 A 
ENDBRANCH  20  23
ENDBRANCH   2  20
TORSDOF 3
ENDMDL
MODEL 5
REMARK VINA RESULT:      -8.1      3.175      8.271
REMARK  3 active torsions:
REMARK  status: ('A' for Active; 'I' for Inactive)
REMARK    1  A    between atoms: C6_15  and  S1_1 
REMARK    2  A    between atoms: N1_8  and  S1_1 
REMARK       I    between atoms: C5_14  and  N2_9 
REMARK    3  A    between atoms: C5_14  and  C7_16 
ROOT
HETATM    1  O3  UNK     1      15.458   6.935  10.369  1.00  0.00    -0.267 OA
HETATM    2  N1  UNK     1      16.721  11.546   9.128  1.00  0.00    -0.203 NA
HETATM    3  N2  UNK     1      15.574   8.935   9.187  1.00  0.00    -0.345 N 
HETATM    4  C1  UNK     1      17.253  10.516  10.067  1.00  0.00     0.127 C 
HETATM    5  C2  UNK     1      15.256  11.371   8.901  1.00  0.00     0.127 C 
HETATM    6  C3  UNK     1      16.995   9.131   9.489  1.00  0.00     0.141 C 
HETATM    7  C4  UNK     1      14.985   9.978   8.336  1.00  0.00     0.141 C 
HETATM    8  C5  UNK     1      14.933   7.791   9.655  1.00  0.00     0.260 C 
ENDROOT
BRANCH   8   9
HETATM    9  C7  UNK     1      13.525   7.583   9.264  1.00  0.00     0.108 A 
HETATM   10  C10 UNK     1      12.401   7.926  10.164  1.00  0.00     0.304 A 
HETATM   11  O4  UNK     1      11.117   7.686   9.681  1.00  0.00    -0.274 OA
HETATM   12  O5  UNK     1      12.585   8.400  11.280  1.00  0.00    -0.259 OA
HETATM   13  C13 UNK     1      10.894   7.142   8.402  1.00  0.00     0.089 A 
HETATM   14  C11 UNK     1      11.965   6.826   7.571  1.00  0.00    -0.001 A 
HETATM   15  C16 UNK     1       9.574   6.936   8.007  1.00  0.00     0.038 A 
HETATM   16  C9  UNK     1      13.319   7.066   8.047  1.00  0.00     0.037 A 
HETATM   17  C15 UNK     1      11.703   6.288   6.310  1.00  0.00     0.014 A 
HETATM   18  C17 UNK     1      10.384   6.075   5.899  1.00  0.00     0.001 A 
HETATM   19  C18 UNK     1       9.322   6.399   6.746  1.00  0.00     0.003 A 
ENDBRANCH   8   9
BRANCH   2  20
HETATM   20  S1  UNK     1      17.227  13.153   9.436  1.00  0.00     0.250 S 
HETATM   21  O1  UNK     1      18.416  13.122  10.261  1.00  0.00    -0.205 OA
HETATM   22  O2  UNK     1      16.076  13.943   9.815  1.00  0.00    -0.205 OA
BRANCH  20  23
HETATM   23  C6  UNK     1      17.711  13.641   7.810  1.00  0.00     0.115 A 
HETATM   24  S2  UNK     1      18.572  12.449   6.938  1.00  0.00    -0.089 SA
HETATM   25  C14 UNK     1      18.717  13.482   5.578  1.00  0.00     0.051 A 
HETATM   26  C12 UNK     1      18.121  14.705   5.793  1.00  0.00     0.009 A 
HETATM   27  C8  UNK     1      17.537  14.796   7.089  1.00  0.00     0.033 A 
ENDBRANCH  20  23
ENDBRANCH   2  20
TORSDOF 3
ENDMDL
MODEL 6
REMARK VINA RESULT:      -8.1      3.486      8.536
REMARK  3 active torsions:
REMARK  status: ('A' for Active; 'I' for Inactive)
REMARK    1  A    between atoms: C6_15  and  S1_1 
REMARK    2  A    between atoms: N1_8  and  S1_1 
REMARK       I    between atoms: C5_14  and  N2_9 
REMARK    3  A    between atoms: C5_14  and  C7_16 
ROOT
HETATM    1  O3  UNK     1      15.330   6.442  10.066  1.00  0.00    -0.267 OA
HETATM    2  N1  UNK     1      16.735  11.140   9.472  1.00  0.00    -0.203 NA
HETATM    3  N2  UNK     1      15.495   8.588   9.183  1.00  0.00    -0.345 N 
HETATM    4  C1  UNK     1      17.248   9.968  10.240  1.00  0.00     0.127 C 
HETATM    5  C2  UNK     1      15.260  11.049   9.260  1.00  0.00     0.127 C 
HETATM    6  C3  UNK     1      16.927   8.690   9.474  1.00  0.00     0.141 C 
HETATM    7  C4  UNK     1      14.927   9.763   8.506  1.00  0.00     0.141 C 
HETATM    8  C5  UNK     1      14.822   7.410   9.497  1.00  0.00     0.260 C 
ENDROOT
BRANCH   8   9
HETATM    9  C7  UNK     1      13.400   7.308   9.115  1.00  0.00     0.108 A 
HETATM   10  C10 UNK     1      12.310   7.715  10.030  1.00  0.00     0.304 A 
HETATM   11  O4  UNK     1      11.008   7.573   9.555  1.00  0.00    -0.274 OA
HETATM   12  O5  UNK     1      12.535   8.156  11.151  1.00  0.00    -0.259 OA
HETATM   13  C13 UNK     1      10.738   7.067   8.269  1.00  0.00     0.089 A 
HETATM   14  C11 UNK     1      11.777   6.690   7.424  1.00  0.00    -0.001 A 
HETATM   15  C16 UNK     1       9.403   6.960   7.883  1.00  0.00     0.038 A 
HETATM   16  C9  UNK     1      13.148   6.827   7.891  1.00  0.00     0.037 A 
HETATM   17  C15 UNK     1      11.469   6.192   6.157  1.00  0.00     0.014 A 
HETATM   18  C17 UNK     1      10.135   6.079   5.755  1.00  0.00     0.001 A 
HETATM   19  C18 UNK     1       9.105   6.463   6.616  1.00  0.00     0.003 A 
ENDBRANCH   8   9
BRANCH   2  20
HETATM   20  S1  UNK     1      17.306  12.668   9.997  1.00  0.00     0.250 S 
HETATM   21  O1  UNK     1      17.076  12.793  11.420  1.00  0.00    -0.205 OA
HETATM   22  O2  UNK     1      16.845  13.683   9.074  1.00  0.00    -0.205 OA
BRANCH  20  23
HETATM   23  C6  UNK     1      19.040  12.451   9.746  1.00  0.00     0.115 A 
HETATM   24  S2  UNK     1      19.507  12.304   8.108  1.00  0.00    -0.089 SA
HETATM   25  C14 UNK     1      21.155  12.136   8.545  1.00  0.00     0.051 A 
HETATM   26  C12 UNK     1      21.336  12.191   9.909  1.00  0.00     0.009 A 
HETATM   27  C8  UNK     1      20.106  12.374  10.606  1.00  0.00     0.033 A 
ENDBRANCH  20  23
ENDBRANCH   2  20
TORSDOF 3
ENDMDL
MODEL 7
REMARK VINA RESULT:      -8.1      3.091      3.922
REMARK  3 active torsions:
REMARK  status: ('A' for Active; 'I' for Inactive)
REMARK    1  A    between atoms: C6_15  and  S1_1 
REMARK    2  A    between atoms: N1_8  and  S1_1 
REMARK       I    between atoms: C5_14  and  N2_9 
REMARK    3  A    between atoms: C5_14  and  C7_16 
ROOT
HETATM    1  O3  UNK     1      16.670  12.915   8.535  1.00  0.00    -0.267 OA
HETATM    2  N1  UNK     1      14.789   8.438   9.434  1.00  0.00    -0.203 NA
HETATM    3  N2  UNK     1      16.544  10.622   8.901  1.00  0.00    -0.345 N 
HETATM    4  C1  UNK     1      14.235   9.754   9.002  1.00  0.00     0.127 C 
HETATM    5  C2  UNK     1      16.031   8.609  10.244  1.00  0.00     0.127 C 
HETATM    6  C3  UNK     1      15.281  10.487   8.171  1.00  0.00     0.141 C 
HETATM    7  C4  UNK     1      17.081   9.358   9.425  1.00  0.00     0.141 C 
HETATM    8  C5  UNK     1      17.148  11.874   8.985  1.00  0.00     0.260 C 
ENDROOT
BRANCH   8   9
HETATM    9  C7  UNK     1      18.461  11.960   9.656  1.00  0.00     0.108 A 
HETATM   10  C10 UNK     1      19.718  11.573   8.976  1.00  0.00     0.304 A 
HETATM   11  O4  UNK     1      20.892  11.702   9.713  1.00  0.00    -0.274 OA
HETATM   12  O5  UNK     1      19.730  11.161   7.821  1.00  0.00    -0.259 OA
HETATM   13  C13 UNK     1      20.889  12.174  11.039  1.00  0.00     0.089 A 
HETATM   14  C11 UNK     1      19.697  12.532  11.660  1.00  0.00    -0.001 A 
HETATM   15  C16 UNK     1      22.115  12.266  11.696  1.00  0.00     0.038 A 
HETATM   16  C9  UNK     1      18.453  12.410  10.916  1.00  0.00     0.037 A 
HETATM   17  C15 UNK     1      19.736  12.996  12.977  1.00  0.00     0.014 A 
HETATM   18  C17 UNK     1      20.957  13.094  13.649  1.00  0.00     0.001 A 
HETATM   19  C18 UNK     1      22.144  12.730  13.009  1.00  0.00     0.003 A 
ENDBRANCH   8   9
BRANCH   2  20
HETATM   20  S1  UNK     1      13.645   7.334  10.073  1.00  0.00     0.250 S 
HETATM   21  O1  UNK     1      12.783   8.034  11.001  1.00  0.00    -0.205 OA
HETATM   22  O2  UNK     1      14.330   6.120  10.461  1.00  0.00    -0.205 OA
BRANCH  20  23
HETATM   23  C6  UNK     1      12.706   6.988   8.619  1.00  0.00     0.115 A 
HETATM   24  S2  UNK     1      11.114   7.613   8.635  1.00  0.00    -0.089 SA
HETATM   25  C14 UNK     1      10.797   6.975   7.077  1.00  0.00     0.051 A 
HETATM   26  C12 UNK     1      11.884   6.301   6.564  1.00  0.00     0.009 A 
HETATM   27  C8  UNK     1      12.992   6.310   7.461  1.00  0.00     0.033 A 
ENDBRANCH  20  23
ENDBRANCH   2  20
TORSDOF 3
ENDMDL
MODEL 8
REMARK VINA RESULT:      -8.1     33.278     34.964
REMARK  3 active torsions:
REMARK  status: ('A' for Active; 'I' for Inactive)
REMARK    1  A    between atoms: C6_15  and  S1_1 
REMARK    2  A    between atoms: N1_8  and  S1_1 
REMARK       I    between atoms: C5_14  and  N2_9 
REMARK    3  A    between atoms: C5_14  and  C7_16 
ROOT
HETATM    1  O3  UNK     1      36.192  -5.878  31.727  1.00  0.00    -0.267 OA
HETATM    2  N1  UNK     1      32.870  -8.989  29.808  1.00  0.00    -0.203 NA
HETATM    3  N2  UNK     1      34.721  -7.669  31.530  1.00  0.00    -0.345 N 
HETATM    4  C1  UNK     1      33.791  -7.950  29.261  1.00  0.00     0.127 C 
HETATM    5  C2  UNK     1      32.490  -8.692  31.220  1.00  0.00     0.127 C 
HETATM    6  C3  UNK     1      35.048  -7.894  30.120  1.00  0.00     0.141 C 
HETATM    7  C4  UNK     1      33.746  -8.618  32.086  1.00  0.00     0.141 C 
HETATM    8  C5  UNK     1      35.379  -6.658  32.225  1.00  0.00     0.260 C 
ENDROOT
BRANCH   8   9
HETATM    9  C7  UNK     1      35.087  -6.511  33.666  1.00  0.00     0.108 A 
HETATM   10  C10 UNK     1      35.977  -7.071  34.708  1.00  0.00     0.304 A 
HETATM   11  O4  UNK     1      35.595  -6.865  36.031  1.00  0.00    -0.274 OA
HETATM   12  O5  UNK     1      37.000  -7.685  34.426  1.00  0.00    -0.259 OA
HETATM   13  C13 UNK     1      34.423  -6.161  36.366  1.00  0.00     0.089 A 
HETATM   14  C11 UNK     1      33.600  -5.643  35.371  1.00  0.00    -0.001 A 
HETATM   15  C16 UNK     1      34.124  -6.008  37.719  1.00  0.00     0.038 A 
HETATM   16  C9  UNK     1      33.972  -5.840  33.978  1.00  0.00     0.037 A 
HETATM   17  C15 UNK     1      32.446  -4.951  35.743  1.00  0.00     0.014 A 
HETATM   18  C17 UNK     1      32.132  -4.789  37.095  1.00  0.00     0.001 A 
HETATM   19  C18 UNK     1      32.970  -5.316  38.081  1.00  0.00     0.003 A 
ENDBRANCH   8   9
BRANCH   2  20
HETATM   20  S1  UNK     1      31.575  -9.437  28.779  1.00  0.00     0.250 S 
HETATM   21  O1  UNK     1      31.237 -10.823  29.024  1.00  0.00    -0.205 OA
HETATM   22  O2  UNK     1      31.851  -8.960  27.442  1.00  0.00    -0.205 OA
BRANCH  20  23
HETATM   23  C6  UNK     1      30.285  -8.439  29.457  1.00  0.00     0.115 A 
HETATM   24  S2  UNK     1      29.054  -9.316  30.256  1.00  0.00    -0.089 SA
HETATM   25  C14 UNK     1      28.209  -7.875  30.635  1.00  0.00     0.051 A 
HETATM   26  C12 UNK     1      28.856  -6.755  30.159  1.00  0.00     0.009 A 
HETATM   27  C8  UNK     1      30.062  -7.085  29.475  1.00  0.00     0.033 A 
ENDBRANCH  20  23
ENDBRANCH   2  20
TORSDOF 3
ENDMDL
MODEL 9
REMARK VINA RESULT:      -8.1     35.326     37.223
REMARK  3 active torsions:
REMARK  status: ('A' for Active; 'I' for Inactive)
REMARK    1  A    between atoms: C6_15  and  S1_1 
REMARK    2  A    between atoms: N1_8  and  S1_1 
REMARK       I    between atoms: C5_14  and  N2_9 
REMARK    3  A    between atoms: C5_14  and  C7_16 
ROOT
HETATM    1  O3  UNK     1      28.258 -10.224  39.094  1.00  0.00    -0.267 OA
HETATM    2  N1  UNK     1      30.714  -6.260  37.466  1.00  0.00    -0.203 NA
HETATM    3  N2  UNK     1      28.878  -8.422  37.760  1.00  0.00    -0.345 N 
HETATM    4  C1  UNK     1      30.980  -7.337  38.464  1.00  0.00     0.127 C 
HETATM    5  C2  UNK     1      29.250  -6.021  37.299  1.00  0.00     0.127 C 
HETATM    6  C3  UNK     1      30.308  -8.624  38.001  1.00  0.00     0.141 C 
HETATM    7  C4  UNK     1      28.566  -7.310  36.850  1.00  0.00     0.141 C 
HETATM    8  C5  UNK     1      27.963  -9.301  38.334  1.00  0.00     0.260 C 
ENDROOT
BRANCH   8   9
HETATM    9  C7  UNK     1      26.535  -9.120  38.004  1.00  0.00     0.108 A 
HETATM   10  C10 UNK     1      25.891  -9.841  36.882  1.00  0.00     0.304 A 
HETATM   11  O4  UNK     1      24.537  -9.587  36.672  1.00  0.00    -0.274 OA
HETATM   12  O5  UNK     1      26.511 -10.623  36.172  1.00  0.00    -0.259 OA
HETATM   13  C13 UNK     1      23.814  -8.691  37.482  1.00  0.00     0.089 A 
HETATM   14  C11 UNK     1      24.439  -8.024  38.531  1.00  0.00    -0.001 A 
HETATM   15  C16 UNK     1      22.464  -8.502  37.193  1.00  0.00     0.038 A 
HETATM   16  C9  UNK     1      25.852  -8.268  38.777  1.00  0.00     0.037 A 
HETATM   17  C15 UNK     1      23.688  -7.143  39.312  1.00  0.00     0.014 A 
HETATM   18  C17 UNK     1      22.333  -6.942  39.034  1.00  0.00     0.001 A 
HETATM   19  C18 UNK     1      21.723  -7.621  37.977  1.00  0.00     0.003 A 
ENDBRANCH   8   9
BRANCH   2  20
HETATM   20  S1  UNK     1      31.672  -4.850  37.635  1.00  0.00     0.250 S 
HETATM   21  O1  UNK     1      32.325  -4.876  38.926  1.00  0.00    -0.205 OA
HETATM   22  O2  UNK     1      30.898  -3.703  37.213  1.00  0.00    -0.205 OA
BRANCH  20  23
HETATM   23  C6  UNK     1      32.898  -5.161  36.403  1.00  0.00     0.115 A 
HETATM   24  S2  UNK     1      34.282  -5.990  36.971  1.00  0.00    -0.089 SA
HETATM   25  C14 UNK     1      34.994  -5.965  35.413  1.00  0.00     0.051 A 
HETATM   26  C12 UNK     1      34.190  -5.337  34.487  1.00  0.00     0.009 A 
HETATM   27  C8  UNK     1      32.973  -4.870  35.064  1.00  0.00     0.033 A 
ENDBRANCH  20  23
ENDBRANCH   2  20
TORSDOF 3
ENDMDL
MODEL 10
REMARK VINA RESULT:      -8.0     32.782     34.779
REMARK  3 active torsions:
REMARK  status: ('A' for Active; 'I' for Inactive)
REMARK    1  A    between atoms: C6_15  and  S1_1 
REMARK    2  A    between atoms: N1_8  and  S1_1 
REMARK       I    between atoms: C5_14  and  N2_9 
REMARK    3  A    between atoms: C5_14  and  C7_16 
ROOT
HETATM    1  O3  UNK     1      27.453  -5.857  33.029  1.00  0.00    -0.267 OA
HETATM    2  N1  UNK     1      30.486  -7.104  36.723  1.00  0.00    -0.203 NA
HETATM    3  N2  UNK     1      28.939  -7.089  34.327  1.00  0.00    -0.345 N 
HETATM    4  C1  UNK     1      29.432  -6.067  36.519  1.00  0.00     0.127 C 
HETATM    5  C2  UNK     1      31.114  -7.504  35.429  1.00  0.00     0.127 C 
HETATM    6  C3  UNK     1      28.361  -6.621  35.589  1.00  0.00     0.141 C 
HETATM    7  C4  UNK     1      30.045  -8.045  34.483  1.00  0.00     0.141 C 
HETATM    8  C5  UNK     1      28.381  -6.661  33.125  1.00  0.00     0.260 C 
ENDROOT
BRANCH   8   9
HETATM    9  C7  UNK     1      28.934  -7.216  31.873  1.00  0.00     0.108 A 
HETATM   10  C10 UNK     1      30.232  -6.766  31.321  1.00  0.00     0.304 A 
HETATM   11  O4  UNK     1      30.648  -7.366  30.135  1.00  0.00    -0.274 OA
HETATM   12  O5  UNK     1      30.911  -5.910  31.876  1.00  0.00    -0.259 OA
HETATM   13  C13 UNK     1      29.876  -8.351  29.490  1.00  0.00     0.089 A 
HETATM   14  C11 UNK     1      28.659  -8.759  30.025  1.00  0.00    -0.001 A 
HETATM   15  C16 UNK     1      30.375  -8.892  28.306  1.00  0.00     0.038 A 
HETATM   16  C9  UNK     1      28.197  -8.152  31.264  1.00  0.00     0.037 A 
HETATM   17  C15 UNK     1      27.923  -9.738  29.356  1.00  0.00     0.014 A 
HETATM   18  C17 UNK     1      28.410 -10.291  28.167  1.00  0.00     0.001 A 
HETATM   19  C18 UNK     1      29.634  -9.868  27.645  1.00  0.00     0.003 A 
ENDBRANCH   8   9
BRANCH   2  20
HETATM   20  S1  UNK     1      31.582  -6.796  38.004  1.00  0.00     0.250 S 
HETATM   21  O1  UNK     1      32.078  -8.057  38.512  1.00  0.00    -0.205 OA
HETATM   22  O2  UNK     1      31.002  -5.810  38.890  1.00  0.00    -0.205 OA
BRANCH  20  23
HETATM   23  C6  UNK     1      32.891  -6.020  37.109  1.00  0.00     0.115 A 
HETATM   24  S2  UNK     1      34.371  -6.877  37.130  1.00  0.00    -0.089 SA
HETATM   25  C14 UNK     1      35.131  -5.682  36.167  1.00  0.00     0.051 A 
HETATM   26  C12 UNK     1      34.271  -4.656  35.842  1.00  0.00     0.009 A 
HETATM   27  C8  UNK     1      32.970  -4.854  36.390  1.00  0.00     0.033 A 
ENDBRANCH  20  23
ENDBRANCH   2  20
TORSDOF 3
ENDMDL
