MODEL 1
REMARK VINA RESULT:      -8.5      0.000      0.000
REMARK  2 active torsions:
REMARK  status: ('A' for Active; 'I' for Inactive)
REMARK    1  A    between atoms: C9_12  and  O3_3 
REMARK    2  A    between atoms: C5_8  and  C6_9 
ROOT
HETATM    1  O1  UNK     1      19.408   2.144  31.048  1.00  0.00    -0.306 OA
HETATM    2  O2  UNK     1      17.933   2.325  27.834  1.00  0.00    -0.284 OA
HETATM    3  C1  UNK     1      19.086   0.753  29.232  1.00  0.00     0.051 A 
HETATM    4  C2  UNK     1      19.605   0.889  30.518  1.00  0.00     0.093 A 
HETATM    5  C3  UNK     1      18.731   2.864  30.071  1.00  0.00     0.127 A 
HETATM    6  C4  UNK     1      18.488   2.031  28.869  1.00  0.00     0.218 A 
HETATM    7  C6  UNK     1      18.350   4.136  30.195  1.00  0.00     0.053 C 
HETATM    8  C7  UNK     1      19.174  -0.424  28.519  1.00  0.00     0.021 A 
HETATM    9  C8  UNK     1      20.240  -0.160  31.146  1.00  0.00     0.074 A 
HETATM   10  C9  UNK     1      20.344  -1.365  30.444  1.00  0.00     0.068 A 
HETATM   11  C10 UNK     1      19.816  -1.495  29.143  1.00  0.00     0.037 A 
ENDROOT
BRANCH   7  12
HETATM   12  C5  UNK     1      18.583   4.948  31.355  1.00  0.00    -0.033 A 
HETATM   13  C11 UNK     1      19.746   5.729  31.461  1.00  0.00     0.012 A 
HETATM   14  C14 UNK     1      19.972   6.518  32.589  1.00  0.00     0.007 A 
HETATM   15  C13 UNK     1      19.039   6.539  33.626  1.00  0.00    -0.062 A 
HETATM   16  C15 UNK     1      17.879   5.769  33.534  1.00  0.00     0.007 A 
HETATM   17  C16 UNK     1      19.281   7.384  34.831  1.00  0.00     0.048 C 
HETATM   18  C12 UNK     1      17.653   4.980  32.407  1.00  0.00     0.012 A 
ENDBRANCH   7  12
BRANCH  10  19
HETATM   19  O3  UNK     1      20.964  -2.431  31.024  1.00  0.00    -0.361 OA
HETATM   20  H12 UNK     1      20.582  -2.577  31.906  1.00  0.00     0.217 HD
ENDBRANCH  10  19
TORSDOF 2
ENDMDL
MODEL 2
REMARK VINA RESULT:      -8.2      1.221      1.732
REMARK  2 active torsions:
REMARK  status: ('A' for Active; 'I' for Inactive)
REMARK    1  A    between atoms: C9_12  and  O3_3 
REMARK    2  A    between atoms: C5_8  and  C6_9 
ROOT
HETATM    1  O1  UNK     1      19.675   1.129  31.156  1.00  0.00    -0.306 OA
HETATM    2  O2  UNK     1      19.018   0.244  27.790  1.00  0.00    -0.284 OA
HETATM    3  C1  UNK     1      19.846  -0.743  29.814  1.00  0.00     0.051 A 
HETATM    4  C2  UNK     1      20.034  -0.198  31.082  1.00  0.00     0.093 A 
HETATM    5  C3  UNK     1      19.233   1.471  29.883  1.00  0.00     0.127 A 
HETATM    6  C4  UNK     1      19.315   0.312  28.962  1.00  0.00     0.218 A 
HETATM    7  C6  UNK     1      18.793   2.681  29.534  1.00  0.00     0.053 C 
HETATM    8  C7  UNK     1      20.142  -2.058  29.522  1.00  0.00     0.021 A 
HETATM    9  C8  UNK     1      20.531  -0.956  32.119  1.00  0.00     0.074 A 
HETATM   10  C9  UNK     1      20.839  -2.294  31.850  1.00  0.00     0.068 A 
HETATM   11  C10 UNK     1      20.647  -2.839  30.563  1.00  0.00     0.037 A 
ENDROOT
BRANCH   7  12
HETATM   12  C5  UNK     1      18.712   3.807  30.420  1.00  0.00    -0.033 A 
HETATM   13  C11 UNK     1      19.288   5.039  30.066  1.00  0.00     0.012 A 
HETATM   14  C14 UNK     1      19.210   6.134  30.928  1.00  0.00     0.007 A 
HETATM   15  C13 UNK     1      18.554   6.012  32.154  1.00  0.00    -0.062 A 
HETATM   16  C15 UNK     1      17.978   4.795  32.518  1.00  0.00     0.007 A 
HETATM   17  C16 UNK     1      18.470   7.183  33.074  1.00  0.00     0.048 C 
HETATM   18  C12 UNK     1      18.057   3.701  31.657  1.00  0.00     0.012 A 
ENDBRANCH   7  12
BRANCH  10  19
HETATM   19  O3  UNK     1      21.334  -3.084  32.845  1.00  0.00    -0.361 OA
HETATM   20  H12 UNK     1      21.003  -2.760  33.700  1.00  0.00     0.217 HD
ENDBRANCH  10  19
TORSDOF 2
ENDMDL
MODEL 3
REMARK VINA RESULT:      -8.1     12.447     16.246
REMARK  2 active torsions:
REMARK  status: ('A' for Active; 'I' for Inactive)
REMARK    1  A    between atoms: C9_12  and  O3_3 
REMARK    2  A    between atoms: C5_8  and  C6_9 
ROOT
HETATM    1  O1  UNK     1      19.218  -0.697  17.123  1.00  0.00    -0.306 OA
HETATM    2  O2  UNK     1      19.134   2.390  15.389  1.00  0.00    -0.284 OA
HETATM    3  C1  UNK     1      19.151   1.554  17.638  1.00  0.00     0.051 A 
HETATM    4  C2  UNK     1      19.187   0.249  18.123  1.00  0.00     0.093 A 
HETATM    5  C3  UNK     1      19.202   0.016  15.930  1.00  0.00     0.127 A 
HETATM    6  C4  UNK     1      19.158   1.476  16.183  1.00  0.00     0.218 A 
HETATM    7  C6  UNK     1      19.222  -0.538  14.717  1.00  0.00     0.053 C 
HETATM    8  C7  UNK     1      19.117   2.653  18.471  1.00  0.00     0.021 A 
HETATM    9  C8  UNK     1      19.189  -0.011  19.476  1.00  0.00     0.074 A 
HETATM   10  C9  UNK     1      19.155   1.087  20.343  1.00  0.00     0.068 A 
HETATM   11  C10 UNK     1      19.118   2.405  19.845  1.00  0.00     0.037 A 
ENDROOT
BRANCH   7  12
HETATM   12  C5  UNK     1      19.264  -1.949  14.464  1.00  0.00    -0.033 A 
HETATM   13  C11 UNK     1      18.136  -2.753  14.702  1.00  0.00     0.012 A 
HETATM   14  C14 UNK     1      18.177  -4.126  14.457  1.00  0.00     0.007 A 
HETATM   15  C13 UNK     1      19.344  -4.714  13.971  1.00  0.00    -0.062 A 
HETATM   16  C15 UNK     1      20.472  -3.930  13.730  1.00  0.00     0.007 A 
HETATM   17  C16 UNK     1      19.386  -6.182  13.708  1.00  0.00     0.048 C 
HETATM   18  C12 UNK     1      20.432  -2.557  13.975  1.00  0.00     0.012 A 
ENDBRANCH   7  12
BRANCH  10  19
HETATM   19  O3  UNK     1      19.156   0.880  21.691  1.00  0.00    -0.361 OA
HETATM   20  H12 UNK     1      18.251   0.994  22.028  1.00  0.00     0.217 HD
ENDBRANCH  10  19
TORSDOF 2
ENDMDL
MODEL 4
REMARK VINA RESULT:      -7.9     21.472     23.943
REMARK  2 active torsions:
REMARK  status: ('A' for Active; 'I' for Inactive)
REMARK    1  A    between atoms: C9_12  and  O3_3 
REMARK    2  A    between atoms: C5_8  and  C6_9 
ROOT
HETATM    1  O1  UNK     1      13.902   7.365   8.964  1.00  0.00    -0.306 OA
HETATM    2  O2  UNK     1      15.827   4.452   9.555  1.00  0.00    -0.284 OA
HETATM    3  C1  UNK     1      15.995   6.834   9.785  1.00  0.00     0.051 A 
HETATM    4  C2  UNK     1      15.085   7.844   9.480  1.00  0.00     0.093 A 
HETATM    5  C3  UNK     1      14.040   5.982   8.928  1.00  0.00     0.127 A 
HETATM    6  C4  UNK     1      15.366   5.565   9.442  1.00  0.00     0.218 A 
HETATM    7  C6  UNK     1      13.104   5.139   8.488  1.00  0.00     0.053 C 
HETATM    8  C7  UNK     1      17.242   7.096  10.313  1.00  0.00     0.021 A 
HETATM    9  C8  UNK     1      15.391   9.170   9.694  1.00  0.00     0.074 A 
HETATM   10  C9  UNK     1      16.650   9.463  10.229  1.00  0.00     0.068 A 
HETATM   11  C10 UNK     1      17.566   8.435  10.535  1.00  0.00     0.037 A 
ENDROOT
BRANCH   7  12
HETATM   12  C5  UNK     1      11.819   5.535   7.989  1.00  0.00    -0.033 A 
HETATM   13  C11 UNK     1      10.709   5.613   8.848  1.00  0.00     0.012 A 
HETATM   14  C14 UNK     1       9.459   5.998   8.361  1.00  0.00     0.007 A 
HETATM   15  C13 UNK     1       9.301   6.310   7.011  1.00  0.00    -0.062 A 
HETATM   16  C15 UNK     1      10.393   6.236   6.146  1.00  0.00     0.007 A 
HETATM   17  C16 UNK     1       7.964   6.722   6.492  1.00  0.00     0.048 C 
HETATM   18  C12 UNK     1      11.643   5.852   6.632  1.00  0.00     0.012 A 
ENDBRANCH   7  12
BRANCH  10  19
HETATM   19  O3  UNK     1      16.998  10.761  10.459  1.00  0.00    -0.361 OA
HETATM   20  H12 UNK     1      17.822  10.956   9.980  1.00  0.00     0.217 HD
ENDBRANCH  10  19
TORSDOF 2
ENDMDL
MODEL 5
REMARK VINA RESULT:      -7.9      3.409      3.884
REMARK  2 active torsions:
REMARK  status: ('A' for Active; 'I' for Inactive)
REMARK    1  A    between atoms: C9_12  and  O3_3 
REMARK    2  A    between atoms: C5_8  and  C6_9 
ROOT
HETATM    1  O1  UNK     1      19.184   0.083  32.510  1.00  0.00    -0.306 OA
HETATM    2  O2  UNK     1      18.547   2.663  30.169  1.00  0.00    -0.284 OA
HETATM    3  C1  UNK     1      19.453   0.442  30.244  1.00  0.00     0.051 A 
HETATM    4  C2  UNK     1      19.620  -0.436  31.312  1.00  0.00     0.093 A 
HETATM    5  C3  UNK     1      18.709   1.356  32.218  1.00  0.00     0.127 A 
HETATM    6  C4  UNK     1      18.851   1.659  30.774  1.00  0.00     0.218 A 
HETATM    7  C6  UNK     1      18.194   2.197  33.117  1.00  0.00     0.053 C 
HETATM    8  C7  UNK     1      19.825   0.121  28.956  1.00  0.00     0.021 A 
HETATM    9  C8  UNK     1      20.172  -1.685  31.130  1.00  0.00     0.074 A 
HETATM   10  C9  UNK     1      20.558  -2.037  29.832  1.00  0.00     0.068 A 
HETATM   11  C10 UNK     1      20.386  -1.142  28.756  1.00  0.00     0.037 A 
ENDROOT
BRANCH   7  12
HETATM   12  C5  UNK     1      18.054   1.911  34.516  1.00  0.00    -0.033 A 
HETATM   13  C11 UNK     1      18.944   2.464  35.452  1.00  0.00     0.012 A 
HETATM   14  C14 UNK     1      18.808   2.185  36.813  1.00  0.00     0.007 A 
HETATM   15  C13 UNK     1      17.781   1.352  37.255  1.00  0.00    -0.062 A 
HETATM   16  C15 UNK     1      16.890   0.795  36.338  1.00  0.00     0.007 A 
HETATM   17  C16 UNK     1      17.636   1.055  38.710  1.00  0.00     0.048 C 
HETATM   18  C12 UNK     1      17.026   1.073  34.978  1.00  0.00     0.012 A 
ENDBRANCH   7  12
BRANCH  10  19
HETATM   19  O3  UNK     1      21.109  -3.263  29.602  1.00  0.00    -0.361 OA
HETATM   20  H12 UNK     1      20.837  -3.570  28.721  1.00  0.00     0.217 HD
ENDBRANCH  10  19
TORSDOF 2
ENDMDL
MODEL 6
REMARK VINA RESULT:      -7.9      4.391      8.697
REMARK  2 active torsions:
REMARK  status: ('A' for Active; 'I' for Inactive)
REMARK    1  A    between atoms: C9_12  and  O3_3 
REMARK    2  A    between atoms: C5_8  and  C6_9 
ROOT
HETATM    1  O1  UNK     1      16.739   7.649  32.364  1.00  0.00    -0.306 OA
HETATM    2  O2  UNK     1      19.153   9.391  34.283  1.00  0.00    -0.284 OA
HETATM    3  C1  UNK     1      16.848   9.571  33.641  1.00  0.00     0.051 A 
HETATM    4  C2  UNK     1      16.057   8.744  32.847  1.00  0.00     0.093 A 
HETATM    5  C3  UNK     1      18.032   7.761  32.862  1.00  0.00     0.127 A 
HETATM    6  C4  UNK     1      18.178   8.979  33.696  1.00  0.00     0.218 A 
HETATM    7  C6  UNK     1      19.014   6.890  32.623  1.00  0.00     0.053 C 
HETATM    8  C7  UNK     1      16.361  10.722  34.225  1.00  0.00     0.021 A 
HETATM    9  C8  UNK     1      14.734   9.040  32.602  1.00  0.00     0.074 A 
HETATM   10  C9  UNK     1      14.215  10.201  33.182  1.00  0.00     0.068 A 
HETATM   11  C10 UNK     1      15.022  11.035  33.986  1.00  0.00     0.037 A 
ENDROOT
BRANCH   7  12
HETATM   12  C5  UNK     1      18.880   5.711  31.817  1.00  0.00    -0.033 A 
HETATM   13  C11 UNK     1      19.263   5.720  30.465  1.00  0.00     0.012 A 
HETATM   14  C14 UNK     1      19.133   4.573  29.681  1.00  0.00     0.007 A 
HETATM   15  C13 UNK     1      18.619   3.402  30.238  1.00  0.00    -0.062 A 
HETATM   16  C15 UNK     1      18.235   3.378  31.578  1.00  0.00     0.007 A 
HETATM   17  C16 UNK     1      18.481   2.176  29.399  1.00  0.00     0.048 C 
HETATM   18  C12 UNK     1      18.365   4.524  32.362  1.00  0.00     0.012 A 
ENDBRANCH   7  12
BRANCH  10  19
HETATM   19  O3  UNK     1      12.911  10.536  32.969  1.00  0.00    -0.361 OA
HETATM   20  H12 UNK     1      12.568  10.988  33.759  1.00  0.00     0.217 HD
ENDBRANCH  10  19
TORSDOF 2
ENDMDL
MODEL 7
REMARK VINA RESULT:      -7.8      3.514      4.463
REMARK  2 active torsions:
REMARK  status: ('A' for Active; 'I' for Inactive)
REMARK    1  A    between atoms: C9_12  and  O3_3 
REMARK    2  A    between atoms: C5_8  and  C6_9 
ROOT
HETATM    1  O1  UNK     1      18.260   3.359  34.573  1.00  0.00    -0.306 OA
HETATM    2  O2  UNK     1      18.337   1.324  31.676  1.00  0.00    -0.284 OA
HETATM    3  C1  UNK     1      18.261   1.106  34.064  1.00  0.00     0.051 A 
HETATM    4  C2  UNK     1      18.236   2.074  35.065  1.00  0.00     0.093 A 
HETATM    5  C3  UNK     1      18.302   3.231  33.189  1.00  0.00     0.127 A 
HETATM    6  C4  UNK     1      18.305   1.805  32.786  1.00  0.00     0.218 A 
HETATM    7  C6  UNK     1      18.335   4.255  32.335  1.00  0.00     0.053 C 
HETATM    8  C7  UNK     1      18.243  -0.245  34.340  1.00  0.00     0.021 A 
HETATM    9  C8  UNK     1      18.193   1.723  36.397  1.00  0.00     0.074 A 
HETATM   10  C9  UNK     1      18.174   0.359  36.704  1.00  0.00     0.068 A 
HETATM   11  C10 UNK     1      18.199  -0.616  35.685  1.00  0.00     0.037 A 
ENDROOT
BRANCH   7  12
HETATM   12  C5  UNK     1      18.333   5.638  32.717  1.00  0.00    -0.033 A 
HETATM   13  C11 UNK     1      17.160   6.406  32.621  1.00  0.00     0.012 A 
HETATM   14  C14 UNK     1      17.158   7.751  32.992  1.00  0.00     0.007 A 
HETATM   15  C13 UNK     1      18.327   8.346  33.466  1.00  0.00    -0.062 A 
HETATM   16  C15 UNK     1      19.499   7.597  33.567  1.00  0.00     0.007 A 
HETATM   17  C16 UNK     1      18.324   9.784  33.864  1.00  0.00     0.048 C 
HETATM   18  C12 UNK     1      19.502   6.252  33.195  1.00  0.00     0.012 A 
ENDBRANCH   7  12
BRANCH  10  19
HETATM   19  O3  UNK     1      18.131  -0.037  38.008  1.00  0.00    -0.361 OA
HETATM   20  H12 UNK     1      18.951   0.242  38.450  1.00  0.00     0.217 HD
ENDBRANCH  10  19
TORSDOF 2
ENDMDL
MODEL 8
REMARK VINA RESULT:      -7.5      7.660      9.839
REMARK  2 active torsions:
REMARK  status: ('A' for Active; 'I' for Inactive)
REMARK    1  A    between atoms: C9_12  and  O3_3 
REMARK    2  A    between atoms: C5_8  and  C6_9 
ROOT
HETATM    1  O1  UNK     1      19.175  -5.056  36.813  1.00  0.00    -0.306 OA
HETATM    2  O2  UNK     1      22.509  -4.895  37.997  1.00  0.00    -0.284 OA
HETATM    3  C1  UNK     1      20.787  -6.517  37.591  1.00  0.00     0.051 A 
HETATM    4  C2  UNK     1      19.491  -6.365  37.103  1.00  0.00     0.093 A 
HETATM    5  C3  UNK     1      20.310  -4.317  37.124  1.00  0.00     0.127 A 
HETATM    6  C4  UNK     1      21.393  -5.192  37.633  1.00  0.00     0.218 A 
HETATM    7  C6  UNK     1      20.414  -2.994  36.984  1.00  0.00     0.053 C 
HETATM    8  C7  UNK     1      21.306  -7.745  37.943  1.00  0.00     0.021 A 
HETATM    9  C8  UNK     1      18.655  -7.448  36.946  1.00  0.00     0.074 A 
HETATM   10  C9  UNK     1      19.157  -8.706  37.295  1.00  0.00     0.068 A 
HETATM   11  C10 UNK     1      20.470  -8.852  37.790  1.00  0.00     0.037 A 
ENDROOT
BRANCH   7  12
HETATM   12  C5  UNK     1      19.370  -2.141  36.493  1.00  0.00    -0.033 A 
HETATM   13  C11 UNK     1      19.351  -1.734  35.148  1.00  0.00     0.012 A 
HETATM   14  C14 UNK     1      18.336  -0.903  34.671  1.00  0.00     0.007 A 
HETATM   15  C13 UNK     1      17.327  -0.469  35.531  1.00  0.00    -0.062 A 
HETATM   16  C15 UNK     1      17.333  -0.865  36.868  1.00  0.00     0.007 A 
HETATM   17  C16 UNK     1      16.242   0.417  35.019  1.00  0.00     0.048 C 
HETATM   18  C12 UNK     1      18.347  -1.695  37.346  1.00  0.00     0.012 A 
ENDBRANCH   7  12
BRANCH  10  19
HETATM   19  O3  UNK     1      18.367  -9.808  37.158  1.00  0.00    -0.361 OA
HETATM   20  H12 UNK     1      18.079 -10.102  38.039  1.00  0.00     0.217 HD
ENDBRANCH  10  19
TORSDOF 2
ENDMDL
MODEL 9
REMARK VINA RESULT:      -7.5      2.412      2.910
REMARK  2 active torsions:
REMARK  status: ('A' for Active; 'I' for Inactive)
REMARK    1  A    between atoms: C9_12  and  O3_3 
REMARK    2  A    between atoms: C5_8  and  C6_9 
ROOT
HETATM    1  O1  UNK     1      17.999   2.825  33.203  1.00  0.00    -0.306 OA
HETATM    2  O2  UNK     1      19.146   2.239  29.905  1.00  0.00    -0.284 OA
HETATM    3  C1  UNK     1      18.739   1.038  31.941  1.00  0.00     0.051 A 
HETATM    4  C2  UNK     1      18.267   1.476  33.177  1.00  0.00     0.093 A 
HETATM    5  C3  UNK     1      18.306   3.296  31.932  1.00  0.00     0.127 A 
HETATM    6  C4  UNK     1      18.791   2.198  31.061  1.00  0.00     0.218 A 
HETATM    7  C6  UNK     1      18.182   4.566  31.544  1.00  0.00     0.053 C 
HETATM    8  C7  UNK     1      19.069  -0.279  31.699  1.00  0.00     0.021 A 
HETATM    9  C8  UNK     1      18.106   0.602  34.230  1.00  0.00     0.074 A 
HETATM   10  C9  UNK     1      18.433  -0.740  34.011  1.00  0.00     0.068 A 
HETATM   11  C10 UNK     1      18.910  -1.176  32.757  1.00  0.00     0.037 A 
ENDROOT
BRANCH   7  12
HETATM   12  C5  UNK     1      17.715   5.633  32.380  1.00  0.00    -0.033 A 
HETATM   13  C11 UNK     1      18.513   6.126  33.426  1.00  0.00     0.012 A 
HETATM   14  C14 UNK     1      18.057   7.163  34.241  1.00  0.00     0.007 A 
HETATM   15  C13 UNK     1      16.799   7.723  34.020  1.00  0.00    -0.062 A 
HETATM   16  C15 UNK     1      15.995   7.245  32.986  1.00  0.00     0.007 A 
HETATM   17  C16 UNK     1      16.313   8.833  34.890  1.00  0.00     0.048 C 
HETATM   18  C12 UNK     1      16.450   6.207  32.171  1.00  0.00     0.012 A 
ENDBRANCH   7  12
BRANCH  10  19
HETATM   19  O3  UNK     1      18.290  -1.642  35.023  1.00  0.00    -0.361 OA
HETATM   20  H12 UNK     1      18.655  -1.260  35.840  1.00  0.00     0.217 HD
ENDBRANCH  10  19
TORSDOF 2
ENDMDL
MODEL 10
REMARK VINA RESULT:      -7.5      7.125     10.263
REMARK  2 active torsions:
REMARK  status: ('A' for Active; 'I' for Inactive)
REMARK    1  A    between atoms: C9_12  and  O3_3 
REMARK    2  A    between atoms: C5_8  and  C6_9 
ROOT
HETATM    1  O1  UNK     1      18.790  -2.426  36.989  1.00  0.00    -0.306 OA
HETATM    2  O2  UNK     1      20.106  -1.770  33.767  1.00  0.00    -0.284 OA
HETATM    3  C1  UNK     1      18.803  -0.688  35.467  1.00  0.00     0.051 A 
HETATM    4  C2  UNK     1      18.378  -1.142  36.713  1.00  0.00     0.093 A 
HETATM    5  C3  UNK     1      19.517  -2.835  35.877  1.00  0.00     0.127 A 
HETATM    6  C4  UNK     1      19.568  -1.765  34.851  1.00  0.00     0.218 A 
HETATM    7  C6  UNK     1      20.093  -4.031  35.746  1.00  0.00     0.053 C 
HETATM    8  C7  UNK     1      18.499   0.571  34.994  1.00  0.00     0.021 A 
HETATM    9  C8  UNK     1      17.624  -0.343  37.545  1.00  0.00     0.074 A 
HETATM   10  C9  UNK     1      17.302   0.940  37.090  1.00  0.00     0.068 A 
HETATM   11  C10 UNK     1      17.736   1.392  35.826  1.00  0.00     0.037 A 
ENDROOT
BRANCH   7  12
HETATM   12  C5  UNK     1      20.047  -5.071  36.733  1.00  0.00    -0.033 A 
HETATM   13  C11 UNK     1      21.049  -5.173  37.713  1.00  0.00     0.012 A 
HETATM   14  C14 UNK     1      21.005  -6.185  38.672  1.00  0.00     0.007 A 
HETATM   15  C13 UNK     1      19.959  -7.108  38.667  1.00  0.00    -0.062 A 
HETATM   16  C15 UNK     1      18.957  -7.019  37.701  1.00  0.00     0.007 A 
HETATM   17  C16 UNK     1      19.912  -8.188  39.694  1.00  0.00     0.048 C 
HETATM   18  C12 UNK     1      19.000  -6.008  36.741  1.00  0.00     0.012 A 
ENDBRANCH   7  12
BRANCH  10  19
HETATM   19  O3  UNK     1      16.558   1.767  37.877  1.00  0.00    -0.361 OA
HETATM   20  H12 UNK     1      16.324   2.562  37.368  1.00  0.00     0.217 HD
ENDBRANCH  10  19
TORSDOF 2
ENDMDL
