MODEL 1
REMARK VINA RESULT:      -9.2      0.000      0.000
REMARK  4 active torsions:
REMARK  status: ('A' for Active; 'I' for Inactive)
REMARK    1  A    between atoms: C11_18  and  O1_2 
REMARK    2  A    between atoms: C10_17  and  N1_7 
REMARK       I    between atoms: C12_19  and  N1_7 
REMARK    3  A    between atoms: C11_18  and  C9_16 
REMARK    4  A    between atoms: C12_19  and  C13_20 
ROOT
HETATM    1  S1  UNK     1      18.805   2.544  29.877  1.00  0.00    -0.075 SA
HETATM    2  C1  UNK     1      21.168  -1.189  31.259  1.00  0.00     0.000 C 
HETATM    3  C2  UNK     1      20.038  -1.443  32.265  1.00  0.00     0.005 C 
HETATM    4  C3  UNK     1      20.898  -1.679  29.834  1.00  0.00     0.000 C 
HETATM    5  C4  UNK     1      18.646  -0.961  31.857  1.00  0.00     0.041 C 
HETATM    6  C5  UNK     1      20.562  -0.568  28.827  1.00  0.00     0.005 C 
HETATM    7  C6  UNK     1      18.632   0.457  31.379  1.00  0.00    -0.026 A 
HETATM    8  C7  UNK     1      19.127  -0.039  28.882  1.00  0.00     0.046 C 
HETATM    9  C8  UNK     1      18.860   0.842  30.067  1.00  0.00    -0.008 A 
HETATM   10  C9  UNK     1      18.405   1.593  32.222  1.00  0.00     0.080 A 
HETATM   11  C10 UNK     1      18.471   2.783  31.534  1.00  0.00     0.094 A 
ENDROOT
BRANCH  11  12
HETATM   12  N1  UNK     1      18.320   4.079  31.950  1.00  0.00    -0.316 N 
HETATM   13  C12 UNK     1      19.032   5.228  31.538  1.00  0.00     0.262 C 
HETATM   14  O4  UNK     1      19.936   5.287  30.714  1.00  0.00    -0.267 OA
HETATM   15  H13 UNK     1      17.583   4.208  32.638  1.00  0.00     0.169 HD
BRANCH  13  16
HETATM   16  C13 UNK     1      18.585   6.465  32.213  1.00  0.00     0.108 A 
HETATM   17  C14 UNK     1      17.343   6.874  31.936  1.00  0.00     0.037 A 
HETATM   18  C15 UNK     1      16.813   8.082  32.551  1.00  0.00    -0.001 A 
HETATM   19  C17 UNK     1      17.620   8.799  33.428  1.00  0.00     0.089 A 
HETATM   20  C19 UNK     1      15.522   8.546  32.291  1.00  0.00     0.014 A 
HETATM   21  O3  UNK     1      18.928   8.363  33.716  1.00  0.00    -0.274 OA
HETATM   22  C20 UNK     1      17.174   9.964  34.050  1.00  0.00     0.038 A 
HETATM   23  C16 UNK     1      19.462   7.212  33.143  1.00  0.00     0.304 A 
HETATM   24  O5  UNK     1      20.602   6.841  33.399  1.00  0.00    -0.259 OA
HETATM   25  C22 UNK     1      15.885  10.420  33.785  1.00  0.00     0.003 A 
HETATM   26  C21 UNK     1      15.060   9.713  32.907  1.00  0.00     0.001 A 
ENDBRANCH  13  16
ENDBRANCH  11  12
BRANCH  10  27
HETATM   27  C11 UNK     1      18.145   1.546  33.640  1.00  0.00     0.296 C 
HETATM   28  O2  UNK     1      18.993   1.758  34.527  1.00  0.00    -0.259 OA
BRANCH  27  29
HETATM   29  O1  UNK     1      16.837   1.235  33.914  1.00  0.00    -0.322 OA
HETATM   30  C18 UNK     1      16.594   0.223  34.895  1.00  0.00     0.213 C 
ENDBRANCH  27  29
ENDBRANCH  10  27
TORSDOF 4
ENDMDL
MODEL 2
REMARK VINA RESULT:      -9.2     16.212     19.393
REMARK  4 active torsions:
REMARK  status: ('A' for Active; 'I' for Inactive)
REMARK    1  A    between atoms: C11_18  and  O1_2 
REMARK    2  A    between atoms: C10_17  and  N1_7 
REMARK       I    between atoms: C12_19  and  N1_7 
REMARK    3  A    between atoms: C11_18  and  C9_16 
REMARK    4  A    between atoms: C12_19  and  C13_20 
ROOT
HETATM    1  S1  UNK     1      19.155  -4.234  11.620  1.00  0.00    -0.075 SA
HETATM    2  C1  UNK     1      22.359  -7.515  10.987  1.00  0.00     0.000 C 
HETATM    3  C2  UNK     1      21.892  -8.126  12.313  1.00  0.00     0.005 C 
HETATM    4  C3  UNK     1      21.507  -7.873   9.765  1.00  0.00     0.000 C 
HETATM    5  C4  UNK     1      20.424  -7.908  12.682  1.00  0.00     0.041 C 
HETATM    6  C5  UNK     1      20.588  -6.744   9.272  1.00  0.00     0.005 C 
HETATM    7  C6  UNK     1      19.997  -6.477  12.569  1.00  0.00    -0.026 A 
HETATM    8  C7  UNK     1      19.298  -6.547  10.071  1.00  0.00     0.046 C 
HETATM    9  C8  UNK     1      19.516  -5.895  11.405  1.00  0.00    -0.008 A 
HETATM   10  C9  UNK     1      20.053  -5.529  13.640  1.00  0.00     0.080 A 
HETATM   11  C10 UNK     1      19.624  -4.277  13.261  1.00  0.00     0.094 A 
ENDROOT
BRANCH  11  12
HETATM   12  N1  UNK     1      19.522  -3.105  13.961  1.00  0.00    -0.316 N 
HETATM   13  C12 UNK     1      18.683  -2.801  15.058  1.00  0.00     0.262 C 
HETATM   14  O4  UNK     1      17.874  -3.542  15.602  1.00  0.00    -0.267 OA
HETATM   15  H13 UNK     1      20.151  -2.375  13.639  1.00  0.00     0.169 HD
BRANCH  13  16
HETATM   16  C13 UNK     1      18.851  -1.421  15.557  1.00  0.00     0.108 A 
HETATM   17  C14 UNK     1      18.707  -1.247  16.876  1.00  0.00     0.037 A 
HETATM   18  C15 UNK     1      18.854   0.075  17.463  1.00  0.00    -0.001 A 
HETATM   19  C17 UNK     1      19.145   1.151  16.630  1.00  0.00     0.089 A 
HETATM   20  C19 UNK     1      18.712   0.303  18.833  1.00  0.00     0.014 A 
HETATM   21  O3  UNK     1      19.295   0.963  15.242  1.00  0.00    -0.274 OA
HETATM   22  C20 UNK     1      19.297   2.444  17.128  1.00  0.00     0.038 A 
HETATM   23  C16 UNK     1      19.161  -0.291  14.652  1.00  0.00     0.304 A 
HETATM   24  O5  UNK     1      19.293  -0.445  13.444  1.00  0.00    -0.259 OA
HETATM   25  C22 UNK     1      19.154   2.662  18.497  1.00  0.00     0.003 A 
HETATM   26  C21 UNK     1      18.862   1.594  19.348  1.00  0.00     0.001 A 
ENDBRANCH  13  16
ENDBRANCH  11  12
BRANCH  10  27
HETATM   27  C11 UNK     1      20.512  -5.804  14.980  1.00  0.00     0.296 C 
HETATM   28  O2  UNK     1      19.793  -6.216  15.908  1.00  0.00    -0.259 OA
BRANCH  27  29
HETATM   29  O1  UNK     1      21.854  -5.557  15.125  1.00  0.00    -0.322 OA
HETATM   30  C18 UNK     1      22.246  -4.638  16.150  1.00  0.00     0.213 C 
ENDBRANCH  27  29
ENDBRANCH  10  27
TORSDOF 4
ENDMDL
MODEL 3
REMARK VINA RESULT:      -9.1      6.370     12.292
REMARK  4 active torsions:
REMARK  status: ('A' for Active; 'I' for Inactive)
REMARK    1  A    between atoms: C11_18  and  O1_2 
REMARK    2  A    between atoms: C10_17  and  N1_7 
REMARK       I    between atoms: C12_19  and  N1_7 
REMARK    3  A    between atoms: C11_18  and  C9_16 
REMARK    4  A    between atoms: C12_19  and  C13_20 
ROOT
HETATM    1  S1  UNK     1      18.092  -2.269  37.405  1.00  0.00    -0.075 SA
HETATM    2  C1  UNK     1      18.980   2.041  35.967  1.00  0.00     0.000 C 
HETATM    3  C2  UNK     1      18.851   1.513  34.533  1.00  0.00     0.005 C 
HETATM    4  C3  UNK     1      17.657   2.366  36.668  1.00  0.00     0.000 C 
HETATM    5  C4  UNK     1      17.906   0.328  34.330  1.00  0.00     0.041 C 
HETATM    6  C5  UNK     1      17.222   1.339  37.723  1.00  0.00     0.005 C 
HETATM    7  C6  UNK     1      18.150  -0.790  35.295  1.00  0.00    -0.026 A 
HETATM    8  C7  UNK     1      16.580   0.062  37.177  1.00  0.00     0.046 C 
HETATM    9  C8  UNK     1      17.565  -0.881  36.549  1.00  0.00    -0.008 A 
HETATM   10  C9  UNK     1      19.033  -1.891  35.052  1.00  0.00     0.080 A 
HETATM   11  C10 UNK     1      19.093  -2.765  36.114  1.00  0.00     0.094 A 
ENDROOT
BRANCH  11  12
HETATM   12  N1  UNK     1      19.802  -3.922  36.295  1.00  0.00    -0.316 N 
HETATM   13  C12 UNK     1      19.316  -5.239  36.460  1.00  0.00     0.262 C 
HETATM   14  O4  UNK     1      18.148  -5.604  36.472  1.00  0.00    -0.267 OA
HETATM   15  H13 UNK     1      20.810  -3.793  36.295  1.00  0.00     0.169 HD
BRANCH  13  16
HETATM   16  C13 UNK     1      20.390  -6.240  36.630  1.00  0.00     0.108 A 
HETATM   17  C14 UNK     1      20.309  -7.331  35.860  1.00  0.00     0.037 A 
HETATM   18  C15 UNK     1      21.319  -8.374  35.955  1.00  0.00    -0.001 A 
HETATM   19  C17 UNK     1      22.364  -8.216  36.859  1.00  0.00     0.089 A 
HETATM   20  C19 UNK     1      21.274  -9.529  35.171  1.00  0.00     0.014 A 
HETATM   21  O3  UNK     1      22.445  -7.065  37.667  1.00  0.00    -0.274 OA
HETATM   22  C20 UNK     1      23.364  -9.177  37.000  1.00  0.00     0.038 A 
HETATM   23  C16 UNK     1      21.494  -6.051  37.598  1.00  0.00     0.304 A 
HETATM   24  O5  UNK     1      21.572  -5.054  38.307  1.00  0.00    -0.259 OA
HETATM   25  C22 UNK     1      23.312 -10.327  36.214  1.00  0.00     0.003 A 
HETATM   26  C21 UNK     1      22.269 -10.502  35.301  1.00  0.00     0.001 A 
ENDBRANCH  13  16
ENDBRANCH  11  12
BRANCH  10  27
HETATM   27  C11 UNK     1      19.805  -2.097  33.851  1.00  0.00     0.296 C 
HETATM   28  O2  UNK     1      20.967  -2.542  33.819  1.00  0.00    -0.259 OA
BRANCH  27  29
HETATM   29  O1  UNK     1      19.107  -1.743  32.723  1.00  0.00    -0.322 OA
HETATM   30  C18 UNK     1      19.868  -1.403  31.560  1.00  0.00     0.213 C 
ENDBRANCH  27  29
ENDBRANCH  10  27
TORSDOF 4
ENDMDL
MODEL 4
REMARK VINA RESULT:      -8.9      7.453     10.543
REMARK  4 active torsions:
REMARK  status: ('A' for Active; 'I' for Inactive)
REMARK    1  A    between atoms: C11_18  and  O1_2 
REMARK    2  A    between atoms: C10_17  and  N1_7 
REMARK       I    between atoms: C12_19  and  N1_7 
REMARK    3  A    between atoms: C11_18  and  C9_16 
REMARK    4  A    between atoms: C12_19  and  C13_20 
ROOT
HETATM    1  S1  UNK     1      20.501  -6.332  38.611  1.00  0.00    -0.075 SA
HETATM    2  C1  UNK     1      19.031 -10.676  37.981  1.00  0.00     0.000 C 
HETATM    3  C2  UNK     1      19.783 -10.661  36.644  1.00  0.00     0.005 C 
HETATM    4  C3  UNK     1      19.891 -10.967  39.214  1.00  0.00     0.000 C 
HETATM    5  C4  UNK     1      21.023  -9.769  36.575  1.00  0.00     0.041 C 
HETATM    6  C5  UNK     1      20.197  -9.739  40.085  1.00  0.00     0.005 C 
HETATM    7  C6  UNK     1      20.775  -8.378  37.068  1.00  0.00    -0.026 A 
HETATM    8  C7  UNK     1      21.308  -8.823  39.568  1.00  0.00     0.046 C 
HETATM    9  C8  UNK     1      20.893  -7.986  38.393  1.00  0.00    -0.008 A 
HETATM   10  C9  UNK     1      20.362  -7.286  36.238  1.00  0.00     0.080 A 
HETATM   11  C10 UNK     1      20.179  -6.122  36.948  1.00  0.00     0.094 A 
ENDROOT
BRANCH  11  12
HETATM   12  N1  UNK     1      19.793  -4.870  36.550  1.00  0.00    -0.316 N 
HETATM   13  C12 UNK     1      20.545  -3.673  36.545  1.00  0.00     0.262 C 
HETATM   14  O4  UNK     1      21.707  -3.524  36.900  1.00  0.00    -0.267 OA
HETATM   15  H13 UNK     1      18.838  -4.823  36.205  1.00  0.00     0.169 HD
BRANCH  13  16
HETATM   16  C13 UNK     1      19.787  -2.509  36.040  1.00  0.00     0.108 A 
HETATM   17  C14 UNK     1      18.941  -1.936  36.902  1.00  0.00     0.037 A 
HETATM   18  C15 UNK     1      18.149  -0.784  36.498  1.00  0.00    -0.001 A 
HETATM   19  C17 UNK     1      18.287  -0.294  35.204  1.00  0.00     0.089 A 
HETATM   20  C19 UNK     1      17.253  -0.153  37.365  1.00  0.00     0.014 A 
HETATM   21  O3  UNK     1      19.180  -0.902  34.300  1.00  0.00    -0.274 OA
HETATM   22  C20 UNK     1      17.559   0.806  34.753  1.00  0.00     0.038 A 
HETATM   23  C16 UNK     1      19.951  -2.004  34.657  1.00  0.00     0.304 A 
HETATM   24  O5  UNK     1      20.724  -2.527  33.864  1.00  0.00    -0.259 OA
HETATM   25  C22 UNK     1      16.668   1.429  35.625  1.00  0.00     0.003 A 
HETATM   26  C21 UNK     1      16.515   0.950  36.928  1.00  0.00     0.001 A 
ENDBRANCH  13  16
ENDBRANCH  11  12
BRANCH  10  27
HETATM   27  C11 UNK     1      20.137  -7.354  34.815  1.00  0.00     0.296 C 
HETATM   28  O2  UNK     1      20.995  -7.675  33.973  1.00  0.00    -0.259 OA
BRANCH  27  29
HETATM   29  O1  UNK     1      18.848  -7.019  34.481  1.00  0.00    -0.322 OA
HETATM   30  C18 UNK     1      17.796  -7.624  35.238  1.00  0.00     0.213 C 
ENDBRANCH  27  29
ENDBRANCH  10  27
TORSDOF 4
ENDMDL
MODEL 5
REMARK VINA RESULT:      -8.7     14.810     17.129
REMARK  4 active torsions:
REMARK  status: ('A' for Active; 'I' for Inactive)
REMARK    1  A    between atoms: C11_18  and  O1_2 
REMARK    2  A    between atoms: C10_17  and  N1_7 
REMARK       I    between atoms: C12_19  and  N1_7 
REMARK    3  A    between atoms: C11_18  and  C9_16 
REMARK    4  A    between atoms: C12_19  and  C13_20 
ROOT
HETATM    1  S1  UNK     1      30.028  -8.885  36.255  1.00  0.00    -0.075 SA
HETATM    2  C1  UNK     1      32.798  -5.186  35.982  1.00  0.00     0.000 C 
HETATM    3  C2  UNK     1      32.490  -4.935  37.463  1.00  0.00     0.005 C 
HETATM    4  C3  UNK     1      33.884  -6.230  35.707  1.00  0.00     0.000 C 
HETATM    5  C4  UNK     1      32.181  -6.170  38.310  1.00  0.00     0.041 C 
HETATM    6  C5  UNK     1      33.358  -7.585  35.209  1.00  0.00     0.005 C 
HETATM    7  C6  UNK     1      31.154  -7.065  37.691  1.00  0.00    -0.026 A 
HETATM    8  C7  UNK     1      32.790  -8.509  36.288  1.00  0.00     0.046 C 
HETATM    9  C8  UNK     1      31.443  -8.081  36.793  1.00  0.00    -0.008 A 
HETATM   10  C9  UNK     1      29.745  -6.969  37.932  1.00  0.00     0.080 A 
HETATM   11  C10 UNK     1      29.023  -7.897  37.217  1.00  0.00     0.094 A 
ENDROOT
BRANCH  11  12
HETATM   12  N1  UNK     1      27.677  -8.142  37.154  1.00  0.00    -0.316 N 
HETATM   13  C12 UNK     1      26.940  -9.187  37.757  1.00  0.00     0.262 C 
HETATM   14  O4  UNK     1      27.372 -10.089  38.465  1.00  0.00    -0.267 OA
HETATM   15  H13 UNK     1      27.158  -7.462  36.606  1.00  0.00     0.169 HD
BRANCH  13  16
HETATM   16  C13 UNK     1      25.493  -9.127  37.464  1.00  0.00     0.108 A 
HETATM   17  C14 UNK     1      25.001 -10.114  36.708  1.00  0.00     0.037 A 
HETATM   18  C15 UNK     1      23.588 -10.142  36.364  1.00  0.00    -0.001 A 
HETATM   19  C17 UNK     1      22.762  -9.125  36.834  1.00  0.00     0.089 A 
HETATM   20  C19 UNK     1      23.031 -11.153  35.578  1.00  0.00     0.014 A 
HETATM   21  O3  UNK     1      23.286  -8.087  37.629  1.00  0.00    -0.274 OA
HETATM   22  C20 UNK     1      21.400  -9.091  36.541  1.00  0.00     0.038 A 
HETATM   23  C16 UNK     1      24.633  -8.035  37.975  1.00  0.00     0.304 A 
HETATM   24  O5  UNK     1      25.080  -7.127  38.667  1.00  0.00    -0.259 OA
HETATM   25  C22 UNK     1      20.853 -10.105  35.756  1.00  0.00     0.003 A 
HETATM   26  C21 UNK     1      21.667 -11.133  35.276  1.00  0.00     0.001 A 
ENDBRANCH  13  16
ENDBRANCH  11  12
BRANCH  10  27
HETATM   27  C11 UNK     1      29.108  -6.015  38.807  1.00  0.00     0.296 C 
HETATM   28  O2  UNK     1      28.447  -6.309  39.820  1.00  0.00    -0.259 OA
BRANCH  27  29
HETATM   29  O1  UNK     1      29.312  -4.722  38.394  1.00  0.00    -0.322 OA
HETATM   30  C18 UNK     1      29.528  -3.736  39.408  1.00  0.00     0.213 C 
ENDBRANCH  27  29
ENDBRANCH  10  27
TORSDOF 4
ENDMDL
MODEL 6
REMARK VINA RESULT:      -8.7     15.233     18.316
REMARK  4 active torsions:
REMARK  status: ('A' for Active; 'I' for Inactive)
REMARK    1  A    between atoms: C11_18  and  O1_2 
REMARK    2  A    between atoms: C10_17  and  N1_7 
REMARK       I    between atoms: C12_19  and  N1_7 
REMARK    3  A    between atoms: C11_18  and  C9_16 
REMARK    4  A    between atoms: C12_19  and  C13_20 
ROOT
HETATM    1  S1  UNK     1      19.232  -2.069  12.281  1.00  0.00    -0.075 SA
HETATM    2  C1  UNK     1      21.288  -6.064  11.164  1.00  0.00     0.000 C 
HETATM    3  C2  UNK     1      20.312  -6.752  12.126  1.00  0.00     0.005 C 
HETATM    4  C3  UNK     1      20.731  -5.765   9.769  1.00  0.00     0.000 C 
HETATM    5  C4  UNK     1      18.945  -6.088  12.296  1.00  0.00     0.041 C 
HETATM    6  C5  UNK     1      20.383  -4.289   9.521  1.00  0.00     0.005 C 
HETATM    7  C6  UNK     1      19.036  -4.621  12.581  1.00  0.00    -0.026 A 
HETATM    8  C7  UNK     1      19.055  -3.815  10.115  1.00  0.00     0.046 C 
HETATM    9  C8  UNK     1      19.097  -3.638  11.605  1.00  0.00    -0.008 A 
HETATM   10  C9  UNK     1      19.096  -4.054  13.895  1.00  0.00     0.080 A 
HETATM   11  C10 UNK     1      19.202  -2.682  13.874  1.00  0.00     0.094 A 
ENDROOT
BRANCH  11  12
HETATM   12  N1  UNK     1      19.288  -1.766  14.887  1.00  0.00    -0.316 N 
HETATM   13  C12 UNK     1      18.367  -1.513  15.930  1.00  0.00     0.262 C 
HETATM   14  O4  UNK     1      17.299  -2.076  16.132  1.00  0.00    -0.267 OA
HETATM   15  H13 UNK     1      20.141  -1.214  14.874  1.00  0.00     0.169 HD
BRANCH  13  16
HETATM   16  C13 UNK     1      18.804  -0.439  16.847  1.00  0.00     0.108 A 
HETATM   17  C14 UNK     1      18.791  -0.733  18.152  1.00  0.00     0.037 A 
HETATM   18  C15 UNK     1      19.203   0.259  19.133  1.00  0.00    -0.001 A 
HETATM   19  C17 UNK     1      19.608   1.514  18.690  1.00  0.00     0.089 A 
HETATM   20  C19 UNK     1      19.206  -0.005  20.504  1.00  0.00     0.014 A 
HETATM   21  O3  UNK     1      19.619   1.819  17.315  1.00  0.00    -0.274 OA
HETATM   22  C20 UNK     1      20.014   2.510  19.576  1.00  0.00     0.038 A 
HETATM   23  C16 UNK     1      19.231   0.890  16.353  1.00  0.00     0.304 A 
HETATM   24  O5  UNK     1      19.244   1.165  15.159  1.00  0.00    -0.259 OA
HETATM   25  C22 UNK     1      20.013   2.238  20.943  1.00  0.00     0.003 A 
HETATM   26  C21 UNK     1      19.610   0.983  21.406  1.00  0.00     0.001 A 
ENDBRANCH  13  16
ENDBRANCH  11  12
BRANCH  10  27
HETATM   27  C11 UNK     1      19.064  -4.797  15.131  1.00  0.00     0.296 C 
HETATM   28  O2  UNK     1      20.060  -5.057  15.832  1.00  0.00    -0.259 OA
BRANCH  27  29
HETATM   29  O1  UNK     1      17.793  -5.197  15.459  1.00  0.00    -0.322 OA
HETATM   30  C18 UNK     1      17.575  -6.597  15.657  1.00  0.00     0.213 C 
ENDBRANCH  27  29
ENDBRANCH  10  27
TORSDOF 4
ENDMDL
MODEL 7
REMARK VINA RESULT:      -8.7     13.978     16.541
REMARK  4 active torsions:
REMARK  status: ('A' for Active; 'I' for Inactive)
REMARK    1  A    between atoms: C11_18  and  O1_2 
REMARK    2  A    between atoms: C10_17  and  N1_7 
REMARK       I    between atoms: C12_19  and  N1_7 
REMARK    3  A    between atoms: C11_18  and  C9_16 
REMARK    4  A    between atoms: C12_19  and  C13_20 
ROOT
HETATM    1  S1  UNK     1      29.260  -9.248  36.604  1.00  0.00    -0.075 SA
HETATM    2  C1  UNK     1      32.451  -5.978  35.862  1.00  0.00     0.000 C 
HETATM    3  C2  UNK     1      32.252  -5.553  37.322  1.00  0.00     0.005 C 
HETATM    4  C3  UNK     1      33.384  -7.174  35.649  1.00  0.00     0.000 C 
HETATM    5  C4  UNK     1      31.835  -6.654  38.298  1.00  0.00     0.041 C 
HETATM    6  C5  UNK     1      32.669  -8.490  35.308  1.00  0.00     0.005 C 
HETATM    7  C6  UNK     1      30.674  -7.463  37.810  1.00  0.00    -0.026 A 
HETATM    8  C7  UNK     1      32.045  -9.230  36.494  1.00  0.00     0.046 C 
HETATM    9  C8  UNK     1      30.789  -8.587  37.005  1.00  0.00    -0.008 A 
HETATM   10  C9  UNK     1      29.303  -7.164  38.094  1.00  0.00     0.080 A 
HETATM   11  C10 UNK     1      28.435  -8.053  37.501  1.00  0.00     0.094 A 
ENDROOT
BRANCH  11  12
HETATM   12  N1  UNK     1      27.068  -8.129  37.515  1.00  0.00    -0.316 N 
HETATM   13  C12 UNK     1      26.219  -8.607  38.538  1.00  0.00     0.262 C 
HETATM   14  O4  UNK     1      26.549  -9.054  39.630  1.00  0.00    -0.267 OA
HETATM   15  H13 UNK     1      26.627  -7.776  36.670  1.00  0.00     0.169 HD
BRANCH  13  16
HETATM   16  C13 UNK     1      24.785  -8.532  38.191  1.00  0.00     0.108 A 
HETATM   17  C14 UNK     1      24.033  -7.731  38.955  1.00  0.00     0.037 A 
HETATM   18  C15 UNK     1      22.609  -7.591  38.692  1.00  0.00    -0.001 A 
HETATM   19  C17 UNK     1      22.047  -8.302  37.637  1.00  0.00     0.089 A 
HETATM   20  C19 UNK     1      21.785  -6.767  39.462  1.00  0.00     0.014 A 
HETATM   21  O3  UNK     1      22.844  -9.144  36.835  1.00  0.00    -0.274 OA
HETATM   22  C20 UNK     1      20.690  -8.214  37.331  1.00  0.00     0.038 A 
HETATM   23  C16 UNK     1      24.208  -9.298  37.062  1.00  0.00     0.304 A 
HETATM   24  O5  UNK     1      24.893 -10.033  36.361  1.00  0.00    -0.259 OA
HETATM   25  C22 UNK     1      19.876  -7.389  38.105  1.00  0.00     0.003 A 
HETATM   26  C21 UNK     1      20.423  -6.667  39.169  1.00  0.00     0.001 A 
ENDBRANCH  13  16
ENDBRANCH  11  12
BRANCH  10  27
HETATM   27  C11 UNK     1      28.834  -6.060  38.894  1.00  0.00     0.296 C 
HETATM   28  O2  UNK     1      28.233  -6.170  39.978  1.00  0.00    -0.259 OA
BRANCH  27  29
HETATM   29  O1  UNK     1      29.127  -4.847  38.320  1.00  0.00    -0.322 OA
HETATM   30  C18 UNK     1      29.552  -3.795  39.191  1.00  0.00     0.213 C 
ENDBRANCH  27  29
ENDBRANCH  10  27
TORSDOF 4
ENDMDL
MODEL 8
REMARK VINA RESULT:      -8.6     13.513     16.368
REMARK  4 active torsions:
REMARK  status: ('A' for Active; 'I' for Inactive)
REMARK    1  A    between atoms: C11_18  and  O1_2 
REMARK    2  A    between atoms: C10_17  and  N1_7 
REMARK       I    between atoms: C12_19  and  N1_7 
REMARK    3  A    between atoms: C11_18  and  C9_16 
REMARK    4  A    between atoms: C12_19  and  C13_20 
ROOT
HETATM    1  S1  UNK     1      29.211  -9.345  36.766  1.00  0.00    -0.075 SA
HETATM    2  C1  UNK     1      32.487  -7.493  34.071  1.00  0.00     0.000 C 
HETATM    3  C2  UNK     1      32.833  -6.572  35.247  1.00  0.00     0.005 C 
HETATM    4  C3  UNK     1      33.097  -8.896  34.136  1.00  0.00     0.000 C 
HETATM    5  C4  UNK     1      32.576  -7.133  36.646  1.00  0.00     0.041 C 
HETATM    6  C5  UNK     1      32.106 -10.007  34.519  1.00  0.00     0.005 C 
HETATM    7  C6  UNK     1      31.205  -7.713  36.803  1.00  0.00    -0.026 A 
HETATM    8  C7  UNK     1      31.781 -10.116  36.010  1.00  0.00     0.046 C 
HETATM    9  C8  UNK     1      30.874  -9.026  36.504  1.00  0.00    -0.008 A 
HETATM   10  C9  UNK     1      30.063  -6.979  37.258  1.00  0.00     0.080 A 
HETATM   11  C10 UNK     1      28.920  -7.745  37.286  1.00  0.00     0.094 A 
ENDROOT
BRANCH  11  12
HETATM   12  N1  UNK     1      27.635  -7.440  37.647  1.00  0.00    -0.316 N 
HETATM   13  C12 UNK     1      26.945  -7.781  38.833  1.00  0.00     0.262 C 
HETATM   14  O4  UNK     1      27.373  -8.425  39.783  1.00  0.00    -0.267 OA
HETATM   15  H13 UNK     1      27.134  -6.883  36.960  1.00  0.00     0.169 HD
BRANCH  13  16
HETATM   16  C13 UNK     1      25.559  -7.272  38.870  1.00  0.00     0.108 A 
HETATM   17  C14 UNK     1      24.593  -8.191  38.977  1.00  0.00     0.037 A 
HETATM   18  C15 UNK     1      23.196  -7.787  39.021  1.00  0.00    -0.001 A 
HETATM   19  C17 UNK     1      22.885  -6.434  38.948  1.00  0.00     0.089 A 
HETATM   20  C19 UNK     1      22.156  -8.712  39.132  1.00  0.00     0.014 A 
HETATM   21  O3  UNK     1      23.906  -5.469  38.835  1.00  0.00    -0.274 OA
HETATM   22  C20 UNK     1      21.568  -5.980  38.984  1.00  0.00     0.038 A 
HETATM   23  C16 UNK     1      25.251  -5.825  38.792  1.00  0.00     0.304 A 
HETATM   24  O5  UNK     1      26.132  -4.979  38.693  1.00  0.00    -0.259 OA
HETATM   25  C22 UNK     1      20.536  -6.910  39.095  1.00  0.00     0.003 A 
HETATM   26  C21 UNK     1      20.830  -8.273  39.169  1.00  0.00     0.001 A 
ENDBRANCH  13  16
ENDBRANCH  11  12
BRANCH  10  27
HETATM   27  C11 UNK     1      30.058  -5.589  37.643  1.00  0.00     0.296 C 
HETATM   28  O2  UNK     1      30.371  -4.643  36.898  1.00  0.00    -0.259 OA
BRANCH  27  29
HETATM   29  O1  UNK     1      29.664  -5.417  38.947  1.00  0.00    -0.322 OA
HETATM   30  C18 UNK     1      29.490  -4.074  39.408  1.00  0.00     0.213 C 
ENDBRANCH  27  29
ENDBRANCH  10  27
TORSDOF 4
ENDMDL
MODEL 9
REMARK VINA RESULT:      -8.5     12.128     16.291
REMARK  4 active torsions:
REMARK  status: ('A' for Active; 'I' for Inactive)
REMARK    1  A    between atoms: C11_18  and  O1_2 
REMARK    2  A    between atoms: C10_17  and  N1_7 
REMARK       I    between atoms: C12_19  and  N1_7 
REMARK    3  A    between atoms: C11_18  and  C9_16 
REMARK    4  A    between atoms: C12_19  and  C13_20 
ROOT
HETATM    1  S1  UNK     1      23.583  -9.573  36.737  1.00  0.00    -0.075 SA
HETATM    2  C1  UNK     1      19.861 -10.057  39.448  1.00  0.00     0.000 C 
HETATM    3  C2  UNK     1      19.705  -8.533  39.383  1.00  0.00     0.005 C 
HETATM    4  C3  UNK     1      19.297 -10.825  38.249  1.00  0.00     0.000 C 
HETATM    5  C4  UNK     1      20.208  -7.853  38.109  1.00  0.00     0.041 C 
HETATM    6  C5  UNK     1      20.358 -11.358  37.273  1.00  0.00     0.005 C 
HETATM    7  C6  UNK     1      21.596  -8.268  37.730  1.00  0.00    -0.026 A 
HETATM    8  C7  UNK     1      20.936 -10.329  36.299  1.00  0.00     0.046 C 
HETATM    9  C8  UNK     1      21.894  -9.370  36.943  1.00  0.00    -0.008 A 
HETATM   10  C9  UNK     1      22.786  -7.592  38.153  1.00  0.00     0.080 A 
HETATM   11  C10 UNK     1      23.930  -8.196  37.684  1.00  0.00     0.094 A 
ENDROOT
BRANCH  11  12
HETATM   12  N1  UNK     1      25.252  -7.883  37.851  1.00  0.00    -0.316 N 
HETATM   13  C12 UNK     1      26.166  -8.384  38.806  1.00  0.00     0.262 C 
HETATM   14  O4  UNK     1      25.946  -9.211  39.682  1.00  0.00    -0.267 OA
HETATM   15  H13 UNK     1      25.604  -7.206  37.179  1.00  0.00     0.169 HD
BRANCH  13  16
HETATM   16  C13 UNK     1      27.520  -7.808  38.678  1.00  0.00     0.108 A 
HETATM   17  C14 UNK     1      28.508  -8.670  38.413  1.00  0.00     0.037 A 
HETATM   18  C15 UNK     1      29.876  -8.198  38.269  1.00  0.00    -0.001 A 
HETATM   19  C17 UNK     1      30.137  -6.840  38.413  1.00  0.00     0.089 A 
HETATM   20  C19 UNK     1      30.938  -9.063  37.992  1.00  0.00     0.014 A 
HETATM   21  O3  UNK     1      29.094  -5.936  38.692  1.00  0.00    -0.274 OA
HETATM   22  C20 UNK     1      31.425  -6.322  38.288  1.00  0.00     0.038 A 
HETATM   23  C16 UNK     1      27.775  -6.357  38.834  1.00  0.00     0.304 A 
HETATM   24  O5  UNK     1      26.874  -5.563  39.078  1.00  0.00    -0.259 OA
HETATM   25  C22 UNK     1      32.479  -7.192  38.012  1.00  0.00     0.003 A 
HETATM   26  C21 UNK     1      32.235  -8.559  37.864  1.00  0.00     0.001 A 
ENDBRANCH  13  16
ENDBRANCH  11  12
BRANCH  10  27
HETATM   27  C11 UNK     1      22.831  -6.417  38.987  1.00  0.00     0.296 C 
HETATM   28  O2  UNK     1      22.833  -6.426  40.231  1.00  0.00    -0.259 OA
BRANCH  27  29
HETATM   29  O1  UNK     1      22.873  -5.261  38.246  1.00  0.00    -0.322 OA
HETATM   30  C18 UNK     1      21.622  -4.684  37.859  1.00  0.00     0.213 C 
ENDBRANCH  27  29
ENDBRANCH  10  27
TORSDOF 4
ENDMDL
MODEL 10
REMARK VINA RESULT:      -8.5      2.104      2.666
REMARK  4 active torsions:
REMARK  status: ('A' for Active; 'I' for Inactive)
REMARK    1  A    between atoms: C11_18  and  O1_2 
REMARK    2  A    between atoms: C10_17  and  N1_7 
REMARK       I    between atoms: C12_19  and  N1_7 
REMARK    3  A    between atoms: C11_18  and  C9_16 
REMARK    4  A    between atoms: C12_19  and  C13_20 
ROOT
HETATM    1  S1  UNK     1      18.646   1.331  32.613  1.00  0.00    -0.075 SA
HETATM    2  C1  UNK     1      20.658  -1.869  35.287  1.00  0.00     0.000 C 
HETATM    3  C2  UNK     1      19.494  -1.677  36.267  1.00  0.00     0.005 C 
HETATM    4  C3  UNK     1      20.370  -2.796  34.102  1.00  0.00     0.000 C 
HETATM    5  C4  UNK     1      18.155  -1.262  35.658  1.00  0.00     0.041 C 
HETATM    6  C5  UNK     1      20.147  -2.075  32.764  1.00  0.00     0.005 C 
HETATM    7  C6  UNK     1      18.270  -0.096  34.726  1.00  0.00    -0.026 A 
HETATM    8  C7  UNK     1      18.762  -1.454  32.571  1.00  0.00     0.046 C 
HETATM    9  C8  UNK     1      18.551  -0.203  33.373  1.00  0.00    -0.008 A 
HETATM   10  C9  UNK     1      18.128   1.274  35.122  1.00  0.00     0.080 A 
HETATM   11  C10 UNK     1      18.307   2.147  34.073  1.00  0.00     0.094 A 
ENDROOT
BRANCH  11  12
HETATM   12  N1  UNK     1      18.260   3.514  34.017  1.00  0.00    -0.316 N 
HETATM   13  C12 UNK     1      17.937   4.343  32.918  1.00  0.00     0.262 C 
HETATM   14  O4  UNK     1      17.631   3.991  31.786  1.00  0.00    -0.267 OA
HETATM   15  H13 UNK     1      18.479   3.972  34.898  1.00  0.00     0.169 HD
BRANCH  13  16
HETATM   16  C13 UNK     1      17.992   5.785  33.238  1.00  0.00     0.108 A 
HETATM   17  C14 UNK     1      16.846   6.462  33.115  1.00  0.00     0.037 A 
HETATM   18  C15 UNK     1      16.799   7.887  33.407  1.00  0.00    -0.001 A 
HETATM   19  C17 UNK     1      17.964   8.528  33.814  1.00  0.00     0.089 A 
HETATM   20  C19 UNK     1      15.624   8.634  33.291  1.00  0.00     0.014 A 
HETATM   21  O3  UNK     1      19.169   7.809  33.942  1.00  0.00    -0.274 OA
HETATM   22  C20 UNK     1      17.989   9.890  34.108  1.00  0.00     0.038 A 
HETATM   23  C16 UNK     1      19.245   6.446  33.670  1.00  0.00     0.304 A 
HETATM   24  O5  UNK     1      20.298   5.830  33.784  1.00  0.00    -0.259 OA
HETATM   25  C22 UNK     1      16.812  10.627  33.991  1.00  0.00     0.003 A 
HETATM   26  C21 UNK     1      15.633  10.000  33.583  1.00  0.00     0.001 A 
ENDBRANCH  13  16
ENDBRANCH  11  12
BRANCH  10  27
HETATM   27  C11 UNK     1      17.842   1.735  36.458  1.00  0.00     0.296 C 
HETATM   28  O2  UNK     1      18.687   1.863  37.363  1.00  0.00    -0.259 OA
BRANCH  27  29
HETATM   29  O1  UNK     1      16.511   2.023  36.630  1.00  0.00    -0.322 OA
HETATM   30  C18 UNK     1      15.600   0.921  36.666  1.00  0.00     0.213 C 
ENDBRANCH  27  29
ENDBRANCH  10  27
TORSDOF 4
ENDMDL
