MODEL 1
REMARK VINA RESULT:      -8.0      0.000      0.000
REMARK  3 active torsions:
REMARK  status: ('A' for Active; 'I' for Inactive)
REMARK    1  A    between atoms: C5_8  and  N1_2 
REMARK    2  A    between atoms: C12_15  and  C9_12 
REMARK    3  A    between atoms: C13_16  and  C14_17 
ROOT
HETATM    1  N2  UNK     1      18.935  10.380  34.527  1.00  0.00    -0.191 NA
HETATM    2  C12 UNK     1      19.312   7.382  32.841  1.00  0.00     0.035 C 
HETATM    3  C13 UNK     1      18.320   8.204  33.264  1.00  0.00     0.055 C 
HETATM    4  C17 UNK     1      18.661   9.404  33.961  1.00  0.00     0.100 C 
ENDROOT
BRANCH   3   5
HETATM    5  C14 UNK     1      16.892   7.916  33.029  1.00  0.00    -0.015 A 
HETATM    6  C15 UNK     1      16.419   7.862  31.729  1.00  0.00     0.016 A 
HETATM    7  C18 UNK     1      15.070   7.589  31.506  1.00  0.00     0.043 A 
HETATM    8  C20 UNK     1      14.213   7.375  32.586  1.00  0.00     0.116 A 
HETATM    9  C19 UNK     1      14.708   7.432  33.889  1.00  0.00     0.043 A 
HETATM   10  F1  UNK     1      12.917   7.112  32.373  1.00  0.00    -0.206 F 
HETATM   11  C16 UNK     1      16.057   7.706  34.112  1.00  0.00     0.016 A 
ENDBRANCH   3   5
BRANCH   2  12
HETATM   12  C9  UNK     1      19.155   6.114  32.139  1.00  0.00    -0.029 A 
HETATM   13  C10 UNK     1      19.423   6.068  30.772  1.00  0.00     0.014 A 
HETATM   14  C7  UNK     1      19.283   4.869  30.073  1.00  0.00     0.030 A 
HETATM   15  C5  UNK     1      18.868   3.668  30.715  1.00  0.00     0.030 A 
HETATM   16  C6  UNK     1      18.605   3.761  32.110  1.00  0.00     0.037 A 
HETATM   17  C8  UNK     1      18.746   4.960  32.809  1.00  0.00    -0.050 A 
HETATM   18  C11 UNK     1      18.450   4.973  34.274  1.00  0.00     0.049 C 
BRANCH  15  19
HETATM   19  N1  UNK     1      18.729   2.483  30.024  1.00  0.00    -0.381 N 
HETATM   20  C3  UNK     1      17.849   2.303  28.872  1.00  0.00     0.123 C 
HETATM   21  C1  UNK     1      18.275   0.955  28.295  1.00  0.00     0.021 C 
HETATM   22  C2  UNK     1      18.738   0.187  29.520  1.00  0.00     0.021 C 
HETATM   23  C4  UNK     1      19.445   1.253  30.353  1.00  0.00     0.123 C 
ENDBRANCH  15  19
ENDBRANCH   2  12
TORSDOF 3
ENDMDL
MODEL 2
REMARK VINA RESULT:      -7.7     16.142     18.774
REMARK  3 active torsions:
REMARK  status: ('A' for Active; 'I' for Inactive)
REMARK    1  A    between atoms: C5_8  and  N1_2 
REMARK    2  A    between atoms: C12_15  and  C9_12 
REMARK    3  A    between atoms: C13_16  and  C14_17 
ROOT
HETATM    1  N2  UNK     1      31.916  -8.847  27.839  1.00  0.00    -0.191 NA
HETATM    2  C12 UNK     1      31.774  -8.013  31.195  1.00  0.00     0.035 C 
HETATM    3  C13 UNK     1      30.952  -8.081  30.118  1.00  0.00     0.055 C 
HETATM    4  C17 UNK     1      31.486  -8.504  28.862  1.00  0.00     0.100 C 
ENDROOT
BRANCH   3   5
HETATM    5  C14 UNK     1      29.518  -7.741  30.188  1.00  0.00    -0.015 A 
HETATM    6  C15 UNK     1      28.588  -8.759  30.316  1.00  0.00     0.016 A 
HETATM    7  C18 UNK     1      27.233  -8.438  30.383  1.00  0.00     0.043 A 
HETATM    8  C20 UNK     1      26.826  -7.106  30.319  1.00  0.00     0.116 A 
HETATM    9  C19 UNK     1      27.777  -6.093  30.190  1.00  0.00     0.043 A 
HETATM   10  F1  UNK     1      25.524  -6.798  30.383  1.00  0.00    -0.206 F 
HETATM   11  C16 UNK     1      29.133  -6.414  30.123  1.00  0.00     0.016 A 
ENDBRANCH   3   5
BRANCH   2  12
HETATM   12  C9  UNK     1      31.414  -7.585  32.541  1.00  0.00    -0.029 A 
HETATM   13  C10 UNK     1      31.544  -6.238  32.873  1.00  0.00     0.014 A 
HETATM   14  C7  UNK     1      31.206  -5.798  34.153  1.00  0.00     0.030 A 
HETATM   15  C5  UNK     1      30.726  -6.690  35.153  1.00  0.00     0.030 A 
HETATM   16  C6  UNK     1      30.608  -8.056  34.770  1.00  0.00     0.037 A 
HETATM   17  C8  UNK     1      30.946  -8.495  33.490  1.00  0.00    -0.050 A 
HETATM   18  C11 UNK     1      30.793  -9.947  33.170  1.00  0.00     0.049 C 
BRANCH  15  19
HETATM   19  N1  UNK     1      30.393  -6.255  36.417  1.00  0.00    -0.381 N 
HETATM   20  C3  UNK     1      30.814  -4.976  36.983  1.00  0.00     0.123 C 
HETATM   21  C1  UNK     1      29.958  -4.833  38.240  1.00  0.00     0.021 C 
HETATM   22  C2  UNK     1      29.748  -6.272  38.679  1.00  0.00     0.021 C 
HETATM   23  C4  UNK     1      29.573  -7.016  37.358  1.00  0.00     0.123 C 
ENDBRANCH  15  19
ENDBRANCH   2  12
TORSDOF 3
ENDMDL
MODEL 3
REMARK VINA RESULT:      -7.7     16.168     18.818
REMARK  3 active torsions:
REMARK  status: ('A' for Active; 'I' for Inactive)
REMARK    1  A    between atoms: C5_8  and  N1_2 
REMARK    2  A    between atoms: C12_15  and  C9_12 
REMARK    3  A    between atoms: C13_16  and  C14_17 
ROOT
HETATM    1  N2  UNK     1      31.919  -8.855  27.833  1.00  0.00    -0.191 NA
HETATM    2  C12 UNK     1      31.792  -8.051  31.197  1.00  0.00     0.035 C 
HETATM    3  C13 UNK     1      30.966  -8.105  30.122  1.00  0.00     0.055 C 
HETATM    4  C17 UNK     1      31.494  -8.519  28.860  1.00  0.00     0.100 C 
ENDROOT
BRANCH   3   5
HETATM    5  C14 UNK     1      29.534  -7.759  30.200  1.00  0.00    -0.015 A 
HETATM    6  C15 UNK     1      29.156  -6.429  30.136  1.00  0.00     0.016 A 
HETATM    7  C18 UNK     1      27.802  -6.102  30.208  1.00  0.00     0.043 A 
HETATM    8  C20 UNK     1      26.846  -7.109  30.344  1.00  0.00     0.116 A 
HETATM    9  C19 UNK     1      27.246  -8.445  30.406  1.00  0.00     0.043 A 
HETATM   10  F1  UNK     1      25.546  -6.795  30.414  1.00  0.00    -0.206 F 
HETATM   11  C16 UNK     1      28.599  -8.772  30.334  1.00  0.00     0.016 A 
ENDBRANCH   3   5
BRANCH   2  12
HETATM   12  C9  UNK     1      31.439  -7.635  32.548  1.00  0.00    -0.029 A 
HETATM   13  C10 UNK     1      31.568  -6.289  32.889  1.00  0.00     0.014 A 
HETATM   14  C7  UNK     1      31.236  -5.859  34.174  1.00  0.00     0.030 A 
HETATM   15  C5  UNK     1      30.763  -6.760  35.170  1.00  0.00     0.030 A 
HETATM   16  C6  UNK     1      30.647  -8.123  34.778  1.00  0.00     0.037 A 
HETATM   17  C8  UNK     1      30.978  -8.552  33.493  1.00  0.00    -0.050 A 
HETATM   18  C11 UNK     1      30.827 -10.002  33.163  1.00  0.00     0.049 C 
BRANCH  15  19
HETATM   19  N1  UNK     1      30.436  -6.335  36.439  1.00  0.00    -0.381 N 
HETATM   20  C3  UNK     1      29.417  -6.961  37.278  1.00  0.00     0.123 C 
HETATM   21  C1  UNK     1      29.646  -6.343  38.655  1.00  0.00     0.021 C 
HETATM   22  C2  UNK     1      30.174  -4.956  38.326  1.00  0.00     0.021 C 
HETATM   23  C4  UNK     1      31.067  -5.203  37.114  1.00  0.00     0.123 C 
ENDBRANCH  15  19
ENDBRANCH   2  12
TORSDOF 3
ENDMDL
MODEL 4
REMARK VINA RESULT:      -7.5     17.518     19.866
REMARK  3 active torsions:
REMARK  status: ('A' for Active; 'I' for Inactive)
REMARK    1  A    between atoms: C5_8  and  N1_2 
REMARK    2  A    between atoms: C12_15  and  C9_12 
REMARK    3  A    between atoms: C13_16  and  C14_17 
ROOT
HETATM    1  N2  UNK     1      29.372  -3.712  39.910  1.00  0.00    -0.191 NA
HETATM    2  C12 UNK     1      31.924  -4.887  37.890  1.00  0.00     0.035 C 
HETATM    3  C13 UNK     1      30.640  -5.192  38.204  1.00  0.00     0.055 C 
HETATM    4  C17 UNK     1      29.942  -4.374  39.146  1.00  0.00     0.100 C 
ENDROOT
BRANCH   3   5
HETATM    5  C14 UNK     1      29.924  -6.335  37.607  1.00  0.00    -0.015 A 
HETATM    6  C15 UNK     1      29.870  -7.534  38.298  1.00  0.00     0.016 A 
HETATM    7  C18 UNK     1      29.192  -8.614  37.734  1.00  0.00     0.043 A 
HETATM    8  C20 UNK     1      28.579  -8.481  36.489  1.00  0.00     0.116 A 
HETATM    9  C19 UNK     1      28.643  -7.265  35.807  1.00  0.00     0.043 A 
HETATM   10  F1  UNK     1      27.928  -9.519  35.947  1.00  0.00    -0.206 F 
HETATM   11  C16 UNK     1      29.321  -6.185  36.371  1.00  0.00     0.016 A 
ENDBRANCH   3   5
BRANCH   2  12
HETATM   12  C9  UNK     1      32.794  -5.615  36.975  1.00  0.00    -0.029 A 
HETATM   13  C10 UNK     1      33.510  -6.709  37.459  1.00  0.00     0.014 A 
HETATM   14  C7  UNK     1      34.350  -7.426  36.607  1.00  0.00     0.030 A 
HETATM   15  C5  UNK     1      34.508  -7.076  35.236  1.00  0.00     0.030 A 
HETATM   16  C6  UNK     1      33.759  -5.953  34.786  1.00  0.00     0.037 A 
HETATM   17  C8  UNK     1      32.919  -5.237  35.638  1.00  0.00    -0.050 A 
HETATM   18  C11 UNK     1      32.167  -4.069  35.084  1.00  0.00     0.049 C 
BRANCH  15  19
HETATM   19  N1  UNK     1      35.338  -7.784  34.395  1.00  0.00    -0.381 N 
HETATM   20  C3  UNK     1      34.872  -8.747  33.399  1.00  0.00     0.123 C 
HETATM   21  C1  UNK     1      36.107  -9.014  32.543  1.00  0.00     0.021 C 
HETATM   22  C2  UNK     1      37.252  -8.839  33.526  1.00  0.00     0.021 C 
HETATM   23  C4  UNK     1      36.795  -7.665  34.386  1.00  0.00     0.123 C 
ENDBRANCH  15  19
ENDBRANCH   2  12
TORSDOF 3
ENDMDL
MODEL 5
REMARK VINA RESULT:      -7.5     17.600     19.168
REMARK  3 active torsions:
REMARK  status: ('A' for Active; 'I' for Inactive)
REMARK    1  A    between atoms: C5_8  and  N1_2 
REMARK    2  A    between atoms: C12_15  and  C9_12 
REMARK    3  A    between atoms: C13_16  and  C14_17 
ROOT
HETATM    1  N2  UNK     1      29.460  -3.638  39.945  1.00  0.00    -0.191 NA
HETATM    2  C12 UNK     1      29.175  -6.133  37.563  1.00  0.00     0.035 C 
HETATM    3  C13 UNK     1      30.109  -5.277  38.047  1.00  0.00     0.055 C 
HETATM    4  C17 UNK     1      29.749  -4.374  39.094  1.00  0.00     0.100 C 
ENDROOT
BRANCH   3   5
HETATM    5  C14 UNK     1      31.495  -5.241  37.541  1.00  0.00    -0.015 A 
HETATM    6  C15 UNK     1      32.443  -6.074  38.110  1.00  0.00     0.016 A 
HETATM    7  C18 UNK     1      33.752  -6.041  37.631  1.00  0.00     0.043 A 
HETATM    8  C20 UNK     1      34.095  -5.176  36.592  1.00  0.00     0.116 A 
HETATM    9  C19 UNK     1      33.126  -4.344  36.030  1.00  0.00     0.043 A 
HETATM   10  F1  UNK     1      35.352  -5.144  36.132  1.00  0.00    -0.206 F 
HETATM   11  C16 UNK     1      31.816  -4.377  36.509  1.00  0.00     0.016 A 
ENDBRANCH   3   5
BRANCH   2  12
HETATM   12  C9  UNK     1      29.352  -7.103  36.490  1.00  0.00    -0.029 A 
HETATM   13  C10 UNK     1      29.186  -6.680  35.172  1.00  0.00     0.014 A 
HETATM   14  C7  UNK     1      29.351  -7.585  34.123  1.00  0.00     0.030 A 
HETATM   15  C5  UNK     1      29.688  -8.949  34.352  1.00  0.00     0.030 A 
HETATM   16  C6  UNK     1      29.847  -9.336  35.712  1.00  0.00     0.037 A 
HETATM   17  C8  UNK     1      29.683  -8.431  36.760  1.00  0.00    -0.050 A 
HETATM   18  C11 UNK     1      29.868  -8.919  38.161  1.00  0.00     0.049 C 
BRANCH  15  19
HETATM   19  N1  UNK     1      29.850  -9.843  33.315  1.00  0.00    -0.381 N 
HETATM   20  C3  UNK     1      30.592 -11.097  33.420  1.00  0.00     0.123 C 
HETATM   21  C1  UNK     1      30.226 -11.846  32.141  1.00  0.00     0.021 C 
HETATM   22  C2  UNK     1      29.994 -10.727  31.141  1.00  0.00     0.021 C 
HETATM   23  C4  UNK     1      29.300  -9.654  31.975  1.00  0.00     0.123 C 
ENDBRANCH  15  19
ENDBRANCH   2  12
TORSDOF 3
ENDMDL
MODEL 6
REMARK VINA RESULT:      -7.3     17.750     19.370
REMARK  3 active torsions:
REMARK  status: ('A' for Active; 'I' for Inactive)
REMARK    1  A    between atoms: C5_8  and  N1_2 
REMARK    2  A    between atoms: C12_15  and  C9_12 
REMARK    3  A    between atoms: C13_16  and  C14_17 
ROOT
HETATM    1  N2  UNK     1      29.520  -3.848  39.774  1.00  0.00    -0.191 NA
HETATM    2  C12 UNK     1      30.702  -4.699  36.634  1.00  0.00     0.035 C 
HETATM    3  C13 UNK     1      30.405  -5.295  37.816  1.00  0.00     0.055 C 
HETATM    4  C17 UNK     1      29.917  -4.495  38.895  1.00  0.00     0.100 C 
ENDROOT
BRANCH   3   5
HETATM    5  C14 UNK     1      30.559  -6.746  38.037  1.00  0.00    -0.015 A 
HETATM    6  C15 UNK     1      31.822  -7.264  38.265  1.00  0.00     0.016 A 
HETATM    7  C18 UNK     1      31.967  -8.635  38.475  1.00  0.00     0.043 A 
HETATM    8  C20 UNK     1      30.848  -9.467  38.453  1.00  0.00     0.116 A 
HETATM    9  C19 UNK     1      29.582  -8.927  38.222  1.00  0.00     0.043 A 
HETATM   10  F1  UNK     1      30.987 -10.784  38.655  1.00  0.00    -0.206 F 
HETATM   11  C16 UNK     1      29.437  -7.556  38.012  1.00  0.00     0.016 A 
ENDBRANCH   3   5
BRANCH   2  12
HETATM   12  C9  UNK     1      31.228  -5.346  35.439  1.00  0.00    -0.029 A 
HETATM   13  C10 UNK     1      30.333  -5.942  34.552  1.00  0.00     0.014 A 
HETATM   14  C7  UNK     1      30.806  -6.568  33.398  1.00  0.00     0.030 A 
HETATM   15  C5  UNK     1      32.194  -6.622  33.087  1.00  0.00     0.030 A 
HETATM   16  C6  UNK     1      33.070  -6.001  34.020  1.00  0.00     0.037 A 
HETATM   17  C8  UNK     1      32.597  -5.375  35.173  1.00  0.00    -0.050 A 
HETATM   18  C11 UNK     1      33.586  -4.746  36.101  1.00  0.00     0.049 C 
BRANCH  15  19
HETATM   19  N1  UNK     1      32.661  -7.241  31.947  1.00  0.00    -0.381 N 
HETATM   20  C3  UNK     1      31.814  -7.651  30.829  1.00  0.00     0.123 C 
HETATM   21  C1  UNK     1      32.809  -7.990  29.722  1.00  0.00     0.021 C 
HETATM   22  C2  UNK     1      34.022  -8.487  30.490  1.00  0.00     0.021 C 
HETATM   23  C4  UNK     1      34.065  -7.567  31.706  1.00  0.00     0.123 C 
ENDBRANCH  15  19
ENDBRANCH   2  12
TORSDOF 3
ENDMDL
MODEL 7
REMARK VINA RESULT:      -7.3     17.456     19.787
REMARK  3 active torsions:
REMARK  status: ('A' for Active; 'I' for Inactive)
REMARK    1  A    between atoms: C5_8  and  N1_2 
REMARK    2  A    between atoms: C12_15  and  C9_12 
REMARK    3  A    between atoms: C13_16  and  C14_17 
ROOT
HETATM    1  N2  UNK     1      29.517  -3.865  39.799  1.00  0.00    -0.191 NA
HETATM    2  C12 UNK     1      29.608  -6.773  37.924  1.00  0.00     0.035 C 
HETATM    3  C13 UNK     1      30.348  -5.653  38.119  1.00  0.00     0.055 C 
HETATM    4  C17 UNK     1      29.888  -4.668  39.046  1.00  0.00     0.100 C 
ENDROOT
BRANCH   3   5
HETATM    5  C14 UNK     1      31.621  -5.408  37.415  1.00  0.00    -0.015 A 
HETATM    6  C15 UNK     1      32.797  -5.905  37.952  1.00  0.00     0.016 A 
HETATM    7  C18 UNK     1      34.000  -5.674  37.286  1.00  0.00     0.043 A 
HETATM    8  C20 UNK     1      34.011  -4.949  36.095  1.00  0.00     0.116 A 
HETATM    9  C19 UNK     1      32.817  -4.456  35.568  1.00  0.00     0.043 A 
HETATM   10  F1  UNK     1      35.167  -4.727  35.455  1.00  0.00    -0.206 F 
HETATM   11  C16 UNK     1      31.614  -4.687  36.234  1.00  0.00     0.016 A 
ENDBRANCH   3   5
BRANCH   2  12
HETATM   12  C9  UNK     1      29.905  -7.867  37.009  1.00  0.00    -0.029 A 
HETATM   13  C10 UNK     1      30.751  -8.889  37.439  1.00  0.00     0.014 A 
HETATM   14  C7  UNK     1      31.054  -9.951  36.586  1.00  0.00     0.030 A 
HETATM   15  C5  UNK     1      30.522 -10.032  35.268  1.00  0.00     0.030 A 
HETATM   16  C6  UNK     1      29.664  -8.968  34.872  1.00  0.00     0.037 A 
HETATM   17  C8  UNK     1      29.361  -7.907  35.725  1.00  0.00    -0.050 A 
HETATM   18  C11 UNK     1      28.451  -6.830  35.230  1.00  0.00     0.049 C 
BRANCH  15  19
HETATM   19  N1  UNK     1      30.822 -11.080  34.426  1.00  0.00    -0.381 N 
HETATM   20  C3  UNK     1      30.343 -11.191  33.050  1.00  0.00     0.123 C 
HETATM   21  C1  UNK     1      31.176 -12.329  32.464  1.00  0.00     0.021 C 
HETATM   22  C2  UNK     1      31.438 -13.219  33.666  1.00  0.00     0.021 C 
HETATM   23  C4  UNK     1      31.659 -12.219  34.798  1.00  0.00     0.123 C 
ENDBRANCH  15  19
ENDBRANCH   2  12
TORSDOF 3
ENDMDL
MODEL 8
REMARK VINA RESULT:      -7.3     17.295     18.532
REMARK  3 active torsions:
REMARK  status: ('A' for Active; 'I' for Inactive)
REMARK    1  A    between atoms: C5_8  and  N1_2 
REMARK    2  A    between atoms: C12_15  and  C9_12 
REMARK    3  A    between atoms: C13_16  and  C14_17 
ROOT
HETATM    1  N2  UNK     1      29.502  -3.890  39.843  1.00  0.00    -0.191 NA
HETATM    2  C12 UNK     1      29.810  -5.425  36.756  1.00  0.00     0.035 C 
HETATM    3  C13 UNK     1      29.402  -5.723  38.015  1.00  0.00     0.055 C 
HETATM    4  C17 UNK     1      29.458  -4.710  39.022  1.00  0.00     0.100 C 
ENDROOT
BRANCH   3   5
HETATM    5  C14 UNK     1      28.893  -7.055  38.393  1.00  0.00    -0.015 A 
HETATM    6  C15 UNK     1      27.599  -7.172  38.871  1.00  0.00     0.016 A 
HETATM    7  C18 UNK     1      27.117  -8.432  39.228  1.00  0.00     0.043 A 
HETATM    8  C20 UNK     1      27.935  -9.554  39.101  1.00  0.00     0.116 A 
HETATM    9  C19 UNK     1      29.236  -9.417  38.617  1.00  0.00     0.043 A 
HETATM   10  F1  UNK     1      27.472 -10.763  39.444  1.00  0.00    -0.206 F 
HETATM   11  C16 UNK     1      29.718  -8.158  38.260  1.00  0.00     0.016 A 
ENDBRANCH   3   5
BRANCH   2  12
HETATM   12  C9  UNK     1      29.845  -6.329  35.613  1.00  0.00    -0.029 A 
HETATM   13  C10 UNK     1      28.648  -6.637  34.967  1.00  0.00     0.014 A 
HETATM   14  C7  UNK     1      28.650  -7.498  33.869  1.00  0.00     0.030 A 
HETATM   15  C5  UNK     1      29.849  -8.086  33.376  1.00  0.00     0.030 A 
HETATM   16  C6  UNK     1      31.045  -7.743  34.065  1.00  0.00     0.037 A 
HETATM   17  C8  UNK     1      31.044  -6.882  35.162  1.00  0.00    -0.050 A 
HETATM   18  C11 UNK     1      32.345  -6.574  35.831  1.00  0.00     0.049 C 
BRANCH  15  19
HETATM   19  N1  UNK     1      29.850  -8.937  32.292  1.00  0.00    -0.381 N 
HETATM   20  C3  UNK     1      28.800  -8.974  31.276  1.00  0.00     0.123 C 
HETATM   21  C1  UNK     1      29.399  -9.832  30.163  1.00  0.00     0.021 C 
HETATM   22  C2  UNK     1      30.306 -10.789  30.917  1.00  0.00     0.021 C 
HETATM   23  C4  UNK     1      30.902  -9.913  32.015  1.00  0.00     0.123 C 
ENDBRANCH  15  19
ENDBRANCH   2  12
TORSDOF 3
ENDMDL
MODEL 9
REMARK VINA RESULT:      -7.3     17.432     19.306
REMARK  3 active torsions:
REMARK  status: ('A' for Active; 'I' for Inactive)
REMARK    1  A    between atoms: C5_8  and  N1_2 
REMARK    2  A    between atoms: C12_15  and  C9_12 
REMARK    3  A    between atoms: C13_16  and  C14_17 
ROOT
HETATM    1  N2  UNK     1      29.461  -3.654  39.916  1.00  0.00    -0.191 NA
HETATM    2  C12 UNK     1      31.540  -4.595  37.314  1.00  0.00     0.035 C 
HETATM    3  C13 UNK     1      30.449  -5.056  37.976  1.00  0.00     0.055 C 
HETATM    4  C17 UNK     1      29.905  -4.281  39.046  1.00  0.00     0.100 C 
ENDROOT
BRANCH   3   5
HETATM    5  C14 UNK     1      29.790  -6.331  37.632  1.00  0.00    -0.015 A 
HETATM    6  C15 UNK     1      28.724  -6.323  36.749  1.00  0.00     0.016 A 
HETATM    7  C18 UNK     1      28.101  -7.527  36.423  1.00  0.00     0.043 A 
HETATM    8  C20 UNK     1      28.551  -8.721  36.986  1.00  0.00     0.116 A 
HETATM    9  C19 UNK     1      29.627  -8.710  37.874  1.00  0.00     0.043 A 
HETATM   10  F1  UNK     1      27.953  -9.878  36.674  1.00  0.00    -0.206 F 
HETATM   11  C16 UNK     1      30.250  -7.506  38.200  1.00  0.00     0.016 A 
ENDBRANCH   3   5
BRANCH   2  12
HETATM   12  C9  UNK     1      32.240  -5.255  36.220  1.00  0.00    -0.029 A 
HETATM   13  C10 UNK     1      31.705  -5.170  34.935  1.00  0.00     0.014 A 
HETATM   14  C7  UNK     1      32.354  -5.790  33.866  1.00  0.00     0.030 A 
HETATM   15  C5  UNK     1      33.563  -6.520  34.042  1.00  0.00     0.030 A 
HETATM   16  C6  UNK     1      34.072  -6.580  35.369  1.00  0.00     0.037 A 
HETATM   17  C8  UNK     1      33.424  -5.960  36.437  1.00  0.00    -0.050 A 
HETATM   18  C11 UNK     1      34.027  -6.072  37.800  1.00  0.00     0.049 C 
BRANCH  15  19
HETATM   19  N1  UNK     1      34.203  -7.133  32.986  1.00  0.00    -0.381 N 
HETATM   20  C3  UNK     1      33.544  -7.524  31.742  1.00  0.00     0.123 C 
HETATM   21  C1  UNK     1      34.702  -7.863  30.806  1.00  0.00     0.021 C 
HETATM   22  C2  UNK     1      35.771  -8.380  31.754  1.00  0.00     0.021 C 
HETATM   23  C4  UNK     1      35.624  -7.471  32.972  1.00  0.00     0.123 C 
ENDBRANCH  15  19
ENDBRANCH   2  12
TORSDOF 3
ENDMDL
MODEL 10
REMARK VINA RESULT:      -7.2     16.490     19.143
REMARK  3 active torsions:
REMARK  status: ('A' for Active; 'I' for Inactive)
REMARK    1  A    between atoms: C5_8  and  N1_2 
REMARK    2  A    between atoms: C12_15  and  C9_12 
REMARK    3  A    between atoms: C13_16  and  C14_17 
ROOT
HETATM    1  N2  UNK     1      32.455  -9.237  28.828  1.00  0.00    -0.191 NA
HETATM    2  C12 UNK     1      31.551  -9.046  32.163  1.00  0.00     0.035 C 
HETATM    3  C13 UNK     1      31.042  -8.744  30.943  1.00  0.00     0.055 C 
HETATM    4  C17 UNK     1      31.823  -9.016  29.777  1.00  0.00     0.100 C 
ENDROOT
BRANCH   3   5
HETATM    5  C14 UNK     1      29.705  -8.147  30.762  1.00  0.00    -0.015 A 
HETATM    6  C15 UNK     1      29.574  -6.769  30.764  1.00  0.00     0.016 A 
HETATM    7  C18 UNK     1      28.310  -6.206  30.593  1.00  0.00     0.043 A 
HETATM    8  C20 UNK     1      27.196  -7.027  30.423  1.00  0.00     0.116 A 
HETATM    9  C19 UNK     1      27.347  -8.414  30.423  1.00  0.00     0.043 A 
HETATM   10  F1  UNK     1      25.982  -6.486  30.258  1.00  0.00    -0.206 F 
HETATM   11  C16 UNK     1      28.611  -8.978  30.595  1.00  0.00     0.016 A 
ENDBRANCH   3   5
BRANCH   2  12
HETATM   12  C9  UNK     1      30.913  -8.820  33.454  1.00  0.00    -0.029 A 
HETATM   13  C10 UNK     1      30.082  -9.812  33.973  1.00  0.00     0.014 A 
HETATM   14  C7  UNK     1      29.459  -9.626  35.207  1.00  0.00     0.030 A 
HETATM   15  C5  UNK     1      29.641  -8.438  35.970  1.00  0.00     0.030 A 
HETATM   16  C6  UNK     1      30.497  -7.453  35.403  1.00  0.00     0.037 A 
HETATM   17  C8  UNK     1      31.121  -7.640  34.169  1.00  0.00    -0.050 A 
HETATM   18  C11 UNK     1      32.005  -6.555  33.644  1.00  0.00     0.049 C 
BRANCH  15  19
HETATM   19  N1  UNK     1      29.025  -8.254  37.189  1.00  0.00    -0.381 N 
HETATM   20  C3  UNK     1      29.303  -7.138  38.090  1.00  0.00     0.123 C 
HETATM   21  C1  UNK     1      28.180  -7.214  39.122  1.00  0.00     0.021 C 
HETATM   22  C2  UNK     1      27.875  -8.700  39.191  1.00  0.00     0.021 C 
HETATM   23  C4  UNK     1      28.011  -9.150  37.739  1.00  0.00     0.123 C 
ENDBRANCH  15  19
ENDBRANCH   2  12
TORSDOF 3
ENDMDL
