MODEL 1
REMARK VINA RESULT:      -9.6      0.000      0.000
REMARK  2 active torsions:
REMARK  status: ('A' for Active; 'I' for Inactive)
REMARK    1  A    between atoms: C10_14  and  N1_4 
REMARK       I    between atoms: C11_15  and  N1_4 
REMARK    2  A    between atoms: C11_15  and  C5_9 
ROOT
HETATM    1  O1  UNK     1      19.076   1.697  31.569  1.00  0.00    -0.304 OA
HETATM    2  O2  UNK     1      17.970   2.156  27.670  1.00  0.00    -0.287 OA
HETATM    3  C1  UNK     1      18.974   0.787  29.316  1.00  0.00     0.048 A 
HETATM    4  C2  UNK     1      19.326   0.694  30.664  1.00  0.00     0.091 A 
HETATM    5  C3  UNK     1      20.238  -1.506  30.271  1.00  0.00    -0.059 A 
HETATM    6  C4  UNK     1      19.959  -0.453  31.143  1.00  0.00     0.045 A 
HETATM    7  C5  UNK     1      18.450   2.836  31.108  1.00  0.00     0.147 A 
HETATM    8  C6  UNK     1      19.252  -0.265  28.441  1.00  0.00     0.019 A 
HETATM    9  C7  UNK     1      18.306   2.009  28.837  1.00  0.00     0.187 A 
HETATM   10  C8  UNK     1      19.885  -1.412  28.923  1.00  0.00     0.008 A 
HETATM   11  C9  UNK     1      18.059   3.057  29.847  1.00  0.00     0.098 A 
HETATM   12  C12 UNK     1      20.916  -2.734  30.778  1.00  0.00     0.048 C 
ENDROOT
BRANCH   7  13
HETATM   13  C11 UNK     1      18.192   3.893  32.088  1.00  0.00     0.280 C 
HETATM   14  O3  UNK     1      17.876   3.597  33.241  1.00  0.00    -0.265 OA
HETATM   15  N1  UNK     1      18.348   5.164  31.547  1.00  0.00    -0.321 N 
HETATM   16  H5  UNK     1      18.615   5.229  30.567  1.00  0.00     0.169 HD
BRANCH  15  17
HETATM   17  C10 UNK     1      18.178   6.410  32.199  1.00  0.00     0.035 A 
HETATM   18  C14 UNK     1      19.193   6.916  33.011  1.00  0.00     0.030 A 
HETATM   19  C16 UNK     1      19.026   8.143  33.653  1.00  0.00     0.009 A 
HETATM   20  C13 UNK     1      17.844   8.864  33.482  1.00  0.00    -0.062 A 
HETATM   21  C17 UNK     1      16.830   8.358  32.669  1.00  0.00     0.009 A 
HETATM   22  C18 UNK     1      17.665  10.175  34.168  1.00  0.00     0.048 C 
HETATM   23  C15 UNK     1      16.997   7.131  32.027  1.00  0.00     0.030 A 
ENDBRANCH  15  17
ENDBRANCH   7  13
TORSDOF 2
ENDMDL
MODEL 2
REMARK VINA RESULT:      -8.8      5.523      9.495
REMARK  2 active torsions:
REMARK  status: ('A' for Active; 'I' for Inactive)
REMARK    1  A    between atoms: C10_14  and  N1_4 
REMARK       I    between atoms: C11_15  and  N1_4 
REMARK    2  A    between atoms: C11_15  and  C5_9 
ROOT
HETATM    1  O1  UNK     1      19.640  -1.767  33.690  1.00  0.00    -0.304 OA
HETATM    2  O2  UNK     1      17.555   1.736  33.821  1.00  0.00    -0.287 OA
HETATM    3  C1  UNK     1      18.873   0.239  32.550  1.00  0.00     0.048 A 
HETATM    4  C2  UNK     1      19.569  -0.970  32.573  1.00  0.00     0.091 A 
HETATM    5  C3  UNK     1      20.193  -0.651  30.263  1.00  0.00    -0.059 A 
HETATM    6  C4  UNK     1      20.230  -1.417  31.429  1.00  0.00     0.045 A 
HETATM    7  C5  UNK     1      18.990  -1.337  34.828  1.00  0.00     0.147 A 
HETATM    8  C6  UNK     1      18.834   1.008  31.385  1.00  0.00     0.019 A 
HETATM    9  C7  UNK     1      18.183   0.687  33.772  1.00  0.00     0.187 A 
HETATM   10  C8  UNK     1      19.496   0.559  30.242  1.00  0.00     0.008 A 
HETATM   11  C9  UNK     1      18.288  -0.203  34.945  1.00  0.00     0.098 A 
HETATM   12  C12 UNK     1      20.899  -1.124  29.038  1.00  0.00     0.048 C 
ENDROOT
BRANCH   7  13
HETATM   13  C11 UNK     1      19.078  -2.200  36.007  1.00  0.00     0.280 C 
HETATM   14  O3  UNK     1      18.764  -1.760  37.115  1.00  0.00    -0.265 OA
HETATM   15  N1  UNK     1      19.533  -3.476  35.696  1.00  0.00    -0.321 N 
HETATM   16  H5  UNK     1      19.749  -3.673  34.720  1.00  0.00     0.169 HD
BRANCH  15  17
HETATM   17  C10 UNK     1      19.741  -4.562  36.580  1.00  0.00     0.035 A 
HETATM   18  C14 UNK     1      18.844  -5.630  36.595  1.00  0.00     0.030 A 
HETATM   19  C16 UNK     1      19.049  -6.700  37.467  1.00  0.00     0.009 A 
HETATM   20  C13 UNK     1      20.151  -6.701  38.322  1.00  0.00    -0.062 A 
HETATM   21  C17 UNK     1      21.048  -5.634  38.306  1.00  0.00     0.009 A 
HETATM   22  C18 UNK     1      20.369  -7.845  39.253  1.00  0.00     0.048 C 
HETATM   23  C15 UNK     1      20.843  -4.564  37.435  1.00  0.00     0.030 A 
ENDBRANCH  15  17
ENDBRANCH   7  13
TORSDOF 2
ENDMDL
MODEL 3
REMARK VINA RESULT:      -8.8      7.470     11.893
REMARK  2 active torsions:
REMARK  status: ('A' for Active; 'I' for Inactive)
REMARK    1  A    between atoms: C10_14  and  N1_4 
REMARK       I    between atoms: C11_15  and  N1_4 
REMARK    2  A    between atoms: C11_15  and  C5_9 
ROOT
HETATM    1  O1  UNK     1      18.978  -2.471  37.018  1.00  0.00    -0.304 OA
HETATM    2  O2  UNK     1      19.928  -1.567  33.156  1.00  0.00    -0.287 OA
HETATM    3  C1  UNK     1      18.841  -0.917  35.153  1.00  0.00     0.048 A 
HETATM    4  C2  UNK     1      18.551  -1.287  36.467  1.00  0.00     0.091 A 
HETATM    5  C3  UNK     1      17.338   0.776  36.777  1.00  0.00    -0.059 A 
HETATM    6  C4  UNK     1      17.799  -0.440  37.281  1.00  0.00     0.045 A 
HETATM    7  C5  UNK     1      19.724  -3.317  36.224  1.00  0.00     0.147 A 
HETATM    8  C6  UNK     1      18.381   0.300  34.646  1.00  0.00     0.019 A 
HETATM    9  C7  UNK     1      19.638  -1.829  34.315  1.00  0.00     0.187 A 
HETATM   10  C8  UNK     1      17.629   1.145  35.462  1.00  0.00     0.008 A 
HETATM   11  C9  UNK     1      20.073  -3.088  34.952  1.00  0.00     0.098 A 
HETATM   12  C12 UNK     1      16.532   1.685  37.644  1.00  0.00     0.048 C 
ENDROOT
BRANCH   7  13
HETATM   13  C11 UNK     1      20.169  -4.573  36.829  1.00  0.00     0.280 C 
HETATM   14  O3  UNK     1      21.342  -4.702  37.184  1.00  0.00    -0.265 OA
HETATM   15  N1  UNK     1      19.144  -5.507  36.924  1.00  0.00    -0.321 N 
HETATM   16  H5  UNK     1      18.225  -5.233  36.580  1.00  0.00     0.169 HD
BRANCH  15  17
HETATM   17  C10 UNK     1      19.213  -6.820  37.451  1.00  0.00     0.035 A 
HETATM   18  C14 UNK     1      19.669  -7.025  38.753  1.00  0.00     0.030 A 
HETATM   19  C16 UNK     1      19.736  -8.318  39.272  1.00  0.00     0.009 A 
HETATM   20  C13 UNK     1      19.348  -9.405  38.489  1.00  0.00    -0.062 A 
HETATM   21  C17 UNK     1      18.891  -9.199  37.187  1.00  0.00     0.009 A 
HETATM   22  C18 UNK     1      19.421 -10.787  39.043  1.00  0.00     0.048 C 
HETATM   23  C15 UNK     1      18.823  -7.906  36.668  1.00  0.00     0.030 A 
ENDBRANCH  15  17
ENDBRANCH   7  13
TORSDOF 2
ENDMDL
MODEL 4
REMARK VINA RESULT:      -8.6      7.937     10.592
REMARK  2 active torsions:
REMARK  status: ('A' for Active; 'I' for Inactive)
REMARK    1  A    between atoms: C10_14  and  N1_4 
REMARK       I    between atoms: C11_15  and  N1_4 
REMARK    2  A    between atoms: C11_15  and  C5_9 
ROOT
HETATM    1  O1  UNK     1      20.614  -6.435  35.876  1.00  0.00    -0.304 OA
HETATM    2  O2  UNK     1      19.976  -7.250  39.822  1.00  0.00    -0.287 OA
HETATM    3  C1  UNK     1      20.626  -8.051  37.694  1.00  0.00     0.048 A 
HETATM    4  C2  UNK     1      20.826  -7.705  36.356  1.00  0.00     0.091 A 
HETATM    5  C3  UNK     1      21.491  -9.974  35.872  1.00  0.00    -0.059 A 
HETATM    6  C4  UNK     1      21.258  -8.667  35.444  1.00  0.00     0.045 A 
HETATM    7  C5  UNK     1      20.187  -5.475  36.769  1.00  0.00     0.147 A 
HETATM    8  C6  UNK     1      20.858  -9.359  38.126  1.00  0.00     0.019 A 
HETATM    9  C7  UNK     1      20.170  -7.016  38.636  1.00  0.00     0.187 A 
HETATM   10  C8  UNK     1      21.291 -10.319  37.210  1.00  0.00     0.008 A 
HETATM   11  C9  UNK     1      19.958  -5.668  38.074  1.00  0.00     0.098 A 
HETATM   12  C12 UNK     1      21.953 -11.007  34.899  1.00  0.00     0.048 C 
ENDROOT
BRANCH   7  13
HETATM   13  C11 UNK     1      19.968  -4.128  36.238  1.00  0.00     0.280 C 
HETATM   14  O3  UNK     1      20.446  -3.812  35.148  1.00  0.00    -0.265 OA
HETATM   15  N1  UNK     1      19.204  -3.341  37.093  1.00  0.00    -0.321 N 
HETATM   16  H5  UNK     1      18.887  -3.764  37.963  1.00  0.00     0.169 HD
BRANCH  15  17
HETATM   17  C10 UNK     1      18.801  -1.997  36.905  1.00  0.00     0.035 A 
HETATM   18  C14 UNK     1      19.025  -1.366  35.681  1.00  0.00     0.030 A 
HETATM   19  C16 UNK     1      18.628  -0.042  35.496  1.00  0.00     0.009 A 
HETATM   20  C13 UNK     1      18.007   0.652  36.535  1.00  0.00    -0.062 A 
HETATM   21  C17 UNK     1      17.782   0.021  37.758  1.00  0.00     0.009 A 
HETATM   22  C18 UNK     1      17.583   2.067  36.336  1.00  0.00     0.048 C 
HETATM   23  C15 UNK     1      18.179  -1.304  37.943  1.00  0.00     0.030 A 
ENDBRANCH  15  17
ENDBRANCH   7  13
TORSDOF 2
ENDMDL
MODEL 5
REMARK VINA RESULT:      -8.5      7.897     10.313
REMARK  2 active torsions:
REMARK  status: ('A' for Active; 'I' for Inactive)
REMARK    1  A    between atoms: C10_14  and  N1_4 
REMARK       I    between atoms: C11_15  and  N1_4 
REMARK    2  A    between atoms: C11_15  and  C5_9 
ROOT
HETATM    1  O1  UNK     1      19.688  -6.007  37.384  1.00  0.00    -0.304 OA
HETATM    2  O2  UNK     1      20.773  -7.681  33.827  1.00  0.00    -0.287 OA
HETATM    3  C1  UNK     1      20.184  -8.007  36.094  1.00  0.00     0.048 A 
HETATM    4  C2  UNK     1      19.817  -7.371  37.280  1.00  0.00     0.091 A 
HETATM    5  C3  UNK     1      19.675  -9.514  38.382  1.00  0.00    -0.059 A 
HETATM    6  C4  UNK     1      19.562  -8.124  38.426  1.00  0.00     0.045 A 
HETATM    7  C5  UNK     1      19.936  -5.251  36.258  1.00  0.00     0.147 A 
HETATM    8  C6  UNK     1      20.299  -9.398  36.047  1.00  0.00     0.019 A 
HETATM    9  C7  UNK     1      20.448  -7.189  34.899  1.00  0.00     0.187 A 
HETATM   10  C8  UNK     1      20.044 -10.149  37.195  1.00  0.00     0.008 A 
HETATM   11  C9  UNK     1      20.295  -5.729  35.060  1.00  0.00     0.098 A 
HETATM   12  C12 UNK     1      19.405 -10.323  39.606  1.00  0.00     0.048 C 
ENDROOT
BRANCH   7  13
HETATM   13  C11 UNK     1      19.793  -3.800  36.389  1.00  0.00     0.280 C 
HETATM   14  O3  UNK     1      20.788  -3.076  36.322  1.00  0.00    -0.265 OA
HETATM   15  N1  UNK     1      18.472  -3.415  36.586  1.00  0.00    -0.321 N 
HETATM   16  H5  UNK     1      17.768  -4.150  36.616  1.00  0.00     0.169 HD
BRANCH  15  17
HETATM   17  C10 UNK     1      17.968  -2.102  36.754  1.00  0.00     0.035 A 
HETATM   18  C14 UNK     1      17.177  -1.527  35.760  1.00  0.00     0.030 A 
HETATM   19  C16 UNK     1      16.680  -0.234  35.926  1.00  0.00     0.009 A 
HETATM   20  C13 UNK     1      16.974   0.483  37.086  1.00  0.00    -0.062 A 
HETATM   21  C17 UNK     1      17.764  -0.094  38.081  1.00  0.00     0.009 A 
HETATM   22  C18 UNK     1      16.443   1.864  37.263  1.00  0.00     0.048 C 
HETATM   23  C15 UNK     1      18.261  -1.387  37.915  1.00  0.00     0.030 A 
ENDBRANCH  15  17
ENDBRANCH   7  13
TORSDOF 2
ENDMDL
MODEL 6
REMARK VINA RESULT:      -8.5      1.782      8.398
REMARK  2 active torsions:
REMARK  status: ('A' for Active; 'I' for Inactive)
REMARK    1  A    between atoms: C10_14  and  N1_4 
REMARK       I    between atoms: C11_15  and  N1_4 
REMARK    2  A    between atoms: C11_15  and  C5_9 
ROOT
HETATM    1  O1  UNK     1      16.832   6.027  32.705  1.00  0.00    -0.304 OA
HETATM    2  O2  UNK     1      20.191   7.952  33.992  1.00  0.00    -0.287 OA
HETATM    3  C1  UNK     1      17.866   8.052  33.567  1.00  0.00     0.048 A 
HETATM    4  C2  UNK     1      16.757   7.336  33.115  1.00  0.00     0.091 A 
HETATM    5  C3  UNK     1      15.364   9.275  33.473  1.00  0.00    -0.059 A 
HETATM    6  C4  UNK     1      15.504   7.947  33.068  1.00  0.00     0.045 A 
HETATM    7  C5  UNK     1      18.066   5.411  32.747  1.00  0.00     0.147 A 
HETATM    8  C6  UNK     1      17.730   9.381  33.973  1.00  0.00     0.019 A 
HETATM    9  C7  UNK     1      19.177   7.383  33.607  1.00  0.00     0.187 A 
HETATM   10  C8  UNK     1      16.475   9.990  33.924  1.00  0.00     0.008 A 
HETATM   11  C9  UNK     1      19.208   5.977  33.157  1.00  0.00     0.098 A 
HETATM   12  C12 UNK     1      14.026   9.933  33.423  1.00  0.00     0.048 C 
ENDROOT
BRANCH   7  13
HETATM   13  C11 UNK     1      18.126   4.017  32.306  1.00  0.00     0.280 C 
HETATM   14  O3  UNK     1      17.828   3.112  33.087  1.00  0.00    -0.265 OA
HETATM   15  N1  UNK     1      18.538   3.899  30.984  1.00  0.00    -0.321 N 
HETATM   16  H5  UNK     1      18.747   4.757  30.477  1.00  0.00     0.169 HD
BRANCH  15  17
HETATM   17  C10 UNK     1      18.710   2.710  30.233  1.00  0.00     0.035 A 
HETATM   18  C14 UNK     1      19.584   1.720  30.684  1.00  0.00     0.030 A 
HETATM   19  C16 UNK     1      19.753   0.550  29.944  1.00  0.00     0.009 A 
HETATM   20  C13 UNK     1      19.048   0.370  28.754  1.00  0.00    -0.062 A 
HETATM   21  C17 UNK     1      18.174   1.359  28.303  1.00  0.00     0.009 A 
HETATM   22  C18 UNK     1      19.230  -0.881  27.963  1.00  0.00     0.048 C 
HETATM   23  C15 UNK     1      18.005   2.530  29.043  1.00  0.00     0.030 A 
ENDBRANCH  15  17
ENDBRANCH   7  13
TORSDOF 2
ENDMDL
MODEL 7
REMARK VINA RESULT:      -8.5      7.304      9.617
REMARK  2 active torsions:
REMARK  status: ('A' for Active; 'I' for Inactive)
REMARK    1  A    between atoms: C10_14  and  N1_4 
REMARK       I    between atoms: C11_15  and  N1_4 
REMARK    2  A    between atoms: C11_15  and  C5_9 
ROOT
HETATM    1  O1  UNK     1      20.792  -4.695  37.417  1.00  0.00    -0.304 OA
HETATM    2  O2  UNK     1      17.275  -6.671  36.810  1.00  0.00    -0.287 OA
HETATM    3  C1  UNK     1      19.418  -6.662  37.812  1.00  0.00     0.048 A 
HETATM    4  C2  UNK     1      20.596  -5.933  37.979  1.00  0.00     0.091 A 
HETATM    5  C3  UNK     1      21.496  -7.709  39.344  1.00  0.00    -0.059 A 
HETATM    6  C4  UNK     1      21.637  -6.456  38.746  1.00  0.00     0.045 A 
HETATM    7  C5  UNK     1      19.770  -4.166  36.657  1.00  0.00     0.147 A 
HETATM    8  C6  UNK     1      19.273  -7.916  38.409  1.00  0.00     0.019 A 
HETATM    9  C7  UNK     1      18.334  -6.086  36.998  1.00  0.00     0.187 A 
HETATM   10  C8  UNK     1      20.317  -8.437  39.175  1.00  0.00     0.008 A 
HETATM   11  C9  UNK     1      18.592  -4.754  36.415  1.00  0.00     0.098 A 
HETATM   12  C12 UNK     1      22.607  -8.273  40.164  1.00  0.00     0.048 C 
ENDROOT
BRANCH   7  13
HETATM   13  C11 UNK     1      19.998  -2.846  36.066  1.00  0.00     0.280 C 
HETATM   14  O3  UNK     1      21.139  -2.500  35.759  1.00  0.00    -0.265 OA
HETATM   15  N1  UNK     1      18.821  -2.120  35.926  1.00  0.00    -0.321 N 
HETATM   16  H5  UNK     1      17.956  -2.561  36.234  1.00  0.00     0.169 HD
BRANCH  15  17
HETATM   17  C10 UNK     1      18.666  -0.815  35.399  1.00  0.00     0.035 A 
HETATM   18  C14 UNK     1      18.470  -0.635  34.029  1.00  0.00     0.030 A 
HETATM   19  C16 UNK     1      18.317   0.651  33.510  1.00  0.00     0.009 A 
HETATM   20  C13 UNK     1      18.360   1.756  34.360  1.00  0.00    -0.062 A 
HETATM   21  C17 UNK     1      18.554   1.576  35.730  1.00  0.00     0.009 A 
HETATM   22  C18 UNK     1      18.196   3.130  33.805  1.00  0.00     0.048 C 
HETATM   23  C15 UNK     1      18.707   0.290  36.249  1.00  0.00     0.030 A 
ENDBRANCH  15  17
ENDBRANCH   7  13
TORSDOF 2
ENDMDL
MODEL 8
REMARK VINA RESULT:      -8.5     13.804     16.835
REMARK  2 active torsions:
REMARK  status: ('A' for Active; 'I' for Inactive)
REMARK    1  A    between atoms: C10_14  and  N1_4 
REMARK       I    between atoms: C11_15  and  N1_4 
REMARK    2  A    between atoms: C11_15  and  C5_9 
ROOT
HETATM    1  O1  UNK     1      19.254  -1.796  14.351  1.00  0.00    -0.304 OA
HETATM    2  O2  UNK     1      17.807  -5.555  13.707  1.00  0.00    -0.287 OA
HETATM    3  C1  UNK     1      19.103  -3.746  12.906  1.00  0.00     0.048 A 
HETATM    4  C2  UNK     1      19.564  -2.460  13.189  1.00  0.00     0.091 A 
HETATM    5  C3  UNK     1      20.728  -2.417  11.074  1.00  0.00    -0.059 A 
HETATM    6  C4  UNK     1      20.378  -1.793  12.272  1.00  0.00     0.045 A 
HETATM    7  C5  UNK     1      18.451  -2.445  15.265  1.00  0.00     0.147 A 
HETATM    8  C6  UNK     1      19.452  -4.373  11.708  1.00  0.00     0.019 A 
HETATM    9  C7  UNK     1      18.246  -4.428  13.891  1.00  0.00     0.187 A 
HETATM   10  C8  UNK     1      20.266  -3.704  10.793  1.00  0.00     0.008 A 
HETATM   11  C9  UNK     1      17.941  -3.674  15.123  1.00  0.00     0.098 A 
HETATM   12  C12 UNK     1      21.598  -1.708  10.091  1.00  0.00     0.048 C 
ENDROOT
BRANCH   7  13
HETATM   13  C11 UNK     1      18.131  -1.721  16.497  1.00  0.00     0.280 C 
HETATM   14  O3  UNK     1      17.029  -1.866  17.026  1.00  0.00    -0.265 OA
HETATM   15  N1  UNK     1      19.182  -0.918  16.925  1.00  0.00    -0.321 N 
HETATM   16  H5  UNK     1      20.032  -0.916  16.364  1.00  0.00     0.169 HD
BRANCH  15  17
HETATM   17  C10 UNK     1      19.225  -0.083  18.068  1.00  0.00     0.035 A 
HETATM   18  C14 UNK     1      19.012   1.290  17.938  1.00  0.00     0.030 A 
HETATM   19  C16 UNK     1      19.054   2.112  19.064  1.00  0.00     0.009 A 
HETATM   20  C13 UNK     1      19.308   1.561  20.320  1.00  0.00    -0.062 A 
HETATM   21  C17 UNK     1      19.519   0.189  20.451  1.00  0.00     0.009 A 
HETATM   22  C18 UNK     1      19.352   2.440  21.523  1.00  0.00     0.048 C 
HETATM   23  C15 UNK     1      19.477  -0.634  19.324  1.00  0.00     0.030 A 
ENDBRANCH  15  17
ENDBRANCH   7  13
TORSDOF 2
ENDMDL
MODEL 9
REMARK VINA RESULT:      -8.5      6.543     10.976
REMARK  2 active torsions:
REMARK  status: ('A' for Active; 'I' for Inactive)
REMARK    1  A    between atoms: C10_14  and  N1_4 
REMARK       I    between atoms: C11_15  and  N1_4 
REMARK    2  A    between atoms: C11_15  and  C5_9 
ROOT
HETATM    1  O1  UNK     1      20.324  -3.117  34.064  1.00  0.00    -0.304 OA
HETATM    2  O2  UNK     1      17.976  -0.076  35.434  1.00  0.00    -0.287 OA
HETATM    3  C1  UNK     1      19.181  -1.016  33.629  1.00  0.00     0.048 A 
HETATM    4  C2  UNK     1      19.980  -2.086  33.224  1.00  0.00     0.091 A 
HETATM    5  C3  UNK     1      20.149  -1.121  31.018  1.00  0.00    -0.059 A 
HETATM    6  C4  UNK     1      20.465  -2.140  31.918  1.00  0.00     0.045 A 
HETATM    7  C5  UNK     1      19.849  -3.076  35.358  1.00  0.00     0.147 A 
HETATM    8  C6  UNK     1      18.862   0.005  32.730  1.00  0.00     0.019 A 
HETATM    9  C7  UNK     1      18.681  -0.984  35.013  1.00  0.00     0.187 A 
HETATM   10  C8  UNK     1      19.349  -0.051  31.424  1.00  0.00     0.008 A 
HETATM   11  C9  UNK     1      19.076  -2.114  35.877  1.00  0.00     0.098 A 
HETATM   12  C12 UNK     1      20.667  -1.174  29.620  1.00  0.00     0.048 C 
ENDROOT
BRANCH   7  13
HETATM   13  C11 UNK     1      20.226  -4.184  36.238  1.00  0.00     0.280 C 
HETATM   14  O3  UNK     1      21.257  -4.113  36.908  1.00  0.00    -0.265 OA
HETATM   15  N1  UNK     1      19.313  -5.231  36.190  1.00  0.00    -0.321 N 
HETATM   16  H5  UNK     1      18.507  -5.124  35.576  1.00  0.00     0.169 HD
BRANCH  15  17
HETATM   17  C10 UNK     1      19.359  -6.454  36.902  1.00  0.00     0.035 A 
HETATM   18  C14 UNK     1      19.787  -6.473  38.229  1.00  0.00     0.030 A 
HETATM   19  C16 UNK     1      19.832  -7.679  38.930  1.00  0.00     0.009 A 
HETATM   20  C13 UNK     1      19.448  -8.864  38.303  1.00  0.00    -0.062 A 
HETATM   21  C17 UNK     1      19.018  -8.845  36.976  1.00  0.00     0.009 A 
HETATM   22  C18 UNK     1      19.496 -10.152  39.053  1.00  0.00     0.048 C 
HETATM   23  C15 UNK     1      18.974  -7.639  36.276  1.00  0.00     0.030 A 
ENDBRANCH  15  17
ENDBRANCH   7  13
TORSDOF 2
ENDMDL
MODEL 10
REMARK VINA RESULT:      -8.4     12.932     17.441
REMARK  2 active torsions:
REMARK  status: ('A' for Active; 'I' for Inactive)
REMARK    1  A    between atoms: C10_14  and  N1_4 
REMARK       I    between atoms: C11_15  and  N1_4 
REMARK    2  A    between atoms: C11_15  and  C5_9 
ROOT
HETATM    1  O1  UNK     1      19.169  -0.632  17.762  1.00  0.00    -0.304 OA
HETATM    2  O2  UNK     1      19.331   2.631  15.319  1.00  0.00    -0.287 OA
HETATM    3  C1  UNK     1      19.396   1.777  17.524  1.00  0.00     0.048 A 
HETATM    4  C2  UNK     1      19.333   0.620  18.302  1.00  0.00     0.091 A 
HETATM    5  C3  UNK     1      19.605   1.952  20.297  1.00  0.00    -0.059 A 
HETATM    6  C4  UNK     1      19.437   0.707  19.690  1.00  0.00     0.045 A 
HETATM    7  C5  UNK     1      19.065  -0.731  16.390  1.00  0.00     0.147 A 
HETATM    8  C6  UNK     1      19.564   3.025  18.128  1.00  0.00     0.019 A 
HETATM    9  C7  UNK     1      19.284   1.658  16.060  1.00  0.00     0.187 A 
HETATM   10  C8  UNK     1      19.669   3.108  19.517  1.00  0.00     0.008 A 
HETATM   11  C9  UNK     1      19.110   0.292  15.528  1.00  0.00     0.098 A 
HETATM   12  C12 UNK     1      19.717   2.049  21.781  1.00  0.00     0.048 C 
ENDROOT
BRANCH   7  13
HETATM   13  C11 UNK     1      18.892  -2.074  15.834  1.00  0.00     0.280 C 
HETATM   14  O3  UNK     1      17.770  -2.580  15.788  1.00  0.00    -0.265 OA
HETATM   15  N1  UNK     1      20.094  -2.629  15.409  1.00  0.00    -0.321 N 
HETATM   16  H5  UNK     1      20.937  -2.068  15.521  1.00  0.00     0.169 HD
BRANCH  15  17
HETATM   17  C10 UNK     1      20.302  -3.903  14.826  1.00  0.00     0.035 A 
HETATM   18  C14 UNK     1      20.746  -4.965  15.614  1.00  0.00     0.030 A 
HETATM   19  C16 UNK     1      20.950  -6.220  15.040  1.00  0.00     0.009 A 
HETATM   20  C13 UNK     1      20.711  -6.412  13.679  1.00  0.00    -0.062 A 
HETATM   21  C17 UNK     1      20.267  -5.349  12.892  1.00  0.00     0.009 A 
HETATM   22  C18 UNK     1      20.931  -7.753  13.066  1.00  0.00     0.048 C 
HETATM   23  C15 UNK     1      20.062  -4.095  13.466  1.00  0.00     0.030 A 
ENDBRANCH  15  17
ENDBRANCH   7  13
TORSDOF 2
ENDMDL
