MODEL 1
REMARK VINA RESULT:      -9.3      0.000      0.000
REMARK  2 active torsions:
REMARK  status: ('A' for Active; 'I' for Inactive)
REMARK    1  A    between atoms: C25_30  and  O5_5 
REMARK    2  A    between atoms: C18_23  and  C20_25 
ROOT
HETATM    1  O1  UNK     1      28.339  -7.516  32.254  1.00  0.00    -0.339 OA
HETATM    2  O2  UNK     1      30.435 -11.730  31.326  1.00  0.00    -0.335 OA
HETATM    3  O3  UNK     1      31.143  -9.579  35.565  1.00  0.00    -0.320 OA
HETATM    4  O4  UNK     1      28.828  -6.406  34.507  1.00  0.00    -0.286 OA
HETATM    5  C1  UNK     1      27.960  -7.394  30.873  1.00  0.00     0.061 C 
HETATM    6  C2  UNK     1      27.594  -8.758  30.282  1.00  0.00     0.042 C 
HETATM    7  C3  UNK     1      28.752  -9.734  30.406  1.00  0.00     0.047 C 
HETATM    8  C4  UNK     1      29.376  -9.667  31.776  1.00  0.00     0.011 A 
HETATM    9  C5  UNK     1      29.143  -8.566  32.617  1.00  0.00     0.096 A 
HETATM   10  C6  UNK     1      30.235 -10.697  32.207  1.00  0.00     0.092 A 
HETATM   11  C7  UNK     1      29.723  -8.523  33.899  1.00  0.00     0.084 A 
HETATM   12  C8  UNK     1      30.819 -10.660  33.477  1.00  0.00     0.033 A 
HETATM   13  C9  UNK     1      29.084  -6.685  30.102  1.00  0.00     0.046 C 
HETATM   14  C10 UNK     1      26.716  -6.494  30.857  1.00  0.00     0.046 C 
HETATM   15  C11 UNK     1      31.447 -12.717  31.602  1.00  0.00     0.078 C 
HETATM   16  C12 UNK     1      30.552  -9.569  34.322  1.00  0.00     0.105 A 
HETATM   17  C13 UNK     1      31.678 -11.764  33.895  1.00  0.00     0.016 C 
HETATM   18  C14 UNK     1      31.973 -12.720  33.013  1.00  0.00     0.012 C 
HETATM   19  C15 UNK     1      29.492  -7.383  34.827  1.00  0.00     0.200 A 
HETATM   20  C16 UNK     1      32.599 -12.466  30.622  1.00  0.00     0.051 C 
HETATM   21  C17 UNK     1      30.800 -14.074  31.301  1.00  0.00     0.051 C 
HETATM   22  C18 UNK     1      30.122  -7.471  36.170  1.00  0.00     0.048 A 
HETATM   23  C19 UNK     1      30.882  -8.544  36.422  1.00  0.00     0.159 A 
ENDROOT
BRANCH  22  24
HETATM   24  C20 UNK     1      29.917  -6.439  37.199  1.00  0.00    -0.020 A 
HETATM   25  C21 UNK     1      29.035  -6.667  38.258  1.00  0.00     0.015 A 
HETATM   26  C23 UNK     1      28.843  -5.688  39.232  1.00  0.00     0.037 A 
HETATM   27  C25 UNK     1      29.533  -4.478  39.151  1.00  0.00     0.065 A 
HETATM   28  C24 UNK     1      30.415  -4.248  38.096  1.00  0.00     0.037 A 
HETATM   29  C22 UNK     1      30.606  -5.227  37.121  1.00  0.00     0.015 A 
BRANCH  27  30
HETATM   30  O5  UNK     1      29.345  -3.524  40.102  1.00  0.00    -0.361 OA
HETATM   31  H24 UNK     1      29.151  -3.957  40.951  1.00  0.00     0.217 HD
ENDBRANCH  27  30
ENDBRANCH  22  24
TORSDOF 2
ENDMDL
MODEL 2
REMARK VINA RESULT:      -9.0      2.726      4.249
REMARK  2 active torsions:
REMARK  status: ('A' for Active; 'I' for Inactive)
REMARK    1  A    between atoms: C25_30  and  O5_5 
REMARK    2  A    between atoms: C18_23  and  C20_25 
ROOT
HETATM    1  O1  UNK     1      33.671  -7.247  33.449  1.00  0.00    -0.339 OA
HETATM    2  O2  UNK     1      31.225  -9.347  29.897  1.00  0.00    -0.335 OA
HETATM    3  O3  UNK     1      28.877  -7.491  33.657  1.00  0.00    -0.320 OA
HETATM    4  O4  UNK     1      32.347  -6.350  35.447  1.00  0.00    -0.286 OA
HETATM    5  C1  UNK     1      34.902  -7.758  32.912  1.00  0.00     0.061 C 
HETATM    6  C2  UNK     1      34.871  -7.767  31.381  1.00  0.00     0.042 C 
HETATM    7  C3  UNK     1      33.708  -8.597  30.863  1.00  0.00     0.047 C 
HETATM    8  C4  UNK     1      32.443  -8.296  31.626  1.00  0.00     0.011 A 
HETATM    9  C5  UNK     1      32.494  -7.647  32.871  1.00  0.00     0.096 A 
HETATM   10  C6  UNK     1      31.198  -8.701  31.107  1.00  0.00     0.092 A 
HETATM   11  C7  UNK     1      31.303  -7.361  33.565  1.00  0.00     0.084 A 
HETATM   12  C8  UNK     1      30.010  -8.424  31.792  1.00  0.00     0.033 A 
HETATM   13  C9  UNK     1      35.179  -9.143  33.516  1.00  0.00     0.046 C 
HETATM   14  C10 UNK     1      35.999  -6.793  33.382  1.00  0.00     0.046 C 
HETATM   15  C11 UNK     1      30.027  -9.970  29.394  1.00  0.00     0.078 C 
HETATM   16  C12 UNK     1      30.071  -7.747  33.022  1.00  0.00     0.105 A 
HETATM   17  C13 UNK     1      28.739  -8.836  31.203  1.00  0.00     0.016 C 
HETATM   18  C14 UNK     1      28.753  -9.562  30.085  1.00  0.00     0.012 C 
HETATM   19  C15 UNK     1      31.309  -6.665  34.880  1.00  0.00     0.200 A 
HETATM   20  C16 UNK     1      30.221 -11.485  29.518  1.00  0.00     0.051 C 
HETATM   21  C17 UNK     1      29.945  -9.581  27.913  1.00  0.00     0.051 C 
HETATM   22  C18 UNK     1      29.986  -6.378  35.496  1.00  0.00     0.048 A 
HETATM   23  C19 UNK     1      28.900  -6.808  34.843  1.00  0.00     0.159 A 
ENDROOT
BRANCH  22  24
HETATM   24  C20 UNK     1      29.857  -5.640  36.763  1.00  0.00    -0.020 A 
HETATM   25  C21 UNK     1      30.488  -4.404  36.923  1.00  0.00     0.015 A 
HETATM   26  C23 UNK     1      30.364  -3.706  38.124  1.00  0.00     0.037 A 
HETATM   27  C25 UNK     1      29.608  -4.242  39.168  1.00  0.00     0.065 A 
HETATM   28  C24 UNK     1      28.978  -5.476  39.010  1.00  0.00     0.037 A 
HETATM   29  C22 UNK     1      29.103  -6.174  37.810  1.00  0.00     0.015 A 
BRANCH  27  30
HETATM   30  O5  UNK     1      29.488  -3.560  40.339  1.00  0.00    -0.361 OA
HETATM   31  H24 UNK     1      29.876  -4.092  41.056  1.00  0.00     0.217 HD
ENDBRANCH  27  30
ENDBRANCH  22  24
TORSDOF 2
ENDMDL
MODEL 3
REMARK VINA RESULT:      -8.9      2.765      7.636
REMARK  2 active torsions:
REMARK  status: ('A' for Active; 'I' for Inactive)
REMARK    1  A    between atoms: C25_30  and  O5_5 
REMARK    2  A    between atoms: C18_23  and  C20_25 
ROOT
HETATM    1  O1  UNK     1      31.619  -6.596  35.879  1.00  0.00    -0.339 OA
HETATM    2  O2  UNK     1      28.115  -8.521  38.530  1.00  0.00    -0.335 OA
HETATM    3  O3  UNK     1      28.485  -9.632  33.869  1.00  0.00    -0.320 OA
HETATM    4  O4  UNK     1      31.699  -7.186  33.390  1.00  0.00    -0.286 OA
HETATM    5  C1  UNK     1      31.928  -5.680  36.942  1.00  0.00     0.061 C 
HETATM    6  C2  UNK     1      31.750  -6.345  38.309  1.00  0.00     0.042 C 
HETATM    7  C3  UNK     1      30.332  -6.864  38.483  1.00  0.00     0.047 C 
HETATM    8  C4  UNK     1      29.861  -7.583  37.245  1.00  0.00     0.011 A 
HETATM    9  C5  UNK     1      30.522  -7.406  36.018  1.00  0.00     0.096 A 
HETATM   10  C6  UNK     1      28.723  -8.411  37.305  1.00  0.00     0.092 A 
HETATM   11  C7  UNK     1      30.077  -8.094  34.873  1.00  0.00     0.084 A 
HETATM   12  C8  UNK     1      28.272  -9.095  36.171  1.00  0.00     0.033 A 
HETATM   13  C9  UNK     1      31.081  -4.409  36.776  1.00  0.00     0.046 C 
HETATM   14  C10 UNK     1      33.406  -5.306  36.759  1.00  0.00     0.046 C 
HETATM   15  C11 UNK     1      26.839  -9.181  38.637  1.00  0.00     0.078 C 
HETATM   16  C12 UNK     1      28.960  -8.935  34.956  1.00  0.00     0.105 A 
HETATM   17  C13 UNK     1      27.107  -9.967  36.286  1.00  0.00     0.016 C 
HETATM   18  C14 UNK     1      26.438  -9.999  37.438  1.00  0.00     0.012 C 
HETATM   19  C15 UNK     1      30.755  -7.946  33.556  1.00  0.00     0.200 A 
HETATM   20  C16 UNK     1      25.791  -8.093  38.895  1.00  0.00     0.051 C 
HETATM   21  C17 UNK     1      26.944 -10.097  39.862  1.00  0.00     0.051 C 
HETATM   22  C18 UNK     1      30.222  -8.758  32.430  1.00  0.00     0.048 A 
HETATM   23  C19 UNK     1      29.149  -9.520  32.678  1.00  0.00     0.159 A 
ENDROOT
BRANCH  22  24
HETATM   24  C20 UNK     1      30.843  -8.748  31.096  1.00  0.00    -0.020 A 
HETATM   25  C21 UNK     1      30.371  -7.881  30.108  1.00  0.00     0.015 A 
HETATM   26  C23 UNK     1      30.961  -7.872  28.844  1.00  0.00     0.037 A 
HETATM   27  C25 UNK     1      32.026  -8.729  28.566  1.00  0.00     0.065 A 
HETATM   28  C24 UNK     1      32.499  -9.595  29.551  1.00  0.00     0.037 A 
HETATM   29  C22 UNK     1      31.909  -9.605  30.814  1.00  0.00     0.015 A 
BRANCH  27  30
HETATM   30  O5  UNK     1      32.602  -8.720  27.333  1.00  0.00    -0.361 OA
HETATM   31  H24 UNK     1      32.097  -9.308  26.745  1.00  0.00     0.217 HD
ENDBRANCH  27  30
ENDBRANCH  22  24
TORSDOF 2
ENDMDL
MODEL 4
REMARK VINA RESULT:      -8.3      3.279      3.955
REMARK  2 active torsions:
REMARK  status: ('A' for Active; 'I' for Inactive)
REMARK    1  A    between atoms: C25_30  and  O5_5 
REMARK    2  A    between atoms: C18_23  and  C20_25 
ROOT
HETATM    1  O1  UNK     1      29.253  -6.796  31.891  1.00  0.00    -0.339 OA
HETATM    2  O2  UNK     1      33.945  -7.766  31.661  1.00  0.00    -0.335 OA
HETATM    3  O3  UNK     1      31.523  -8.584  35.730  1.00  0.00    -0.320 OA
HETATM    4  O4  UNK     1      28.057  -7.194  34.118  1.00  0.00    -0.286 OA
HETATM    5  C1  UNK     1      29.330  -6.099  30.638  1.00  0.00     0.061 C 
HETATM    6  C2  UNK     1      30.321  -6.779  29.690  1.00  0.00     0.042 C 
HETATM    7  C3  UNK     1      31.705  -6.857  30.313  1.00  0.00     0.047 C 
HETATM    8  C4  UNK     1      31.631  -7.305  31.750  1.00  0.00     0.011 A 
HETATM    9  C5  UNK     1      30.419  -7.245  32.458  1.00  0.00     0.096 A 
HETATM   10  C6  UNK     1      32.794  -7.753  32.406  1.00  0.00     0.092 A 
HETATM   11  C7  UNK     1      30.363  -7.679  33.796  1.00  0.00     0.084 A 
HETATM   12  C8  UNK     1      32.748  -8.182  33.737  1.00  0.00     0.033 A 
HETATM   13  C9  UNK     1      29.665  -4.623  30.901  1.00  0.00     0.046 C 
HETATM   14  C10 UNK     1      27.923  -6.177  30.027  1.00  0.00     0.046 C 
HETATM   15  C11 UNK     1      35.210  -8.015  32.305  1.00  0.00     0.078 C 
HETATM   16  C12 UNK     1      31.523  -8.147  34.425  1.00  0.00     0.105 A 
HETATM   17  C13 UNK     1      33.971  -8.668  34.369  1.00  0.00     0.016 C 
HETATM   18  C14 UNK     1      35.120  -8.582  33.697  1.00  0.00     0.012 C 
HETATM   19  C15 UNK     1      29.098  -7.644  34.579  1.00  0.00     0.200 A 
HETATM   20  C16 UNK     1      35.969  -6.684  32.337  1.00  0.00     0.051 C 
HETATM   21  C17 UNK     1      35.949  -9.009  31.402  1.00  0.00     0.051 C 
HETATM   22  C18 UNK     1      29.152  -8.170  35.969  1.00  0.00     0.048 A 
HETATM   23  C19 UNK     1      30.341  -8.589  36.419  1.00  0.00     0.159 A 
ENDROOT
BRANCH  22  24
HETATM   24  C20 UNK     1      27.956  -8.248  36.823  1.00  0.00    -0.020 A 
HETATM   25  C21 UNK     1      27.742  -7.294  37.820  1.00  0.00     0.015 A 
HETATM   26  C23 UNK     1      26.607  -7.369  38.628  1.00  0.00     0.037 A 
HETATM   27  C25 UNK     1      25.684  -8.398  38.440  1.00  0.00     0.065 A 
HETATM   28  C24 UNK     1      25.896  -9.352  37.445  1.00  0.00     0.037 A 
HETATM   29  C22 UNK     1      27.030  -9.277  36.638  1.00  0.00     0.015 A 
BRANCH  27  30
HETATM   30  O5  UNK     1      24.578  -8.470  39.229  1.00  0.00    -0.361 OA
HETATM   31  H24 UNK     1      24.390  -7.587  39.592  1.00  0.00     0.217 HD
ENDBRANCH  27  30
ENDBRANCH  22  24
TORSDOF 2
ENDMDL
MODEL 5
REMARK VINA RESULT:      -8.2      2.537      8.130
REMARK  2 active torsions:
REMARK  status: ('A' for Active; 'I' for Inactive)
REMARK    1  A    between atoms: C25_30  and  O5_5 
REMARK    2  A    between atoms: C18_23  and  C20_25 
ROOT
HETATM    1  O1  UNK     1      33.090  -7.298  34.606  1.00  0.00    -0.339 OA
HETATM    2  O2  UNK     1      29.903  -6.359  38.066  1.00  0.00    -0.335 OA
HETATM    3  O3  UNK     1      28.398  -7.912  33.774  1.00  0.00    -0.320 OA
HETATM    4  O4  UNK     1      32.197  -8.051  32.329  1.00  0.00    -0.286 OA
HETATM    5  C1  UNK     1      34.125  -6.672  35.382  1.00  0.00     0.061 C 
HETATM    6  C2  UNK     1      33.932  -6.944  36.876  1.00  0.00     0.042 C 
HETATM    7  C3  UNK     1      32.575  -6.451  37.349  1.00  0.00     0.047 C 
HETATM    8  C4  UNK     1      31.487  -6.839  36.381  1.00  0.00     0.011 A 
HETATM    9  C5  UNK     1      31.801  -7.233  35.070  1.00  0.00     0.096 A 
HETATM   10  C6  UNK     1      30.137  -6.771  36.779  1.00  0.00     0.092 A 
HETATM   11  C7  UNK     1      30.774  -7.604  34.181  1.00  0.00     0.084 A 
HETATM   12  C8  UNK     1      29.111  -7.135  35.901  1.00  0.00     0.033 A 
HETATM   13  C9  UNK     1      34.173  -5.174  35.044  1.00  0.00     0.046 C 
HETATM   14  C10 UNK     1      35.441  -7.317  34.924  1.00  0.00     0.046 C 
HETATM   15  C11 UNK     1      28.556  -6.069  38.489  1.00  0.00     0.078 C 
HETATM   16  C12 UNK     1      29.439  -7.557  34.601  1.00  0.00     0.105 A 
HETATM   17  C13 UNK     1      27.727  -7.079  36.364  1.00  0.00     0.016 C 
HETATM   18  C14 UNK     1      27.473  -6.575  37.572  1.00  0.00     0.012 C 
HETATM   19  C15 UNK     1      31.063  -8.040  32.788  1.00  0.00     0.200 A 
HETATM   20  C16 UNK     1      28.446  -4.547  38.629  1.00  0.00     0.051 C 
HETATM   21  C17 UNK     1      28.400  -6.726  39.865  1.00  0.00     0.051 C 
HETATM   22  C18 UNK     1      29.900  -8.451  31.957  1.00  0.00     0.048 A 
HETATM   23  C19 UNK     1      28.686  -8.354  32.512  1.00  0.00     0.159 A 
ENDROOT
BRANCH  22  24
HETATM   24  C20 UNK     1      30.060  -8.961  30.585  1.00  0.00    -0.020 A 
HETATM   25  C21 UNK     1      29.933 -10.327  30.324  1.00  0.00     0.015 A 
HETATM   26  C23 UNK     1      30.084 -10.808  29.024  1.00  0.00     0.037 A 
HETATM   27  C25 UNK     1      30.362  -9.924  27.981  1.00  0.00     0.065 A 
HETATM   28  C24 UNK     1      30.489  -8.559  28.239  1.00  0.00     0.037 A 
HETATM   29  C22 UNK     1      30.339  -8.078  29.540  1.00  0.00     0.015 A 
BRANCH  27  30
HETATM   30  O5  UNK     1      30.509 -10.393  26.713  1.00  0.00    -0.361 OA
HETATM   31  H24 UNK     1      30.999  -9.737  26.187  1.00  0.00     0.217 HD
ENDBRANCH  27  30
ENDBRANCH  22  24
TORSDOF 2
ENDMDL
MODEL 6
REMARK VINA RESULT:      -8.2      3.919      5.482
REMARK  2 active torsions:
REMARK  status: ('A' for Active; 'I' for Inactive)
REMARK    1  A    between atoms: C25_30  and  O5_5 
REMARK    2  A    between atoms: C18_23  and  C20_25 
ROOT
HETATM    1  O1  UNK     1      33.200  -6.114  35.359  1.00  0.00    -0.339 OA
HETATM    2  O2  UNK     1      35.963  -8.870  32.570  1.00  0.00    -0.335 OA
HETATM    3  O3  UNK     1      32.036 -10.719  34.633  1.00  0.00    -0.320 OA
HETATM    4  O4  UNK     1      31.169  -7.198  36.476  1.00  0.00    -0.286 OA
HETATM    5  C1  UNK     1      34.208  -5.090  35.355  1.00  0.00     0.061 C 
HETATM    6  C2  UNK     1      34.911  -5.017  33.998  1.00  0.00     0.042 C 
HETATM    7  C3  UNK     1      35.543  -6.351  33.638  1.00  0.00     0.047 C 
HETATM    8  C4  UNK     1      34.601  -7.493  33.921  1.00  0.00     0.011 A 
HETATM    9  C5  UNK     1      33.492  -7.315  34.765  1.00  0.00     0.096 A 
HETATM   10  C6  UNK     1      34.852  -8.763  33.367  1.00  0.00     0.092 A 
HETATM   11  C7  UNK     1      32.614  -8.388  35.010  1.00  0.00     0.084 A 
HETATM   12  C8  UNK     1      33.987  -9.836  33.608  1.00  0.00     0.033 A 
HETATM   13  C9  UNK     1      35.177  -5.331  36.523  1.00  0.00     0.046 C 
HETATM   14  C10 UNK     1      33.465  -3.769  35.603  1.00  0.00     0.046 C 
HETATM   15  C11 UNK     1      36.404 -10.169  32.129  1.00  0.00     0.078 C 
HETATM   16  C12 UNK     1      32.863  -9.637  34.429  1.00  0.00     0.105 A 
HETATM   17  C13 UNK     1      34.268 -11.128  32.988  1.00  0.00     0.016 C 
HETATM   18  C14 UNK     1      35.402 -11.280  32.303  1.00  0.00     0.012 C 
HETATM   19  C15 UNK     1      31.421  -8.241  35.886  1.00  0.00     0.200 A 
HETATM   20  C16 UNK     1      37.681 -10.499  32.909  1.00  0.00     0.051 C 
HETATM   21  C17 UNK     1      36.733 -10.015  30.640  1.00  0.00     0.051 C 
HETATM   22  C18 UNK     1      30.543  -9.431  36.034  1.00  0.00     0.048 A 
HETATM   23  C19 UNK     1      30.919 -10.551  35.404  1.00  0.00     0.159 A 
ENDROOT
BRANCH  22  24
HETATM   24  C20 UNK     1      29.300  -9.394  36.822  1.00  0.00    -0.020 A 
HETATM   25  C21 UNK     1      28.063  -9.307  36.180  1.00  0.00     0.015 A 
HETATM   26  C23 UNK     1      26.887  -9.273  36.929  1.00  0.00     0.037 A 
HETATM   27  C25 UNK     1      26.945  -9.327  38.322  1.00  0.00     0.065 A 
HETATM   28  C24 UNK     1      28.179  -9.414  38.965  1.00  0.00     0.037 A 
HETATM   29  C22 UNK     1      29.355  -9.447  38.217  1.00  0.00     0.015 A 
BRANCH  27  30
HETATM   30  O5  UNK     1      25.797  -9.293  39.051  1.00  0.00    -0.361 OA
HETATM   31  H24 UNK     1      25.428 -10.193  39.102  1.00  0.00     0.217 HD
ENDBRANCH  27  30
ENDBRANCH  22  24
TORSDOF 2
ENDMDL
MODEL 7
REMARK VINA RESULT:      -8.1      2.528      2.773
REMARK  2 active torsions:
REMARK  status: ('A' for Active; 'I' for Inactive)
REMARK    1  A    between atoms: C25_30  and  O5_5 
REMARK    2  A    between atoms: C18_23  and  C20_25 
ROOT
HETATM    1  O1  UNK     1      30.244  -7.020  32.033  1.00  0.00    -0.339 OA
HETATM    2  O2  UNK     1      33.964  -9.878  31.032  1.00  0.00    -0.335 OA
HETATM    3  O3  UNK     1      33.527  -7.955  35.414  1.00  0.00    -0.320 OA
HETATM    4  O4  UNK     1      30.127  -5.981  34.369  1.00  0.00    -0.286 OA
HETATM    5  C1  UNK     1      29.903  -6.965  30.638  1.00  0.00     0.061 C 
HETATM    6  C2  UNK     1      30.174  -8.308  29.954  1.00  0.00     0.042 C 
HETATM    7  C3  UNK     1      31.630  -8.713  30.104  1.00  0.00     0.047 C 
HETATM    8  C4  UNK     1      32.113  -8.492  31.515  1.00  0.00     0.011 A 
HETATM    9  C5  UNK     1      31.402  -7.659  32.394  1.00  0.00     0.096 A 
HETATM   10  C6  UNK     1      33.310  -9.095  31.949  1.00  0.00     0.092 A 
HETATM   11  C7  UNK     1      31.859  -7.473  33.713  1.00  0.00     0.084 A 
HETATM   12  C8  UNK     1      33.773  -8.912  33.256  1.00  0.00     0.033 A 
HETATM   13  C9  UNK     1      30.649  -5.794  29.982  1.00  0.00     0.046 C 
HETATM   14  C10 UNK     1      28.396  -6.674  30.585  1.00  0.00     0.046 C 
HETATM   15  C11 UNK     1      35.288 -10.365  31.324  1.00  0.00     0.078 C 
HETATM   16  C12 UNK     1      33.037  -8.101  34.136  1.00  0.00     0.105 A 
HETATM   17  C13 UNK     1      35.003  -9.580  33.673  1.00  0.00     0.016 C 
HETATM   18  C14 UNK     1      35.710 -10.254  32.765  1.00  0.00     0.012 C 
HETATM   19  C15 UNK     1      31.130  -6.610  34.681  1.00  0.00     0.200 A 
HETATM   20  C16 UNK     1      36.261  -9.580  30.437  1.00  0.00     0.051 C 
HETATM   21  C17 UNK     1      35.290 -11.842  30.910  1.00  0.00     0.051 C 
HETATM   22  C18 UNK     1      31.685  -6.526  36.058  1.00  0.00     0.048 A 
HETATM   23  C19 UNK     1      32.818  -7.195  36.304  1.00  0.00     0.159 A 
ENDROOT
BRANCH  22  24
HETATM   24  C20 UNK     1      31.021  -5.756  37.123  1.00  0.00    -0.020 A 
HETATM   25  C21 UNK     1      30.219  -6.406  38.064  1.00  0.00     0.015 A 
HETATM   26  C23 UNK     1      29.592  -5.675  39.073  1.00  0.00     0.037 A 
HETATM   27  C25 UNK     1      29.766  -4.292  39.144  1.00  0.00     0.065 A 
HETATM   28  C24 UNK     1      30.567  -3.642  38.206  1.00  0.00     0.037 A 
HETATM   29  C22 UNK     1      31.193  -4.372  37.196  1.00  0.00     0.015 A 
BRANCH  27  30
HETATM   30  O5  UNK     1      29.154  -3.580  40.128  1.00  0.00    -0.361 OA
HETATM   31  H24 UNK     1      29.798  -3.399  40.835  1.00  0.00     0.217 HD
ENDBRANCH  27  30
ENDBRANCH  22  24
TORSDOF 2
ENDMDL
MODEL 8
REMARK VINA RESULT:      -8.1      3.256      8.470
REMARK  2 active torsions:
REMARK  status: ('A' for Active; 'I' for Inactive)
REMARK    1  A    between atoms: C25_30  and  O5_5 
REMARK    2  A    between atoms: C18_23  and  C20_25 
ROOT
HETATM    1  O1  UNK     1      35.173  -9.083  33.671  1.00  0.00    -0.339 OA
HETATM    2  O2  UNK     1      33.177  -5.926  36.682  1.00  0.00    -0.335 OA
HETATM    3  O3  UNK     1      30.653  -9.725  35.169  1.00  0.00    -0.320 OA
HETATM    4  O4  UNK     1      33.733 -11.037  32.859  1.00  0.00    -0.286 OA
HETATM    5  C1  UNK     1      36.277  -8.189  33.456  1.00  0.00     0.061 C 
HETATM    6  C2  UNK     1      36.633  -7.437  34.741  1.00  0.00     0.042 C 
HETATM    7  C3  UNK     1      35.441  -6.654  35.264  1.00  0.00     0.047 C 
HETATM    8  C4  UNK     1      34.183  -7.483  35.219  1.00  0.00     0.011 A 
HETATM    9  C5  UNK     1      34.116  -8.641  34.425  1.00  0.00     0.096 A 
HETATM   10  C6  UNK     1      33.048  -7.076  35.946  1.00  0.00     0.092 A 
HETATM   11  C7  UNK     1      32.938  -9.412  34.403  1.00  0.00     0.084 A 
HETATM   12  C8  UNK     1      31.872  -7.835  35.926  1.00  0.00     0.033 A 
HETATM   13  C9  UNK     1      35.947  -7.252  32.284  1.00  0.00     0.046 C 
HETATM   14  C10 UNK     1      37.463  -9.076  33.052  1.00  0.00     0.046 C 
HETATM   15  C11 UNK     1      32.014  -5.333  37.291  1.00  0.00     0.078 C 
HETATM   16  C12 UNK     1      31.828  -9.008  35.154  1.00  0.00     0.105 A 
HETATM   17  C13 UNK     1      30.729  -7.393  36.720  1.00  0.00     0.016 C 
HETATM   18  C14 UNK     1      30.799  -6.220  37.351  1.00  0.00     0.012 C 
HETATM   19  C15 UNK     1      32.828 -10.651  33.587  1.00  0.00     0.200 A 
HETATM   20  C16 UNK     1      31.689  -4.063  36.496  1.00  0.00     0.051 C 
HETATM   21  C17 UNK     1      32.435  -4.956  38.716  1.00  0.00     0.051 C 
HETATM   22  C18 UNK     1      31.550 -11.406  33.679  1.00  0.00     0.048 A 
HETATM   23  C19 UNK     1      30.586 -10.887  34.450  1.00  0.00     0.159 A 
ENDROOT
BRANCH  22  24
HETATM   24  C20 UNK     1      31.340 -12.679  32.970  1.00  0.00    -0.020 A 
HETATM   25  C21 UNK     1      30.840 -12.682  31.666  1.00  0.00     0.015 A 
HETATM   26  C23 UNK     1      30.643 -13.890  30.995  1.00  0.00     0.037 A 
HETATM   27  C25 UNK     1      30.946 -15.096  31.627  1.00  0.00     0.065 A 
HETATM   28  C24 UNK     1      31.446 -15.095  32.929  1.00  0.00     0.037 A 
HETATM   29  C22 UNK     1      31.642 -13.888  33.600  1.00  0.00     0.015 A 
BRANCH  27  30
HETATM   30  O5  UNK     1      30.754 -16.273  30.973  1.00  0.00    -0.361 OA
HETATM   31  H24 UNK     1      29.901 -16.652  31.249  1.00  0.00     0.217 HD
ENDBRANCH  27  30
ENDBRANCH  22  24
TORSDOF 2
ENDMDL
MODEL 9
REMARK VINA RESULT:      -8.1      2.649      7.346
REMARK  2 active torsions:
REMARK  status: ('A' for Active; 'I' for Inactive)
REMARK    1  A    between atoms: C25_30  and  O5_5 
REMARK    2  A    between atoms: C18_23  and  C20_25 
ROOT
HETATM    1  O1  UNK     1      29.540  -7.624  31.615  1.00  0.00    -0.339 OA
HETATM    2  O2  UNK     1      32.356  -4.788  34.268  1.00  0.00    -0.335 OA
HETATM    3  O3  UNK     1      33.025  -9.547  34.306  1.00  0.00    -0.320 OA
HETATM    4  O4  UNK     1      29.918 -10.152  31.751  1.00  0.00    -0.286 OA
HETATM    5  C1  UNK     1      28.657  -6.519  31.360  1.00  0.00     0.061 C 
HETATM    6  C2  UNK     1      29.442  -5.213  31.215  1.00  0.00     0.042 C 
HETATM    7  C3  UNK     1      30.263  -4.928  32.461  1.00  0.00     0.047 C 
HETATM    8  C4  UNK     1      30.976  -6.168  32.938  1.00  0.00     0.011 A 
HETATM    9  C5  UNK     1      30.574  -7.440  32.496  1.00  0.00     0.096 A 
HETATM   10  C6  UNK     1      32.031  -6.058  33.864  1.00  0.00     0.092 A 
HETATM   11  C7  UNK     1      31.257  -8.588  32.941  1.00  0.00     0.084 A 
HETATM   12  C8  UNK     1      32.713  -7.194  34.314  1.00  0.00     0.033 A 
HETATM   13  C9  UNK     1      27.590  -6.461  32.463  1.00  0.00     0.046 C 
HETATM   14  C10 UNK     1      27.964  -6.835  30.027  1.00  0.00     0.046 C 
HETATM   15  C11 UNK     1      33.280  -4.600  35.357  1.00  0.00     0.078 C 
HETATM   16  C12 UNK     1      32.322  -8.459  33.841  1.00  0.00     0.105 A 
HETATM   17  C13 UNK     1      33.820  -7.032  35.251  1.00  0.00     0.016 C 
HETATM   18  C14 UNK     1      34.078  -5.818  35.740  1.00  0.00     0.012 C 
HETATM   19  C15 UNK     1      30.874  -9.953  32.490  1.00  0.00     0.200 A 
HETATM   20  C16 UNK     1      32.464  -4.117  36.561  1.00  0.00     0.051 C 
HETATM   21  C17 UNK     1      34.238  -3.491  34.905  1.00  0.00     0.051 C 
HETATM   22  C18 UNK     1      31.698 -11.084  32.992  1.00  0.00     0.048 A 
HETATM   23  C19 UNK     1      32.688 -10.790  33.843  1.00  0.00     0.159 A 
ENDROOT
BRANCH  22  24
HETATM   24  C20 UNK     1      31.459 -12.474  32.569  1.00  0.00    -0.020 A 
HETATM   25  C21 UNK     1      31.323 -12.782  31.214  1.00  0.00     0.015 A 
HETATM   26  C23 UNK     1      31.098 -14.100  30.815  1.00  0.00     0.037 A 
HETATM   27  C25 UNK     1      31.008 -15.112  31.771  1.00  0.00     0.065 A 
HETATM   28  C24 UNK     1      31.143 -14.806  33.124  1.00  0.00     0.037 A 
HETATM   29  C22 UNK     1      31.368 -13.489  33.523  1.00  0.00     0.015 A 
BRANCH  27  30
HETATM   30  O5  UNK     1      30.788 -16.396  31.381  1.00  0.00    -0.361 OA
HETATM   31  H24 UNK     1      29.893 -16.463  31.003  1.00  0.00     0.217 HD
ENDBRANCH  27  30
ENDBRANCH  22  24
TORSDOF 2
ENDMDL
MODEL 10
REMARK VINA RESULT:      -8.0     25.754     30.093
REMARK  2 active torsions:
REMARK  status: ('A' for Active; 'I' for Inactive)
REMARK    1  A    between atoms: C25_30  and  O5_5 
REMARK    2  A    between atoms: C18_23  and  C20_25 
ROOT
HETATM    1  O1  UNK     1       8.981   9.379  18.624  1.00  0.00    -0.339 OA
HETATM    2  O2  UNK     1      11.442  10.486  14.658  1.00  0.00    -0.335 OA
HETATM    3  O3  UNK     1      13.778   9.105  18.625  1.00  0.00    -0.320 OA
HETATM    4  O4  UNK     1      10.307   8.723  20.712  1.00  0.00    -0.286 OA
HETATM    5  C1  UNK     1       7.785   9.919  18.040  1.00  0.00     0.061 C 
HETATM    6  C2  UNK     1       7.733   9.640  16.536  1.00  0.00     0.042 C 
HETATM    7  C3  UNK     1       8.949  10.219  15.831  1.00  0.00     0.047 C 
HETATM    8  C4  UNK     1      10.213   9.922  16.595  1.00  0.00     0.011 A 
HETATM    9  C5  UNK     1      10.161   9.526  17.942  1.00  0.00     0.096 A 
HETATM   10  C6  UNK     1      11.465  10.077  15.967  1.00  0.00     0.092 A 
HETATM   11  C7  UNK     1      11.351   9.240  18.638  1.00  0.00     0.084 A 
HETATM   12  C8  UNK     1      12.652   9.799  16.653  1.00  0.00     0.033 A 
HETATM   13  C9  UNK     1       7.689  11.415  18.377  1.00  0.00     0.046 C 
HETATM   14  C10 UNK     1       6.618   9.191  18.722  1.00  0.00     0.046 C 
HETATM   15  C11 UNK     1      12.670  10.862  14.006  1.00  0.00     0.078 C 
HETATM   16  C12 UNK     1      12.585   9.374  17.991  1.00  0.00     0.105 A 
HETATM   17  C13 UNK     1      13.926   9.944  15.955  1.00  0.00     0.016 C 
HETATM   18  C14 UNK     1      13.929  10.447  14.720  1.00  0.00     0.012 C 
HETATM   19  C15 UNK     1      11.341   8.806  20.062  1.00  0.00     0.200 A 
HETATM   20  C16 UNK     1      12.646  12.386  13.845  1.00  0.00     0.051 C 
HETATM   21  C17 UNK     1      12.630  10.197  12.625  1.00  0.00     0.051 C 
HETATM   22  C18 UNK     1      12.657   8.489  20.678  1.00  0.00     0.048 A 
HETATM   23  C19 UNK     1      13.746   8.662  19.919  1.00  0.00     0.159 A 
ENDROOT
BRANCH  22  24
HETATM   24  C20 UNK     1      12.775   7.990  22.058  1.00  0.00    -0.020 A 
HETATM   25  C21 UNK     1      12.712   8.879  23.133  1.00  0.00     0.015 A 
HETATM   26  C23 UNK     1      12.824   8.405  24.440  1.00  0.00     0.037 A 
HETATM   27  C25 UNK     1      12.996   7.040  24.675  1.00  0.00     0.065 A 
HETATM   28  C24 UNK     1      13.059   6.151  23.602  1.00  0.00     0.037 A 
HETATM   29  C22 UNK     1      12.949   6.625  22.295  1.00  0.00     0.015 A 
BRANCH  27  30
HETATM   30  O5  UNK     1      13.105   6.578  25.949  1.00  0.00    -0.361 OA
HETATM   31  H24 UNK     1      13.436   7.295  26.518  1.00  0.00     0.217 HD
ENDBRANCH  27  30
ENDBRANCH  22  24
TORSDOF 2
ENDMDL
