MODEL 1
REMARK VINA RESULT:     -10.5      0.000      0.000
REMARK  5 active torsions:
REMARK  status: ('A' for Active; 'I' for Inactive)
REMARK    1  A    between atoms: C5_13  and  N1_6 
REMARK    2  A    between atoms: C7_15  and  N2_7 
REMARK    3  A    between atoms: C13_21  and  N3_8 
REMARK    4  A    between atoms: C7_15  and  N3_8 
REMARK    5  A    between atoms: C5_13  and  C6_14 
ROOT
HETATM    1  N1  UNK     1      20.352  -1.660  32.711  1.00  0.00     0.095 N 
HETATM    2  N2  UNK     1      19.349  -2.066  35.343  1.00  0.00    -0.355 N 
HETATM    3  C1  UNK     1      18.921  -1.469  32.997  1.00  0.00     0.292 C 
HETATM    4  C2  UNK     1      20.915  -2.720  33.562  1.00  0.00     0.292 C 
HETATM    5  C3  UNK     1      18.704  -1.101  34.464  1.00  0.00     0.155 C 
HETATM    6  C4  UNK     1      20.739  -2.379  35.042  1.00  0.00     0.155 C 
ENDROOT
BRANCH   2   7
HETATM    7  C7  UNK     1      18.727  -2.561  36.441  1.00  0.00     0.174 C 
HETATM    8  S1  UNK     1      18.215  -1.521  37.654  1.00  0.00    -0.041 SA
BRANCH   7   9
HETATM    9  N3  UNK     1      18.574  -3.915  36.588  1.00  0.00    -0.333 N 
HETATM   10  H13 UNK     1      17.615  -4.248  36.520  1.00  0.00     0.168 HD
BRANCH   9  11
HETATM   11  C13 UNK     1      19.525  -4.943  36.799  1.00  0.00     0.036 A 
HETATM   12  C14 UNK     1      19.607  -5.985  35.897  1.00  0.00     0.067 A 
HETATM   13  C17 UNK     1      20.553  -6.987  36.123  1.00  0.00     0.092 A 
HETATM   14  C16 UNK     1      21.410  -6.968  37.224  1.00  0.00     0.004 A 
HETATM   15  O3  UNK     1      20.602  -8.032  35.178  1.00  0.00    -0.275 OA
HETATM   16  C19 UNK     1      21.298  -5.894  38.117  1.00  0.00     0.017 A 
HETATM   17  C20 UNK     1      22.375  -8.065  37.383  1.00  0.00    -0.043 A 
HETATM   18  C15 UNK     1      20.356  -4.882  37.904  1.00  0.00     0.030 A 
HETATM   19  C21 UNK     1      22.400  -9.045  36.469  1.00  0.00     0.090 A 
HETATM   20  C22 UNK     1      23.311  -8.073  38.556  1.00  0.00     0.049 C 
HETATM   21  C23 UNK     1      21.502  -9.079  35.302  1.00  0.00     0.288 A 
HETATM   22  O4  UNK     1      21.553  -9.992  34.487  1.00  0.00    -0.260 OA
ENDBRANCH   9  11
ENDBRANCH   7   9
ENDBRANCH   2   7
BRANCH   1  23
HETATM   23  C5  UNK     1      20.555  -1.976  31.298  1.00  0.00     0.311 C 
BRANCH  23  24
HETATM   24  C6  UNK     1      19.947  -0.940  30.397  1.00  0.00    -0.027 A 
HETATM   25  C8  UNK     1      19.571   0.292  30.926  1.00  0.00     0.048 A 
HETATM   26  C10 UNK     1      19.016   1.211  30.060  1.00  0.00     0.105 A 
HETATM   27  O1  UNK     1      18.588   2.461  30.388  1.00  0.00    -0.323 OA
HETATM   28  C11 UNK     1      18.837   0.932  28.725  1.00  0.00     0.105 A 
HETATM   29  C18 UNK     1      18.120   2.936  29.109  1.00  0.00     0.352 A 
HETATM   30  O2  UNK     1      18.276   1.971  28.050  1.00  0.00    -0.323 OA
HETATM   31  C12 UNK     1      19.204  -0.283  28.181  1.00  0.00     0.040 A 
HETATM   32  C9  UNK     1      19.768  -1.232  29.038  1.00  0.00     0.012 A 
ENDBRANCH  23  24
ENDBRANCH   1  23
TORSDOF 5
ENDMDL
MODEL 2
REMARK VINA RESULT:     -10.2      2.344     10.275
REMARK  5 active torsions:
REMARK  status: ('A' for Active; 'I' for Inactive)
REMARK    1  A    between atoms: C5_13  and  N1_6 
REMARK    2  A    between atoms: C7_15  and  N2_7 
REMARK    3  A    between atoms: C13_21  and  N3_8 
REMARK    4  A    between atoms: C7_15  and  N3_8 
REMARK    5  A    between atoms: C5_13  and  C6_14 
ROOT
HETATM    1  N1  UNK     1      19.695  -2.961  36.529  1.00  0.00     0.095 N 
HETATM    2  N2  UNK     1      17.955  -0.847  35.753  1.00  0.00    -0.355 N 
HETATM    3  C1  UNK     1      18.792  -2.345  37.514  1.00  0.00     0.292 C 
HETATM    4  C2  UNK     1      20.132  -1.969  35.533  1.00  0.00     0.292 C 
HETATM    5  C3  UNK     1      17.563  -1.748  36.828  1.00  0.00     0.155 C 
HETATM    6  C4  UNK     1      18.931  -1.364  34.806  1.00  0.00     0.155 C 
ENDROOT
BRANCH   2   7
HETATM    7  C7  UNK     1      17.364   0.360  35.582  1.00  0.00     0.174 C 
HETATM    8  S1  UNK     1      15.691   0.485  35.603  1.00  0.00    -0.041 SA
BRANCH   7   9
HETATM    9  N3  UNK     1      18.131   1.467  35.329  1.00  0.00    -0.333 N 
HETATM   10  H13 UNK     1      18.736   1.755  36.096  1.00  0.00     0.168 HD
BRANCH   9  11
HETATM   11  C13 UNK     1      18.247   2.276  34.172  1.00  0.00     0.036 A 
HETATM   12  C14 UNK     1      18.180   1.689  32.925  1.00  0.00     0.067 A 
HETATM   13  C17 UNK     1      18.296   2.505  31.798  1.00  0.00     0.092 A 
HETATM   14  C16 UNK     1      18.475   3.885  31.893  1.00  0.00     0.004 A 
HETATM   15  O3  UNK     1      18.222   1.864  30.545  1.00  0.00    -0.275 OA
HETATM   16  C19 UNK     1      18.538   4.446  33.176  1.00  0.00     0.017 A 
HETATM   17  C20 UNK     1      18.587   4.668  30.654  1.00  0.00    -0.043 A 
HETATM   18  C15 UNK     1      18.423   3.642  34.315  1.00  0.00     0.030 A 
HETATM   19  C21 UNK     1      18.513   4.032  29.477  1.00  0.00     0.090 A 
HETATM   20  C22 UNK     1      18.781   6.155  30.723  1.00  0.00     0.049 C 
HETATM   21  C23 UNK     1      18.324   2.577  29.360  1.00  0.00     0.288 A 
HETATM   22  O4  UNK     1      18.261   2.029  28.265  1.00  0.00    -0.260 OA
ENDBRANCH   9  11
ENDBRANCH   7   9
ENDBRANCH   2   7
BRANCH   1  23
HETATM   23  C5  UNK     1      20.849  -3.561  37.196  1.00  0.00     0.311 C 
BRANCH  23  24
HETATM   24  C6  UNK     1      20.673  -5.037  37.406  1.00  0.00    -0.027 A 
HETATM   25  C8  UNK     1      19.707  -5.723  36.674  1.00  0.00     0.048 A 
HETATM   26  C10 UNK     1      19.582  -7.077  36.902  1.00  0.00     0.105 A 
HETATM   27  O1  UNK     1      18.699  -7.913  36.288  1.00  0.00    -0.323 OA
HETATM   28  C11 UNK     1      20.374  -7.735  37.814  1.00  0.00     0.105 A 
HETATM   29  C18 UNK     1      19.026  -9.169  36.917  1.00  0.00     0.352 A 
HETATM   30  O2  UNK     1      20.088  -9.063  37.886  1.00  0.00    -0.323 OA
HETATM   31  C12 UNK     1      21.337  -7.073  38.549  1.00  0.00     0.040 A 
HETATM   32  C9  UNK     1      21.484  -5.700  38.337  1.00  0.00     0.012 A 
ENDBRANCH  23  24
ENDBRANCH   1  23
TORSDOF 5
ENDMDL
MODEL 3
REMARK VINA RESULT:     -10.1      7.190     13.078
REMARK  5 active torsions:
REMARK  status: ('A' for Active; 'I' for Inactive)
REMARK    1  A    between atoms: C5_13  and  N1_6 
REMARK    2  A    between atoms: C7_15  and  N2_7 
REMARK    3  A    between atoms: C13_21  and  N3_8 
REMARK    4  A    between atoms: C7_15  and  N3_8 
REMARK    5  A    between atoms: C5_13  and  C6_14 
ROOT
HETATM    1  N1  UNK     1      18.865   3.462  30.853  1.00  0.00     0.095 N 
HETATM    2  N2  UNK     1      18.692   5.599  32.725  1.00  0.00    -0.355 N 
HETATM    3  C1  UNK     1      19.075   4.851  30.414  1.00  0.00     0.292 C 
HETATM    4  C2  UNK     1      17.887   3.407  31.952  1.00  0.00     0.292 C 
HETATM    5  C3  UNK     1      19.572   5.718  31.571  1.00  0.00     0.155 C 
HETATM    6  C4  UNK     1      18.359   4.244  33.141  1.00  0.00     0.155 C 
ENDROOT
BRANCH   2   7
HETATM    7  C7  UNK     1      18.295   6.682  33.436  1.00  0.00     0.174 C 
HETATM    8  S1  UNK     1      19.404   7.877  33.831  1.00  0.00    -0.041 SA
BRANCH   7   9
HETATM    9  N3  UNK     1      17.004   6.769  33.886  1.00  0.00    -0.333 N 
HETATM   10  H13 UNK     1      16.642   5.921  34.317  1.00  0.00     0.168 HD
BRANCH   9  11
HETATM   11  C13 UNK     1      16.084   7.845  33.875  1.00  0.00     0.036 A 
HETATM   12  C14 UNK     1      16.012   8.686  34.967  1.00  0.00     0.067 A 
HETATM   13  C17 UNK     1      15.099   9.742  34.935  1.00  0.00     0.092 A 
HETATM   14  C16 UNK     1      14.263   9.971  33.842  1.00  0.00     0.004 A 
HETATM   15  O3  UNK     1      15.059  10.577  36.071  1.00  0.00    -0.275 OA
HETATM   16  C19 UNK     1      14.364   9.097  32.752  1.00  0.00     0.017 A 
HETATM   17  C20 UNK     1      13.331  11.107  33.894  1.00  0.00    -0.043 A 
HETATM   18  C15 UNK     1      15.274   8.034  32.768  1.00  0.00     0.030 A 
HETATM   19  C21 UNK     1      13.315  11.883  34.986  1.00  0.00     0.090 A 
HETATM   20  C22 UNK     1      12.419  11.379  32.734  1.00  0.00     0.049 C 
HETATM   21  C23 UNK     1      14.192  11.655  36.147  1.00  0.00     0.288 A 
HETATM   22  O4  UNK     1      14.149  12.386  37.130  1.00  0.00    -0.260 OA
ENDBRANCH   9  11
ENDBRANCH   7   9
ENDBRANCH   2   7
BRANCH   1  23
HETATM   23  C5  UNK     1      18.423   2.631  29.734  1.00  0.00     0.311 C 
BRANCH  23  24
HETATM   24  C6  UNK     1      19.022   1.255  29.784  1.00  0.00    -0.027 A 
HETATM   25  C8  UNK     1      19.371   0.706  31.016  1.00  0.00     0.048 A 
HETATM   26  C10 UNK     1      19.918  -0.561  31.012  1.00  0.00     0.105 A 
HETATM   27  O1  UNK     1      20.322  -1.260  32.108  1.00  0.00    -0.323 OA
HETATM   28  C11 UNK     1      20.115  -1.261  29.844  1.00  0.00     0.105 A 
HETATM   29  C18 UNK     1      20.794  -2.479  31.499  1.00  0.00     0.352 A 
HETATM   30  O2  UNK     1      20.666  -2.486  30.062  1.00  0.00    -0.323 OA
HETATM   31  C12 UNK     1      19.776  -0.734  28.615  1.00  0.00     0.040 A 
HETATM   32  C9  UNK     1      19.220   0.548  28.591  1.00  0.00     0.012 A 
ENDBRANCH  23  24
ENDBRANCH   1  23
TORSDOF 5
ENDMDL
MODEL 4
REMARK VINA RESULT:      -9.9      3.212     11.038
REMARK  5 active torsions:
REMARK  status: ('A' for Active; 'I' for Inactive)
REMARK    1  A    between atoms: C5_13  and  N1_6 
REMARK    2  A    between atoms: C7_15  and  N2_7 
REMARK    3  A    between atoms: C13_21  and  N3_8 
REMARK    4  A    between atoms: C7_15  and  N3_8 
REMARK    5  A    between atoms: C5_13  and  C6_14 
ROOT
HETATM    1  N1  UNK     1      19.564  -3.232  36.346  1.00  0.00     0.095 N 
HETATM    2  N2  UNK     1      18.506  -0.754  35.431  1.00  0.00    -0.355 N 
HETATM    3  C1  UNK     1      18.812  -2.363  37.264  1.00  0.00     0.292 C 
HETATM    4  C2  UNK     1      20.305  -2.429  35.360  1.00  0.00     0.292 C 
HETATM    5  C3  UNK     1      17.829  -1.480  36.496  1.00  0.00     0.155 C 
HETATM    6  C4  UNK     1      19.354  -1.546  34.552  1.00  0.00     0.155 C 
ENDROOT
BRANCH   2   7
HETATM    7  C7  UNK     1      18.274   0.562  35.204  1.00  0.00     0.174 C 
HETATM    8  S1  UNK     1      18.376   1.661  36.467  1.00  0.00    -0.041 SA
BRANCH   7   9
HETATM    9  N3  UNK     1      17.895   0.984  33.956  1.00  0.00    -0.333 N 
HETATM   10  H13 UNK     1      17.350   0.310  33.423  1.00  0.00     0.168 HD
BRANCH   9  11
HETATM   11  C13 UNK     1      18.112   2.210  33.281  1.00  0.00     0.036 A 
HETATM   12  C14 UNK     1      18.112   3.388  34.000  1.00  0.00     0.067 A 
HETATM   13  C17 UNK     1      18.329   4.585  33.314  1.00  0.00     0.092 A 
HETATM   14  C16 UNK     1      18.544   4.626  31.937  1.00  0.00     0.004 A 
HETATM   15  O3  UNK     1      18.321   5.765  34.087  1.00  0.00    -0.275 OA
HETATM   16  C19 UNK     1      18.537   3.410  31.241  1.00  0.00     0.017 A 
HETATM   17  C20 UNK     1      18.764   5.931  31.298  1.00  0.00    -0.043 A 
HETATM   18  C15 UNK     1      18.322   2.202  31.913  1.00  0.00     0.030 A 
HETATM   19  C21 UNK     1      18.751   7.036  32.056  1.00  0.00     0.090 A 
HETATM   20  C22 UNK     1      18.998   6.009  29.817  1.00  0.00     0.049 C 
HETATM   21  C23 UNK     1      18.526   7.009  33.511  1.00  0.00     0.288 A 
HETATM   22  O4  UNK     1      18.521   8.040  34.173  1.00  0.00    -0.260 OA
ENDBRANCH   9  11
ENDBRANCH   7   9
ENDBRANCH   2   7
BRANCH   1  23
HETATM   23  C5  UNK     1      20.476  -4.099  37.090  1.00  0.00     0.311 C 
BRANCH  23  24
HETATM   24  C6  UNK     1      20.043  -5.536  37.052  1.00  0.00    -0.027 A 
HETATM   25  C8  UNK     1      20.080  -6.294  38.220  1.00  0.00     0.048 A 
HETATM   26  C10 UNK     1      19.673  -7.610  38.134  1.00  0.00     0.105 A 
HETATM   27  O1  UNK     1      19.641  -8.504  39.161  1.00  0.00    -0.323 OA
HETATM   28  C11 UNK     1      19.246  -8.161  36.949  1.00  0.00     0.105 A 
HETATM   29  C18 UNK     1      19.145  -9.678  38.487  1.00  0.00     0.352 A 
HETATM   30  O2  UNK     1      18.892  -9.467  37.083  1.00  0.00    -0.323 OA
HETATM   31  C12 UNK     1      19.202  -7.426  35.781  1.00  0.00     0.040 A 
HETATM   32  C9  UNK     1      19.609  -6.091  35.840  1.00  0.00     0.012 A 
ENDBRANCH  23  24
ENDBRANCH   1  23
TORSDOF 5
ENDMDL
MODEL 5
REMARK VINA RESULT:      -9.9      7.782     11.280
REMARK  5 active torsions:
REMARK  status: ('A' for Active; 'I' for Inactive)
REMARK    1  A    between atoms: C5_13  and  N1_6 
REMARK    2  A    between atoms: C7_15  and  N2_7 
REMARK    3  A    between atoms: C13_21  and  N3_8 
REMARK    4  A    between atoms: C7_15  and  N3_8 
REMARK    5  A    between atoms: C5_13  and  C6_14 
ROOT
HETATM    1  N1  UNK     1      15.582   8.265  33.330  1.00  0.00     0.095 N 
HETATM    2  N2  UNK     1      17.613   6.623  32.200  1.00  0.00    -0.355 N 
HETATM    3  C1  UNK     1      16.241   7.233  34.147  1.00  0.00     0.292 C 
HETATM    4  C2  UNK     1      15.491   7.835  31.925  1.00  0.00     0.292 C 
HETATM    5  C3  UNK     1      17.646   6.939  33.621  1.00  0.00     0.155 C 
HETATM    6  C4  UNK     1      16.880   7.553  31.353  1.00  0.00     0.155 C 
ENDROOT
BRANCH   2   7
HETATM    7  C7  UNK     1      18.316   5.587  31.682  1.00  0.00     0.174 C 
HETATM    8  S1  UNK     1      19.865   5.838  31.089  1.00  0.00    -0.041 SA
BRANCH   7   9
HETATM    9  N3  UNK     1      17.736   4.349  31.585  1.00  0.00    -0.333 N 
HETATM   10  H13 UNK     1      16.744   4.321  31.810  1.00  0.00     0.168 HD
BRANCH   9  11
HETATM   11  C13 UNK     1      18.274   3.095  31.205  1.00  0.00     0.036 A 
HETATM   12  C14 UNK     1      18.490   2.130  32.168  1.00  0.00     0.067 A 
HETATM   13  C17 UNK     1      19.019   0.901  31.770  1.00  0.00     0.092 A 
HETATM   14  C16 UNK     1      19.334   0.620  30.441  1.00  0.00     0.004 A 
HETATM   15  O3  UNK     1      19.223  -0.056  32.786  1.00  0.00    -0.275 OA
HETATM   16  C19 UNK     1      19.101   1.623  29.491  1.00  0.00     0.017 A 
HETATM   17  C20 UNK     1      19.887  -0.702  30.113  1.00  0.00    -0.043 A 
HETATM   18  C15 UNK     1      18.570   2.861  29.873  1.00  0.00     0.030 A 
HETATM   19  C21 UNK     1      20.070  -1.591  31.098  1.00  0.00     0.090 A 
HETATM   20  C22 UNK     1      20.236  -1.035  28.691  1.00  0.00     0.049 C 
HETATM   21  C23 UNK     1      19.742  -1.310  32.506  1.00  0.00     0.288 A 
HETATM   22  O4  UNK     1      19.924  -2.149  33.381  1.00  0.00    -0.260 OA
ENDBRANCH   9  11
ENDBRANCH   7   9
ENDBRANCH   2   7
BRANCH   1  23
HETATM   23  C5  UNK     1      14.253   8.566  33.860  1.00  0.00     0.311 C 
BRANCH  23  24
HETATM   24  C6  UNK     1      14.131  10.000  34.290  1.00  0.00    -0.027 A 
HETATM   25  C8  UNK     1      14.605  10.381  35.543  1.00  0.00     0.048 A 
HETATM   26  C10 UNK     1      14.471  11.709  35.894  1.00  0.00     0.105 A 
HETATM   27  O1  UNK     1      14.869  12.269  37.069  1.00  0.00    -0.323 OA
HETATM   28  C11 UNK     1      13.893  12.627  35.048  1.00  0.00     0.105 A 
HETATM   29  C18 UNK     1      14.478  13.642  36.866  1.00  0.00     0.352 A 
HETATM   30  O2  UNK     1      13.858  13.876  35.585  1.00  0.00    -0.323 OA
HETATM   31  C12 UNK     1      13.418  12.269  33.802  1.00  0.00     0.040 A 
HETATM   32  C9  UNK     1      13.542  10.930  33.423  1.00  0.00     0.012 A 
ENDBRANCH  23  24
ENDBRANCH   1  23
TORSDOF 5
ENDMDL
MODEL 6
REMARK VINA RESULT:      -9.8      2.672      3.768
REMARK  5 active torsions:
REMARK  status: ('A' for Active; 'I' for Inactive)
REMARK    1  A    between atoms: C5_13  and  N1_6 
REMARK    2  A    between atoms: C7_15  and  N2_7 
REMARK    3  A    between atoms: C13_21  and  N3_8 
REMARK    4  A    between atoms: C7_15  and  N3_8 
REMARK    5  A    between atoms: C5_13  and  C6_14 
ROOT
HETATM    1  N1  UNK     1      18.178   0.160  35.742  1.00  0.00     0.095 N 
HETATM    2  N2  UNK     1      18.790  -2.569  36.267  1.00  0.00    -0.355 N 
HETATM    3  C1  UNK     1      19.462  -0.410  35.303  1.00  0.00     0.292 C 
HETATM    4  C2  UNK     1      17.731  -0.472  36.994  1.00  0.00     0.292 C 
HETATM    5  C3  UNK     1      19.342  -1.918  35.088  1.00  0.00     0.155 C 
HETATM    6  C4  UNK     1      17.575  -1.982  36.814  1.00  0.00     0.155 C 
ENDROOT
BRANCH   2   7
HETATM    7  C7  UNK     1      19.313  -3.718  36.760  1.00  0.00     0.174 C 
HETATM    8  S1  UNK     1      20.728  -3.676  37.660  1.00  0.00    -0.041 SA
BRANCH   7   9
HETATM    9  N3  UNK     1      18.719  -4.919  36.470  1.00  0.00    -0.333 N 
HETATM   10  H13 UNK     1      17.720  -4.869  36.280  1.00  0.00     0.168 HD
BRANCH   9  11
HETATM   11  C13 UNK     1      19.258  -6.224  36.367  1.00  0.00     0.036 A 
HETATM   12  C14 UNK     1      18.903  -7.179  37.299  1.00  0.00     0.067 A 
HETATM   13  C17 UNK     1      19.445  -8.460  37.177  1.00  0.00     0.092 A 
HETATM   14  C16 UNK     1      20.328  -8.802  36.152  1.00  0.00     0.004 A 
HETATM   15  O3  UNK     1      19.055  -9.404  38.149  1.00  0.00    -0.275 OA
HETATM   16  C19 UNK     1      20.665  -7.807  35.225  1.00  0.00     0.017 A 
HETATM   17  C20 UNK     1      20.849 -10.175  36.102  1.00  0.00    -0.043 A 
HETATM   18  C15 UNK     1      20.130  -6.518  35.333  1.00  0.00     0.030 A 
HETATM   19  C21 UNK     1      20.462 -11.051  37.039  1.00  0.00     0.090 A 
HETATM   20  C22 UNK     1      21.801 -10.574  35.011  1.00  0.00     0.049 C 
HETATM   21  C23 UNK     1      19.531 -10.706  38.126  1.00  0.00     0.288 A 
HETATM   22  O4  UNK     1      19.199 -11.534  38.966  1.00  0.00    -0.260 OA
ENDBRANCH   9  11
ENDBRANCH   7   9
ENDBRANCH   2   7
BRANCH   1  23
HETATM   23  C5  UNK     1      18.291   1.608  35.912  1.00  0.00     0.311 C 
BRANCH  23  24
HETATM   24  C6  UNK     1      18.306   2.329  34.595  1.00  0.00    -0.027 A 
HETATM   25  C8  UNK     1      18.280   1.594  33.412  1.00  0.00     0.048 A 
HETATM   26  C10 UNK     1      18.295   2.301  32.227  1.00  0.00     0.105 A 
HETATM   27  O1  UNK     1      18.276   1.763  30.976  1.00  0.00    -0.323 OA
HETATM   28  C11 UNK     1      18.334   3.675  32.203  1.00  0.00     0.105 A 
HETATM   29  C18 UNK     1      18.307   2.954  30.164  1.00  0.00     0.352 A 
HETATM   30  O2  UNK     1      18.344   4.171  30.936  1.00  0.00    -0.323 OA
HETATM   31  C12 UNK     1      18.359   4.421  33.364  1.00  0.00     0.040 A 
HETATM   32  C9  UNK     1      18.345   3.730  34.578  1.00  0.00     0.012 A 
ENDBRANCH  23  24
ENDBRANCH   1  23
TORSDOF 5
ENDMDL
MODEL 7
REMARK VINA RESULT:      -9.6     24.155     27.654
REMARK  5 active torsions:
REMARK  status: ('A' for Active; 'I' for Inactive)
REMARK    1  A    between atoms: C5_13  and  N1_6 
REMARK    2  A    between atoms: C7_15  and  N2_7 
REMARK    3  A    between atoms: C13_21  and  N3_8 
REMARK    4  A    between atoms: C7_15  and  N3_8 
REMARK    5  A    between atoms: C5_13  and  C6_14 
ROOT
HETATM    1  N1  UNK     1       6.563   4.836  11.487  1.00  0.00     0.095 N 
HETATM    2  N2  UNK     1       8.336   6.099   9.654  1.00  0.00    -0.355 N 
HETATM    3  C1  UNK     1       7.347   4.029  10.539  1.00  0.00     0.292 C 
HETATM    4  C2  UNK     1       6.214   6.138  10.897  1.00  0.00     0.292 C 
HETATM    5  C3  UNK     1       8.629   4.756  10.136  1.00  0.00     0.155 C 
HETATM    6  C4  UNK     1       7.473   6.910  10.500  1.00  0.00     0.155 C 
ENDROOT
BRANCH   2   7
HETATM    7  C7  UNK     1       8.920   6.601   8.540  1.00  0.00     0.174 C 
HETATM    8  S1  UNK     1       8.586   5.926   7.041  1.00  0.00    -0.041 SA
BRANCH   7   9
HETATM    9  N3  UNK     1       9.832   7.620   8.646  1.00  0.00    -0.333 N 
HETATM   10  H13 UNK     1       9.465   8.547   8.438  1.00  0.00     0.168 HD
BRANCH   9  11
HETATM   11  C13 UNK     1      11.199   7.613   9.015  1.00  0.00     0.036 A 
HETATM   12  C14 UNK     1      11.894   6.421   9.014  1.00  0.00     0.067 A 
HETATM   13  C17 UNK     1      13.242   6.437   9.380  1.00  0.00     0.092 A 
HETATM   14  C16 UNK     1      13.901   7.612   9.745  1.00  0.00     0.004 A 
HETATM   15  O3  UNK     1      13.915   5.198   9.365  1.00  0.00    -0.275 OA
HETATM   16  C19 UNK     1      13.162   8.802   9.734  1.00  0.00     0.017 A 
HETATM   17  C20 UNK     1      15.321   7.536  10.116  1.00  0.00    -0.043 A 
HETATM   18  C15 UNK     1      11.811   8.803   9.369  1.00  0.00     0.030 A 
HETATM   19  C21 UNK     1      15.935   6.345  10.093  1.00  0.00     0.090 A 
HETATM   20  C22 UNK     1      16.058   8.782  10.513  1.00  0.00     0.049 C 
HETATM   21  C23 UNK     1      15.254   5.097   9.710  1.00  0.00     0.288 A 
HETATM   22  O4  UNK     1      15.848   4.025   9.701  1.00  0.00    -0.260 OA
ENDBRANCH   9  11
ENDBRANCH   7   9
ENDBRANCH   2   7
BRANCH   1  23
HETATM   23  C5  UNK     1       5.356   4.119  11.896  1.00  0.00     0.311 C 
BRANCH  23  24
HETATM   24  C6  UNK     1       5.355   3.811  13.365  1.00  0.00    -0.027 A 
HETATM   25  C8  UNK     1       5.376   2.484  13.787  1.00  0.00     0.048 A 
HETATM   26  C10 UNK     1       5.373   2.251  15.146  1.00  0.00     0.105 A 
HETATM   27  O1  UNK     1       5.390   1.029  15.748  1.00  0.00    -0.323 OA
HETATM   28  C11 UNK     1       5.351   3.281  16.058  1.00  0.00     0.105 A 
HETATM   29  C18 UNK     1       5.376   1.407  17.139  1.00  0.00     0.352 A 
HETATM   30  O2  UNK     1       5.352   2.835  17.343  1.00  0.00    -0.323 OA
HETATM   31  C12 UNK     1       5.330   4.602  15.660  1.00  0.00     0.040 A 
HETATM   32  C9  UNK     1       5.332   4.866  14.288  1.00  0.00     0.012 A 
ENDBRANCH  23  24
ENDBRANCH   1  23
TORSDOF 5
ENDMDL
MODEL 8
REMARK VINA RESULT:      -9.4     10.298     12.134
REMARK  5 active torsions:
REMARK  status: ('A' for Active; 'I' for Inactive)
REMARK    1  A    between atoms: C5_13  and  N1_6 
REMARK    2  A    between atoms: C7_15  and  N2_7 
REMARK    3  A    between atoms: C13_21  and  N3_8 
REMARK    4  A    between atoms: C7_15  and  N3_8 
REMARK    5  A    between atoms: C5_13  and  C6_14 
ROOT
HETATM    1  N1  UNK     1      30.889  -6.425  33.128  1.00  0.00     0.095 N 
HETATM    2  N2  UNK     1      32.856  -6.697  35.167  1.00  0.00    -0.355 N 
HETATM    3  C1  UNK     1      31.370  -5.241  33.858  1.00  0.00     0.292 C 
HETATM    4  C2  UNK     1      30.892  -7.610  34.002  1.00  0.00     0.292 C 
HETATM    5  C3  UNK     1      32.784  -5.467  34.391  1.00  0.00     0.155 C 
HETATM    6  C4  UNK     1      32.296  -7.885  34.539  1.00  0.00     0.155 C 
ENDROOT
BRANCH   2   7
HETATM    7  C7  UNK     1      33.504  -6.756  36.355  1.00  0.00     0.174 C 
HETATM    8  S1  UNK     1      35.029  -6.073  36.514  1.00  0.00    -0.041 SA
BRANCH   7   9
HETATM    9  N3  UNK     1      32.941  -7.427  37.409  1.00  0.00    -0.333 N 
HETATM   10  H13 UNK     1      33.607  -7.842  38.058  1.00  0.00     0.168 HD
BRANCH   9  11
HETATM   11  C13 UNK     1      31.587  -7.630  37.768  1.00  0.00     0.036 A 
HETATM   12  C14 UNK     1      30.750  -6.540  37.900  1.00  0.00     0.067 A 
HETATM   13  C17 UNK     1      29.418  -6.763  38.253  1.00  0.00     0.092 A 
HETATM   14  C16 UNK     1      28.910  -8.043  38.476  1.00  0.00     0.004 A 
HETATM   15  O3  UNK     1      28.599  -5.622  38.376  1.00  0.00    -0.275 OA
HETATM   16  C19 UNK     1      29.789  -9.125  38.333  1.00  0.00     0.017 A 
HETATM   17  C20 UNK     1      27.494  -8.184  38.845  1.00  0.00    -0.043 A 
HETATM   18  C15 UNK     1      31.127  -8.918  37.979  1.00  0.00     0.030 A 
HETATM   19  C21 UNK     1      26.739  -7.082  38.954  1.00  0.00     0.090 A 
HETATM   20  C22 UNK     1      26.918  -9.548  39.091  1.00  0.00     0.049 C 
HETATM   21  C23 UNK     1      27.260  -5.725  38.722  1.00  0.00     0.288 A 
HETATM   22  O4  UNK     1      26.540  -4.740  38.832  1.00  0.00    -0.260 OA
ENDBRANCH   9  11
ENDBRANCH   7   9
ENDBRANCH   2   7
BRANCH   1  23
HETATM   23  C5  UNK     1      29.550  -6.188  32.591  1.00  0.00     0.311 C 
BRANCH  23  24
HETATM   24  C6  UNK     1      29.202  -7.161  31.501  1.00  0.00    -0.027 A 
HETATM   25  C8  UNK     1      30.168  -7.512  30.561  1.00  0.00     0.048 A 
HETATM   26  C10 UNK     1      29.800  -8.409  29.580  1.00  0.00     0.105 A 
HETATM   27  O1  UNK     1      30.600  -8.869  28.578  1.00  0.00    -0.323 OA
HETATM   28  C11 UNK     1      28.534  -8.941  29.522  1.00  0.00     0.105 A 
HETATM   29  C18 UNK     1      29.693  -9.751  27.885  1.00  0.00     0.352 A 
HETATM   30  O2  UNK     1      28.380  -9.801  28.480  1.00  0.00    -0.323 OA
HETATM   31  C12 UNK     1      27.563  -8.607  30.445  1.00  0.00     0.040 A 
HETATM   32  C9  UNK     1      27.909  -7.700  31.449  1.00  0.00     0.012 A 
ENDBRANCH  23  24
ENDBRANCH   1  23
TORSDOF 5
ENDMDL
MODEL 9
REMARK VINA RESULT:      -9.4      2.466      3.359
REMARK  5 active torsions:
REMARK  status: ('A' for Active; 'I' for Inactive)
REMARK    1  A    between atoms: C5_13  and  N1_6 
REMARK    2  A    between atoms: C7_15  and  N2_7 
REMARK    3  A    between atoms: C13_21  and  N3_8 
REMARK    4  A    between atoms: C7_15  and  N3_8 
REMARK    5  A    between atoms: C5_13  and  C6_14 
ROOT
HETATM    1  N1  UNK     1      18.595  -0.038  34.332  1.00  0.00     0.095 N 
HETATM    2  N2  UNK     1      19.788  -2.289  35.600  1.00  0.00    -0.355 N 
HETATM    3  C1  UNK     1      18.372  -0.287  35.765  1.00  0.00     0.292 C 
HETATM    4  C2  UNK     1      18.744  -1.307  33.601  1.00  0.00     0.292 C 
HETATM    5  C3  UNK     1      19.531  -1.079  36.367  1.00  0.00     0.155 C 
HETATM    6  C4  UNK     1      19.912  -2.121  34.159  1.00  0.00     0.155 C 
ENDROOT
BRANCH   2   7
HETATM    7  C7  UNK     1      20.009  -3.484  36.200  1.00  0.00     0.174 C 
HETATM    8  S1  UNK     1      21.019  -3.576  37.536  1.00  0.00    -0.041 SA
BRANCH   7   9
HETATM    9  N3  UNK     1      19.457  -4.624  35.678  1.00  0.00    -0.333 N 
HETATM   10  H13 UNK     1      18.860  -4.479  34.866  1.00  0.00     0.168 HD
BRANCH   9  11
HETATM   11  C13 UNK     1      19.587  -5.982  36.058  1.00  0.00     0.036 A 
HETATM   12  C14 UNK     1      20.447  -6.802  35.356  1.00  0.00     0.067 A 
HETATM   13  C17 UNK     1      20.561  -8.137  35.750  1.00  0.00     0.092 A 
HETATM   14  C16 UNK     1      19.839  -8.663  36.821  1.00  0.00     0.004 A 
HETATM   15  O3  UNK     1      21.451  -8.940  35.006  1.00  0.00    -0.275 OA
HETATM   16  C19 UNK     1      18.976  -7.800  37.510  1.00  0.00     0.017 A 
HETATM   17  C20 UNK     1      20.022 -10.080  37.165  1.00  0.00    -0.043 A 
HETATM   18  C15 UNK     1      18.851  -6.460  37.128  1.00  0.00     0.030 A 
HETATM   19  C21 UNK     1      20.874 -10.819  36.440  1.00  0.00     0.090 A 
HETATM   20  C22 UNK     1      19.259 -10.676  38.312  1.00  0.00     0.049 C 
HETATM   21  C23 UNK     1      21.644 -10.279  35.308  1.00  0.00     0.288 A 
HETATM   22  O4  UNK     1      22.414 -10.985  34.667  1.00  0.00    -0.260 OA
ENDBRANCH   9  11
ENDBRANCH   7   9
ENDBRANCH   2   7
BRANCH   1  23
HETATM   23  C5  UNK     1      17.499   0.751  33.771  1.00  0.00     0.311 C 
BRANCH  23  24
HETATM   24  C6  UNK     1      17.957   2.109  33.321  1.00  0.00    -0.027 A 
HETATM   25  C8  UNK     1      18.187   2.340  31.967  1.00  0.00     0.048 A 
HETATM   26  C10 UNK     1      18.606   3.603  31.603  1.00  0.00     0.105 A 
HETATM   27  O1  UNK     1      18.882   4.018  30.336  1.00  0.00    -0.323 OA
HETATM   28  C11 UNK     1      18.793   4.600  32.531  1.00  0.00     0.105 A 
HETATM   29  C18 UNK     1      19.263   5.389  30.572  1.00  0.00     0.352 A 
HETATM   30  O2  UNK     1      19.208   5.765  31.963  1.00  0.00    -0.323 OA
HETATM   31  C12 UNK     1      18.571   4.391  33.877  1.00  0.00     0.040 A 
HETATM   32  C9  UNK     1      18.145   3.120  34.273  1.00  0.00     0.012 A 
ENDBRANCH  23  24
ENDBRANCH   1  23
TORSDOF 5
ENDMDL
MODEL 10
REMARK VINA RESULT:      -9.3      4.941      7.555
REMARK  5 active torsions:
REMARK  status: ('A' for Active; 'I' for Inactive)
REMARK    1  A    between atoms: C5_13  and  N1_6 
REMARK    2  A    between atoms: C7_15  and  N2_7 
REMARK    3  A    between atoms: C13_21  and  N3_8 
REMARK    4  A    between atoms: C7_15  and  N3_8 
REMARK    5  A    between atoms: C5_13  and  C6_14 
ROOT
HETATM    1  N1  UNK     1      18.386   4.564  31.354  1.00  0.00     0.095 N 
HETATM    2  N2  UNK     1      18.672   1.777  30.855  1.00  0.00    -0.355 N 
HETATM    3  C1  UNK     1      19.002   4.094  30.103  1.00  0.00     0.292 C 
HETATM    4  C2  UNK     1      18.688   3.641  32.460  1.00  0.00     0.292 C 
HETATM    5  C3  UNK     1      18.499   2.697  29.740  1.00  0.00     0.155 C 
HETATM    6  C4  UNK     1      18.179   2.233  32.147  1.00  0.00     0.155 C 
ENDROOT
BRANCH   2   7
HETATM    7  C7  UNK     1      19.163   0.526  30.680  1.00  0.00     0.174 C 
HETATM    8  S1  UNK     1      20.375   0.251  29.553  1.00  0.00    -0.041 SA
BRANCH   7   9
HETATM    9  N3  UNK     1      18.625  -0.524  31.378  1.00  0.00    -0.333 N 
HETATM   10  H13 UNK     1      17.907  -1.046  30.881  1.00  0.00     0.168 HD
BRANCH   9  11
HETATM   11  C13 UNK     1      18.909  -1.026  32.671  1.00  0.00     0.036 A 
HETATM   12  C14 UNK     1      18.214  -0.534  33.757  1.00  0.00     0.067 A 
HETATM   13  C17 UNK     1      18.509  -1.045  35.023  1.00  0.00     0.092 A 
HETATM   14  C16 UNK     1      19.477  -2.029  35.222  1.00  0.00     0.004 A 
HETATM   15  O3  UNK     1      17.775  -0.515  36.104  1.00  0.00    -0.275 OA
HETATM   16  C19 UNK     1      20.162  -2.505  34.096  1.00  0.00     0.017 A 
HETATM   17  C20 UNK     1      19.721  -2.509  36.589  1.00  0.00    -0.043 A 
HETATM   18  C15 UNK     1      19.877  -2.004  32.821  1.00  0.00     0.030 A 
HETATM   19  C21 UNK     1      19.010  -1.987  37.597  1.00  0.00     0.090 A 
HETATM   20  C22 UNK     1      20.757  -3.568  36.836  1.00  0.00     0.049 C 
HETATM   21  C23 UNK     1      17.984  -0.948  37.404  1.00  0.00     0.288 A 
HETATM   22  O4  UNK     1      17.352  -0.494  38.350  1.00  0.00    -0.260 OA
ENDBRANCH   9  11
ENDBRANCH   7   9
ENDBRANCH   2   7
BRANCH   1  23
HETATM   23  C5  UNK     1      18.845   5.915  31.676  1.00  0.00     0.311 C 
BRANCH  23  24
HETATM   24  C6  UNK     1      17.815   6.689  32.448  1.00  0.00    -0.027 A 
HETATM   25  C8  UNK     1      17.069   7.671  31.800  1.00  0.00     0.048 A 
HETATM   26  C10 UNK     1      16.136   8.356  32.551  1.00  0.00     0.105 A 
HETATM   27  O1  UNK     1      15.318   9.345  32.099  1.00  0.00    -0.323 OA
HETATM   28  C11 UNK     1      15.943   8.087  33.886  1.00  0.00     0.105 A 
HETATM   29  C18 UNK     1      14.588   9.669  33.300  1.00  0.00     0.352 A 
HETATM   30  O2  UNK     1      14.979   8.873  34.438  1.00  0.00    -0.323 OA
HETATM   31  C12 UNK     1      16.671   7.118  34.546  1.00  0.00     0.040 A 
HETATM   32  C9  UNK     1      17.623   6.410  33.808  1.00  0.00     0.012 A 
ENDBRANCH  23  24
ENDBRANCH   1  23
TORSDOF 5
ENDMDL
