MODEL 1
REMARK VINA RESULT:      -7.4      0.000      0.000
REMARK  7 active torsions:
REMARK  status: ('A' for Active; 'I' for Inactive)
REMARK    1  A    between atoms: C2_7  and  O1_1 
REMARK    2  A    between atoms: C7_12  and  O2_2 
REMARK    3  A    between atoms: C13_18  and  O3_3 
REMARK    4  A    between atoms: C8_13  and  O4_4 
REMARK    5  A    between atoms: C1_6  and  C5_10 
REMARK    6  A    between atoms: C3_8  and  C9_14 
REMARK    7  A    between atoms: C11_16  and  C9_14 
ROOT
HETATM    1  O5  UNK     1      18.056   7.481  31.344  1.00  0.00    -0.287 OA
HETATM    2  C9  UNK     1      18.675   6.628  31.971  1.00  0.00     0.184 C 
ENDROOT
BRANCH   2   3
HETATM    3  C11 UNK     1      19.528   6.956  33.147  1.00  0.00     0.056 C 
HETATM    4  C5  UNK     1      19.043   7.725  34.146  1.00  0.00     0.018 C 
BRANCH   4   5
HETATM    5  C1  UNK     1      17.702   8.295  34.189  1.00  0.00    -0.003 A 
HETATM    6  C2  UNK     1      17.482   9.638  33.882  1.00  0.00     0.081 A 
HETATM    7  C6  UNK     1      16.190  10.161  33.930  1.00  0.00     0.074 A 
HETATM    8  C7  UNK     1      15.118   9.342  34.284  1.00  0.00     0.070 A 
HETATM    9  C10 UNK     1      15.339   7.999  34.591  1.00  0.00     0.038 A 
HETATM   10  C4  UNK     1      16.631   7.475  34.543  1.00  0.00     0.017 A 
BRANCH   6  11
HETATM   11  O1  UNK     1      18.512  10.462  33.532  1.00  0.00    -0.355 OA
HETATM   12  C16 UNK     1      18.542  11.752  34.138  1.00  0.00     0.210 C 
ENDBRANCH   6  11
BRANCH   8  13
HETATM   13  O2  UNK     1      13.857   9.852  34.330  1.00  0.00    -0.356 OA
HETATM   14  C17 UNK     1      13.478  10.743  33.283  1.00  0.00     0.210 C 
ENDBRANCH   8  13
ENDBRANCH   4   5
ENDBRANCH   2   3
BRANCH   2  15
HETATM   15  C3  UNK     1      18.613   5.210  31.540  1.00  0.00     0.047 A 
HETATM   16  C12 UNK     1      18.240   4.235  32.466  1.00  0.00     0.021 A 
HETATM   17  C15 UNK     1      18.176   2.896  32.080  1.00  0.00     0.038 A 
HETATM   18  C13 UNK     1      18.485   2.532  30.769  1.00  0.00     0.070 A 
HETATM   19  C14 UNK     1      18.859   3.507  29.844  1.00  0.00     0.074 A 
HETATM   20  C8  UNK     1      18.922   4.846  30.229  1.00  0.00     0.082 A 
BRANCH  18  21
HETATM   21  O3  UNK     1      18.423   1.225  30.394  1.00  0.00    -0.356 OA
HETATM   22  C18 UNK     1      19.232   0.828  29.288  1.00  0.00     0.210 C 
ENDBRANCH  18  21
BRANCH  20  23
HETATM   23  O4  UNK     1      19.289   5.783  29.312  1.00  0.00    -0.360 OA
HETATM   24  H12 UNK     1      20.247   5.760  29.161  1.00  0.00     0.217 HD
ENDBRANCH  20  23
ENDBRANCH   2  15
TORSDOF 7
ENDMDL
MODEL 2
REMARK VINA RESULT:      -7.4      2.472      4.615
REMARK  7 active torsions:
REMARK  status: ('A' for Active; 'I' for Inactive)
REMARK    1  A    between atoms: C2_7  and  O1_1 
REMARK    2  A    between atoms: C7_12  and  O2_2 
REMARK    3  A    between atoms: C13_18  and  O3_3 
REMARK    4  A    between atoms: C8_13  and  O4_4 
REMARK    5  A    between atoms: C1_6  and  C5_10 
REMARK    6  A    between atoms: C3_8  and  C9_14 
REMARK    7  A    between atoms: C11_16  and  C9_14 
ROOT
HETATM    1  O5  UNK     1      17.613   3.794  31.862  1.00  0.00    -0.287 OA
HETATM    2  C9  UNK     1      18.298   3.342  30.952  1.00  0.00     0.184 C 
ENDROOT
BRANCH   2   3
HETATM    3  C11 UNK     1      18.642   4.131  29.736  1.00  0.00     0.056 C 
HETATM    4  C5  UNK     1      19.061   5.410  29.851  1.00  0.00     0.018 C 
BRANCH   4   5
HETATM    5  C1  UNK     1      19.217   6.131  31.108  1.00  0.00    -0.003 A 
HETATM    6  C2  UNK     1      18.221   6.993  31.570  1.00  0.00     0.081 A 
HETATM    7  C6  UNK     1      18.393   7.671  32.777  1.00  0.00     0.074 A 
HETATM    8  C7  UNK     1      19.559   7.489  33.521  1.00  0.00     0.070 A 
HETATM    9  C10 UNK     1      20.554   6.628  33.057  1.00  0.00     0.038 A 
HETATM   10  C4  UNK     1      20.383   5.948  31.851  1.00  0.00     0.017 A 
BRANCH   6  11
HETATM   11  O1  UNK     1      17.072   7.189  30.863  1.00  0.00    -0.355 OA
HETATM   12  C16 UNK     1      15.955   7.714  31.578  1.00  0.00     0.210 C 
ENDBRANCH   6  11
BRANCH   8  13
HETATM   13  O2  UNK     1      19.726   8.151  34.698  1.00  0.00    -0.356 OA
HETATM   14  C17 UNK     1      20.356   9.430  34.639  1.00  0.00     0.210 C 
ENDBRANCH   8  13
ENDBRANCH   4   5
ENDBRANCH   2   3
BRANCH   2  15
HETATM   15  C3  UNK     1      18.790   1.945  31.027  1.00  0.00     0.047 A 
HETATM   16  C12 UNK     1      19.506   1.418  29.951  1.00  0.00     0.021 A 
HETATM   17  C15 UNK     1      19.977   0.106  30.002  1.00  0.00     0.038 A 
HETATM   18  C13 UNK     1      19.733  -0.679  31.129  1.00  0.00     0.070 A 
HETATM   19  C14 UNK     1      19.017  -0.153  32.205  1.00  0.00     0.074 A 
HETATM   20  C8  UNK     1      18.546   1.159  32.154  1.00  0.00     0.082 A 
BRANCH  18  21
HETATM   21  O3  UNK     1      20.192  -1.959  31.178  1.00  0.00    -0.356 OA
HETATM   22  C18 UNK     1      20.882  -2.358  32.362  1.00  0.00     0.210 C 
ENDBRANCH  18  21
BRANCH  20  23
HETATM   23  O4  UNK     1      17.849   1.655  33.214  1.00  0.00    -0.360 OA
HETATM   24  H12 UNK     1      17.346   2.443  32.956  1.00  0.00     0.217 HD
ENDBRANCH  20  23
ENDBRANCH   2  15
TORSDOF 7
ENDMDL
MODEL 3
REMARK VINA RESULT:      -7.4     14.297     16.972
REMARK  7 active torsions:
REMARK  status: ('A' for Active; 'I' for Inactive)
REMARK    1  A    between atoms: C2_7  and  O1_1 
REMARK    2  A    between atoms: C7_12  and  O2_2 
REMARK    3  A    between atoms: C13_18  and  O3_3 
REMARK    4  A    between atoms: C8_13  and  O4_4 
REMARK    5  A    between atoms: C1_6  and  C5_10 
REMARK    6  A    between atoms: C3_8  and  C9_14 
REMARK    7  A    between atoms: C11_16  and  C9_14 
ROOT
HETATM    1  O5  UNK     1      21.859  -5.096  37.228  1.00  0.00    -0.287 OA
HETATM    2  C9  UNK     1      21.065  -5.880  37.737  1.00  0.00     0.184 C 
ENDROOT
BRANCH   2   3
HETATM    3  C11 UNK     1      21.227  -6.401  39.123  1.00  0.00     0.056 C 
HETATM    4  C5  UNK     1      21.663  -7.663  39.329  1.00  0.00     0.018 C 
BRANCH   4   5
HETATM    5  C1  UNK     1      22.006  -8.613  38.278  1.00  0.00    -0.003 A 
HETATM    6  C2  UNK     1      21.121  -9.625  37.907  1.00  0.00     0.081 A 
HETATM    7  C6  UNK     1      21.472 -10.522  36.898  1.00  0.00     0.074 A 
HETATM    8  C7  UNK     1      22.707 -10.406  36.259  1.00  0.00     0.070 A 
HETATM    9  C10 UNK     1      23.592  -9.393  36.632  1.00  0.00     0.038 A 
HETATM   10  C4  UNK     1      23.241  -8.496  37.640  1.00  0.00     0.017 A 
BRANCH   6  11
HETATM   11  O1  UNK     1      19.908  -9.761  38.514  1.00  0.00    -0.355 OA
HETATM   12  C16 UNK     1      19.301 -11.051  38.466  1.00  0.00     0.210 C 
ENDBRANCH   6  11
BRANCH   8  13
HETATM   13  O2  UNK     1      23.049 -11.281  35.275  1.00  0.00    -0.356 OA
HETATM   14  C17 UNK     1      24.061 -12.239  35.580  1.00  0.00     0.210 C 
ENDBRANCH   8  13
ENDBRANCH   4   5
ENDBRANCH   2   3
BRANCH   2  15
HETATM   15  C3  UNK     1      19.907  -6.368  36.951  1.00  0.00     0.047 A 
HETATM   16  C12 UNK     1      18.623  -6.247  37.485  1.00  0.00     0.021 A 
HETATM   17  C15 UNK     1      17.521  -6.701  36.760  1.00  0.00     0.038 A 
HETATM   18  C13 UNK     1      17.701  -7.275  35.502  1.00  0.00     0.070 A 
HETATM   19  C14 UNK     1      18.985  -7.396  34.968  1.00  0.00     0.074 A 
HETATM   20  C8  UNK     1      20.087  -6.943  35.692  1.00  0.00     0.082 A 
BRANCH  18  21
HETATM   21  O3  UNK     1      16.625  -7.717  34.796  1.00  0.00    -0.356 OA
HETATM   22  C18 UNK     1      15.427  -6.949  34.889  1.00  0.00     0.210 C 
ENDBRANCH  18  21
BRANCH  20  23
HETATM   23  O4  UNK     1      21.332  -7.070  35.154  1.00  0.00    -0.360 OA
HETATM   24  H12 UNK     1      21.463  -7.963  34.799  1.00  0.00     0.217 HD
ENDBRANCH  20  23
ENDBRANCH   2  15
TORSDOF 7
ENDMDL
MODEL 4
REMARK VINA RESULT:      -7.3     22.608     24.958
REMARK  7 active torsions:
REMARK  status: ('A' for Active; 'I' for Inactive)
REMARK    1  A    between atoms: C2_7  and  O1_1 
REMARK    2  A    between atoms: C7_12  and  O2_2 
REMARK    3  A    between atoms: C13_18  and  O3_3 
REMARK    4  A    between atoms: C8_13  and  O4_4 
REMARK    5  A    between atoms: C1_6  and  C5_10 
REMARK    6  A    between atoms: C3_8  and  C9_14 
REMARK    7  A    between atoms: C11_16  and  C9_14 
ROOT
HETATM    1  O5  UNK     1      13.135   7.725  10.966  1.00  0.00    -0.287 OA
HETATM    2  C9  UNK     1      14.158   7.443  10.352  1.00  0.00     0.184 C 
ENDROOT
BRANCH   2   3
HETATM    3  C11 UNK     1      14.621   6.040  10.162  1.00  0.00     0.056 C 
HETATM    4  C5  UNK     1      13.999   5.232   9.276  1.00  0.00     0.018 C 
BRANCH   4   5
HETATM    5  C1  UNK     1      12.864   5.616   8.446  1.00  0.00    -0.003 A 
HETATM    6  C2  UNK     1      11.554   5.430   8.890  1.00  0.00     0.081 A 
HETATM    7  C6  UNK     1      10.484   5.806   8.078  1.00  0.00     0.074 A 
HETATM    8  C7  UNK     1      10.723   6.367   6.823  1.00  0.00     0.070 A 
HETATM    9  C10 UNK     1      12.033   6.551   6.380  1.00  0.00     0.038 A 
HETATM   10  C4  UNK     1      13.103   6.176   7.192  1.00  0.00     0.017 A 
BRANCH   6  11
HETATM   11  O1  UNK     1      11.293   4.885  10.112  1.00  0.00    -0.355 OA
HETATM   12  C16 UNK     1      10.013   4.283  10.291  1.00  0.00     0.210 C 
ENDBRANCH   6  11
BRANCH   8  13
HETATM   13  O2  UNK     1       9.678   6.733   6.031  1.00  0.00    -0.356 OA
HETATM   14  C17 UNK     1       8.372   6.648   6.599  1.00  0.00     0.210 C 
ENDBRANCH   8  13
ENDBRANCH   4   5
ENDBRANCH   2   3
BRANCH   2  15
HETATM   15  C3  UNK     1      15.002   8.527   9.794  1.00  0.00     0.047 A 
HETATM   16  C12 UNK     1      16.344   8.605  10.169  1.00  0.00     0.021 A 
HETATM   17  C15 UNK     1      17.155   9.617   9.655  1.00  0.00     0.038 A 
HETATM   18  C13 UNK     1      16.624  10.551   8.764  1.00  0.00     0.070 A 
HETATM   19  C14 UNK     1      15.283  10.474   8.389  1.00  0.00     0.074 A 
HETATM   20  C8  UNK     1      14.472   9.461   8.904  1.00  0.00     0.082 A 
BRANCH  18  21
HETATM   21  O3  UNK     1      17.415  11.539   8.264  1.00  0.00    -0.356 OA
HETATM   22  C18 UNK     1      16.855  12.367   7.246  1.00  0.00     0.210 C 
ENDBRANCH  18  21
BRANCH  20  23
HETATM   23  O4  UNK     1      13.165   9.402   8.525  1.00  0.00    -0.360 OA
HETATM   24  H12 UNK     1      13.088   9.131   7.597  1.00  0.00     0.217 HD
ENDBRANCH  20  23
ENDBRANCH   2  15
TORSDOF 7
ENDMDL
MODEL 5
REMARK VINA RESULT:      -7.2     22.359     24.537
REMARK  7 active torsions:
REMARK  status: ('A' for Active; 'I' for Inactive)
REMARK    1  A    between atoms: C2_7  and  O1_1 
REMARK    2  A    between atoms: C7_12  and  O2_2 
REMARK    3  A    between atoms: C13_18  and  O3_3 
REMARK    4  A    between atoms: C8_13  and  O4_4 
REMARK    5  A    between atoms: C1_6  and  C5_10 
REMARK    6  A    between atoms: C3_8  and  C9_14 
REMARK    7  A    between atoms: C11_16  and  C9_14 
ROOT
HETATM    1  O5  UNK     1      14.264   6.176   7.333  1.00  0.00    -0.287 OA
HETATM    2  C9  UNK     1      13.437   5.695   8.100  1.00  0.00     0.184 C 
ENDROOT
BRANCH   2   3
HETATM    3  C11 UNK     1      13.814   4.804   9.232  1.00  0.00     0.056 C 
HETATM    4  C5  UNK     1      14.685   5.230  10.174  1.00  0.00     0.018 C 
BRANCH   4   5
HETATM    5  C1  UNK     1      15.323   6.540  10.193  1.00  0.00    -0.003 A 
HETATM    6  C2  UNK     1      14.616   7.678  10.584  1.00  0.00     0.081 A 
HETATM    7  C6  UNK     1      15.249   8.921  10.595  1.00  0.00     0.074 A 
HETATM    8  C7  UNK     1      16.587   9.027  10.215  1.00  0.00     0.070 A 
HETATM    9  C10 UNK     1      17.292   7.889   9.824  1.00  0.00     0.038 A 
HETATM   10  C4  UNK     1      16.661   6.646   9.813  1.00  0.00     0.017 A 
BRANCH   6  11
HETATM   11  O1  UNK     1      13.308   7.603  10.961  1.00  0.00    -0.355 OA
HETATM   12  C16 UNK     1      12.548   8.808  10.902  1.00  0.00     0.210 C 
ENDBRANCH   6  11
BRANCH   8  13
HETATM   13  O2  UNK     1      17.204  10.241  10.226  1.00  0.00    -0.356 OA
HETATM   14  C17 UNK     1      17.559  10.799   8.962  1.00  0.00     0.210 C 
ENDBRANCH   8  13
ENDBRANCH   4   5
ENDBRANCH   2   3
BRANCH   2  15
HETATM   15  C3  UNK     1      11.995   5.971   7.894  1.00  0.00     0.047 A 
HETATM   16  C12 UNK     1      11.144   6.003   9.000  1.00  0.00     0.021 A 
HETATM   17  C15 UNK     1       9.785   6.261   8.827  1.00  0.00     0.038 A 
HETATM   18  C13 UNK     1       9.275   6.488   7.548  1.00  0.00     0.070 A 
HETATM   19  C14 UNK     1      10.125   6.456   6.443  1.00  0.00     0.074 A 
HETATM   20  C8  UNK     1      11.485   6.198   6.616  1.00  0.00     0.082 A 
BRANCH  18  21
HETATM   21  O3  UNK     1       7.948   6.739   7.380  1.00  0.00    -0.356 OA
HETATM   22  C18 UNK     1       7.256   7.335   8.477  1.00  0.00     0.210 C 
ENDBRANCH  18  21
BRANCH  20  23
HETATM   23  O4  UNK     1      12.299   6.172   5.524  1.00  0.00    -0.360 OA
HETATM   24  H12 UNK     1      12.912   6.923   5.534  1.00  0.00     0.217 HD
ENDBRANCH  20  23
ENDBRANCH   2  15
TORSDOF 7
ENDMDL
MODEL 6
REMARK VINA RESULT:      -7.2     22.731     24.234
REMARK  7 active torsions:
REMARK  status: ('A' for Active; 'I' for Inactive)
REMARK    1  A    between atoms: C2_7  and  O1_1 
REMARK    2  A    between atoms: C7_12  and  O2_2 
REMARK    3  A    between atoms: C13_18  and  O3_3 
REMARK    4  A    between atoms: C8_13  and  O4_4 
REMARK    5  A    between atoms: C1_6  and  C5_10 
REMARK    6  A    between atoms: C3_8  and  C9_14 
REMARK    7  A    between atoms: C11_16  and  C9_14 
ROOT
HETATM    1  O5  UNK     1      11.878   5.222  10.405  1.00  0.00    -0.287 OA
HETATM    2  C9  UNK     1      12.480   5.607   9.409  1.00  0.00     0.184 C 
ENDROOT
BRANCH   2   3
HETATM    3  C11 UNK     1      11.975   5.378   8.026  1.00  0.00     0.056 C 
HETATM    4  C5  UNK     1      10.800   5.918   7.633  1.00  0.00     0.018 C 
BRANCH   4   5
HETATM    5  C1  UNK     1       9.936   6.742   8.468  1.00  0.00    -0.003 A 
HETATM    6  C2  UNK     1       8.690   6.278   8.891  1.00  0.00     0.081 A 
HETATM    7  C6  UNK     1       7.881   7.084   9.690  1.00  0.00     0.074 A 
HETATM    8  C7  UNK     1       8.316   8.355  10.067  1.00  0.00     0.070 A 
HETATM    9  C10 UNK     1       9.561   8.819   9.643  1.00  0.00     0.038 A 
HETATM   10  C4  UNK     1      10.372   8.013   8.844  1.00  0.00     0.017 A 
BRANCH   6  11
HETATM   11  O1  UNK     1       8.240   5.040   8.538  1.00  0.00    -0.355 OA
HETATM   12  C16 UNK     1       7.372   4.381   9.457  1.00  0.00     0.210 C 
ENDBRANCH   6  11
BRANCH   8  13
HETATM   13  O2  UNK     1       7.526   9.143  10.847  1.00  0.00    -0.356 OA
HETATM   14  C17 UNK     1       6.449   8.505  11.532  1.00  0.00     0.210 C 
ENDBRANCH   8  13
ENDBRANCH   4   5
ENDBRANCH   2   3
BRANCH   2  15
HETATM   15  C3  UNK     1      13.781   6.302   9.559  1.00  0.00     0.047 A 
HETATM   16  C12 UNK     1      13.850   7.675   9.318  1.00  0.00     0.021 A 
HETATM   17  C15 UNK     1      15.065   8.346   9.454  1.00  0.00     0.038 A 
HETATM   18  C13 UNK     1      16.211   7.646   9.831  1.00  0.00     0.070 A 
HETATM   19  C14 UNK     1      16.143   6.273  10.071  1.00  0.00     0.074 A 
HETATM   20  C8  UNK     1      14.928   5.602   9.935  1.00  0.00     0.082 A 
BRANCH  18  21
HETATM   21  O3  UNK     1      17.396   8.302   9.962  1.00  0.00    -0.356 OA
HETATM   22  C18 UNK     1      17.388   9.710   9.732  1.00  0.00     0.210 C 
ENDBRANCH  18  21
BRANCH  20  23
HETATM   23  O4  UNK     1      14.881   4.261  10.174  1.00  0.00    -0.360 OA
HETATM   24  H12 UNK     1      15.574   4.000  10.801  1.00  0.00     0.217 HD
ENDBRANCH  20  23
ENDBRANCH   2  15
TORSDOF 7
ENDMDL
MODEL 7
REMARK VINA RESULT:      -7.2      1.886      7.504
REMARK  7 active torsions:
REMARK  status: ('A' for Active; 'I' for Inactive)
REMARK    1  A    between atoms: C2_7  and  O1_1 
REMARK    2  A    between atoms: C7_12  and  O2_2 
REMARK    3  A    between atoms: C13_18  and  O3_3 
REMARK    4  A    between atoms: C8_13  and  O4_4 
REMARK    5  A    between atoms: C1_6  and  C5_10 
REMARK    6  A    between atoms: C3_8  and  C9_14 
REMARK    7  A    between atoms: C11_16  and  C9_14 
ROOT
HETATM    1  O5  UNK     1      16.311   6.294  32.545  1.00  0.00    -0.287 OA
HETATM    2  C9  UNK     1      16.755   7.135  33.319  1.00  0.00     0.184 C 
ENDROOT
BRANCH   2   3
HETATM    3  C11 UNK     1      18.043   6.959  34.046  1.00  0.00     0.056 C 
HETATM    4  C5  UNK     1      18.990   6.126  33.560  1.00  0.00     0.018 C 
BRANCH   4   5
HETATM    5  C1  UNK     1      18.871   5.346  32.336  1.00  0.00    -0.003 A 
HETATM    6  C2  UNK     1      18.350   4.052  32.356  1.00  0.00     0.081 A 
HETATM    7  C6  UNK     1      18.245   3.325  31.170  1.00  0.00     0.074 A 
HETATM    8  C7  UNK     1      18.662   3.891  29.965  1.00  0.00     0.070 A 
HETATM    9  C10 UNK     1      19.183   5.185  29.946  1.00  0.00     0.038 A 
HETATM   10  C4  UNK     1      19.288   5.912  31.131  1.00  0.00     0.017 A 
BRANCH   6  11
HETATM   11  O1  UNK     1      17.935   3.475  33.520  1.00  0.00    -0.355 OA
HETATM   12  C16 UNK     1      18.130   2.069  33.649  1.00  0.00     0.210 C 
ENDBRANCH   6  11
BRANCH   8  13
HETATM   13  O2  UNK     1      18.560   3.181  28.808  1.00  0.00    -0.356 OA
HETATM   14  C17 UNK     1      17.906   1.915  28.879  1.00  0.00     0.210 C 
ENDBRANCH   8  13
ENDBRANCH   4   5
ENDBRANCH   2   3
BRANCH   2  15
HETATM   15  C3  UNK     1      15.981   8.373  33.582  1.00  0.00     0.047 A 
HETATM   16  C12 UNK     1      15.848   8.825  34.896  1.00  0.00     0.021 A 
HETATM   17  C15 UNK     1      15.124   9.986  35.164  1.00  0.00     0.038 A 
HETATM   18  C13 UNK     1      14.533  10.697  34.119  1.00  0.00     0.070 A 
HETATM   19  C14 UNK     1      14.665  10.245  32.806  1.00  0.00     0.074 A 
HETATM   20  C8  UNK     1      15.389   9.083  32.538  1.00  0.00     0.082 A 
BRANCH  18  21
HETATM   21  O3  UNK     1      13.827  11.830  34.381  1.00  0.00    -0.356 OA
HETATM   22  C18 UNK     1      12.729  12.125  33.519  1.00  0.00     0.210 C 
ENDBRANCH  18  21
BRANCH  20  23
HETATM   23  O4  UNK     1      15.507   8.658  31.249  1.00  0.00    -0.360 OA
HETATM   24  H12 UNK     1      15.772   9.389  30.669  1.00  0.00     0.217 HD
ENDBRANCH  20  23
ENDBRANCH   2  15
TORSDOF 7
ENDMDL
MODEL 8
REMARK VINA RESULT:      -7.1     22.429     24.723
REMARK  7 active torsions:
REMARK  status: ('A' for Active; 'I' for Inactive)
REMARK    1  A    between atoms: C2_7  and  O1_1 
REMARK    2  A    between atoms: C7_12  and  O2_2 
REMARK    3  A    between atoms: C13_18  and  O3_3 
REMARK    4  A    between atoms: C8_13  and  O4_4 
REMARK    5  A    between atoms: C1_6  and  C5_10 
REMARK    6  A    between atoms: C3_8  and  C9_14 
REMARK    7  A    between atoms: C11_16  and  C9_14 
ROOT
HETATM    1  O5  UNK     1      11.668   4.981   9.893  1.00  0.00    -0.287 OA
HETATM    2  C9  UNK     1      11.022   5.395   8.937  1.00  0.00     0.184 C 
ENDROOT
BRANCH   2   3
HETATM    3  C11 UNK     1      11.574   5.442   7.554  1.00  0.00     0.056 C 
HETATM    4  C5  UNK     1      12.633   6.232   7.270  1.00  0.00     0.018 C 
BRANCH   4   5
HETATM    5  C1  UNK     1      13.322   7.085   8.230  1.00  0.00    -0.003 A 
HETATM    6  C2  UNK     1      14.458   6.637   8.904  1.00  0.00     0.081 A 
HETATM    7  C6  UNK     1      15.101   7.472   9.817  1.00  0.00     0.074 A 
HETATM    8  C7  UNK     1      14.610   8.755  10.056  1.00  0.00     0.070 A 
HETATM    9  C10 UNK     1      13.474   9.203   9.382  1.00  0.00     0.038 A 
HETATM   10  C4  UNK     1      12.830   8.369   8.468  1.00  0.00     0.017 A 
BRANCH   6  11
HETATM   11  O1  UNK     1      14.960   5.387   8.689  1.00  0.00    -0.355 OA
HETATM   12  C16 UNK     1      15.282   4.612   9.842  1.00  0.00     0.210 C 
ENDBRANCH   6  11
BRANCH   8  13
HETATM   13  O2  UNK     1      15.238   9.570  10.947  1.00  0.00    -0.356 OA
HETATM   14  C17 UNK     1      16.485  10.134  10.544  1.00  0.00     0.210 C 
ENDBRANCH   8  13
ENDBRANCH   4   5
ENDBRANCH   2   3
BRANCH   2  15
HETATM   15  C3  UNK     1       9.645   5.904   9.144  1.00  0.00     0.047 A 
HETATM   16  C12 UNK     1       9.335   7.207   8.751  1.00  0.00     0.021 A 
HETATM   17  C15 UNK     1       8.046   7.704   8.939  1.00  0.00     0.038 A 
HETATM   18  C13 UNK     1       7.065   6.898   9.518  1.00  0.00     0.070 A 
HETATM   19  C14 UNK     1       7.374   5.596   9.912  1.00  0.00     0.074 A 
HETATM   20  C8  UNK     1       8.664   5.099   9.725  1.00  0.00     0.082 A 
BRANCH  18  21
HETATM   21  O3  UNK     1       5.807   7.385   9.701  1.00  0.00    -0.356 OA
HETATM   22  C18 UNK     1       5.605   8.266  10.805  1.00  0.00     0.210 C 
ENDBRANCH  18  21
BRANCH  20  23
HETATM   23  O4  UNK     1       8.946   3.825  10.115  1.00  0.00    -0.360 OA
HETATM   24  H12 UNK     1       9.255   3.296   9.363  1.00  0.00     0.217 HD
ENDBRANCH  20  23
ENDBRANCH   2  15
TORSDOF 7
ENDMDL
MODEL 9
REMARK VINA RESULT:      -7.0     13.476     19.169
REMARK  7 active torsions:
REMARK  status: ('A' for Active; 'I' for Inactive)
REMARK    1  A    between atoms: C2_7  and  O1_1 
REMARK    2  A    between atoms: C7_12  and  O2_2 
REMARK    3  A    between atoms: C13_18  and  O3_3 
REMARK    4  A    between atoms: C8_13  and  O4_4 
REMARK    5  A    between atoms: C1_6  and  C5_10 
REMARK    6  A    between atoms: C3_8  and  C9_14 
REMARK    7  A    between atoms: C11_16  and  C9_14 
ROOT
HETATM    1  O5  UNK     1      19.620  -0.102  14.618  1.00  0.00    -0.287 OA
HETATM    2  C9  UNK     1      19.004  -0.469  15.613  1.00  0.00     0.184 C 
ENDROOT
BRANCH   2   3
HETATM    3  C11 UNK     1      18.179  -1.708  15.636  1.00  0.00     0.056 C 
HETATM    4  C5  UNK     1      18.767  -2.914  15.795  1.00  0.00     0.018 C 
BRANCH   4   5
HETATM    5  C1  UNK     1      20.199  -3.134  15.953  1.00  0.00    -0.003 A 
HETATM    6  C2  UNK     1      21.012  -3.395  14.850  1.00  0.00     0.081 A 
HETATM    7  C6  UNK     1      22.380  -3.602  15.026  1.00  0.00     0.074 A 
HETATM    8  C7  UNK     1      22.936  -3.546  16.305  1.00  0.00     0.070 A 
HETATM    9  C10 UNK     1      22.121  -3.285  17.407  1.00  0.00     0.038 A 
HETATM   10  C4  UNK     1      20.754  -3.079  17.231  1.00  0.00     0.017 A 
BRANCH   6  11
HETATM   11  O1  UNK     1      20.495  -3.455  13.589  1.00  0.00    -0.355 OA
HETATM   12  C16 UNK     1      20.803  -2.373  12.713  1.00  0.00     0.210 C 
ENDBRANCH   6  11
BRANCH   8  13
HETATM   13  O2  UNK     1      24.271  -3.747  16.476  1.00  0.00    -0.356 OA
HETATM   14  C17 UNK     1      24.845  -3.285  17.698  1.00  0.00     0.210 C 
ENDBRANCH   8  13
ENDBRANCH   4   5
ENDBRANCH   2   3
BRANCH   2  15
HETATM   15  C3  UNK     1      19.042   0.355  16.846  1.00  0.00     0.047 A 
HETATM   16  C12 UNK     1      19.030  -0.280  18.088  1.00  0.00     0.021 A 
HETATM   17  C15 UNK     1      19.064   0.477  19.259  1.00  0.00     0.038 A 
HETATM   18  C13 UNK     1      19.112   1.869  19.189  1.00  0.00     0.070 A 
HETATM   19  C14 UNK     1      19.123   2.505  17.947  1.00  0.00     0.074 A 
HETATM   20  C8  UNK     1      19.088   1.748  16.776  1.00  0.00     0.082 A 
BRANCH  18  21
HETATM   21  O3  UNK     1      19.145   2.607  20.332  1.00  0.00    -0.356 OA
HETATM   22  C18 UNK     1      19.769   2.014  21.470  1.00  0.00     0.210 C 
ENDBRANCH  18  21
BRANCH  20  23
HETATM   23  O4  UNK     1      19.101   2.387  15.572  1.00  0.00    -0.360 OA
HETATM   24  H12 UNK     1      20.009   2.592  15.302  1.00  0.00     0.217 HD
ENDBRANCH  20  23
ENDBRANCH   2  15
TORSDOF 7
ENDMDL
MODEL 10
REMARK VINA RESULT:      -6.9     21.969     24.172
REMARK  7 active torsions:
REMARK  status: ('A' for Active; 'I' for Inactive)
REMARK    1  A    between atoms: C2_7  and  O1_1 
REMARK    2  A    between atoms: C7_12  and  O2_2 
REMARK    3  A    between atoms: C13_18  and  O3_3 
REMARK    4  A    between atoms: C8_13  and  O4_4 
REMARK    5  A    between atoms: C1_6  and  C5_10 
REMARK    6  A    between atoms: C3_8  and  C9_14 
REMARK    7  A    between atoms: C11_16  and  C9_14 
ROOT
HETATM    1  O5  UNK     1      16.893   6.640   9.590  1.00  0.00    -0.287 OA
HETATM    2  C9  UNK     1      15.770   6.919   9.996  1.00  0.00     0.184 C 
ENDROOT
BRANCH   2   3
HETATM    3  C11 UNK     1      15.535   7.644  11.276  1.00  0.00     0.056 C 
HETATM    4  C5  UNK     1      15.660   8.988  11.330  1.00  0.00     0.018 C 
BRANCH   4   5
HETATM    5  C1  UNK     1      16.020   9.842  10.205  1.00  0.00    -0.003 A 
HETATM    6  C2  UNK     1      15.053  10.589   9.531  1.00  0.00     0.081 A 
HETATM    7  C6  UNK     1      15.422  11.399   8.458  1.00  0.00     0.074 A 
HETATM    8  C7  UNK     1      16.757  11.464   8.058  1.00  0.00     0.070 A 
HETATM    9  C10 UNK     1      17.723  10.716   8.732  1.00  0.00     0.038 A 
HETATM   10  C4  UNK     1      17.355   9.906   9.806  1.00  0.00     0.017 A 
BRANCH   6  11
HETATM   11  O1  UNK     1      13.741  10.544   9.902  1.00  0.00    -0.355 OA
HETATM   12  C16 UNK     1      13.200  11.716  10.508  1.00  0.00     0.210 C 
ENDBRANCH   6  11
BRANCH   8  13
HETATM   13  O2  UNK     1      17.116  12.255   7.011  1.00  0.00    -0.356 OA
HETATM   14  C17 UNK     1      18.503  12.305   6.681  1.00  0.00     0.210 C 
ENDBRANCH   8  13
ENDBRANCH   4   5
ENDBRANCH   2   3
BRANCH   2  15
HETATM   15  C3  UNK     1      14.581   6.501   9.214  1.00  0.00     0.047 A 
HETATM   16  C12 UNK     1      13.909   7.449   8.441  1.00  0.00     0.021 A 
HETATM   17  C15 UNK     1      12.789   7.075   7.698  1.00  0.00     0.038 A 
HETATM   18  C13 UNK     1      12.340   5.754   7.729  1.00  0.00     0.070 A 
HETATM   19  C14 UNK     1      13.011   4.807   8.503  1.00  0.00     0.074 A 
HETATM   20  C8  UNK     1      14.132   5.181   9.245  1.00  0.00     0.082 A 
BRANCH  18  21
HETATM   21  O3  UNK     1      11.246   5.391   7.006  1.00  0.00    -0.356 OA
HETATM   22  C18 UNK     1      10.758   6.332   6.050  1.00  0.00     0.210 C 
ENDBRANCH  18  21
BRANCH  20  23
HETATM   23  O4  UNK     1      14.774   4.242   9.995  1.00  0.00    -0.360 OA
HETATM   24  H12 UNK     1      15.024   3.479   9.450  1.00  0.00     0.217 HD
ENDBRANCH  20  23
ENDBRANCH   2  15
TORSDOF 7
ENDMDL
