MODEL 1
REMARK VINA RESULT:      -9.1      0.000      0.000
REMARK  3 active torsions:
REMARK  status: ('A' for Active; 'I' for Inactive)
REMARK    1  A    between atoms: C13_18  and  C5_10 
REMARK    2  A    between atoms: C16_21  and  C8_13 
REMARK    3  A    between atoms: C13_18  and  C18_23 
ROOT
HETATM    1  O5  UNK     1      17.698   3.411  31.493  1.00  0.00    -0.288 OA
HETATM    2  C13 UNK     1      18.395   3.127  30.508  1.00  0.00     0.182 C 
ENDROOT
BRANCH   2   3
HETATM    3  C5  UNK     1      18.972   1.801  30.360  1.00  0.00     0.017 A 
HETATM    4  C11 UNK     1      19.279   1.312  29.089  1.00  0.00     0.018 A 
HETATM    5  C10 UNK     1      19.827   0.038  28.943  1.00  0.00     0.040 A 
HETATM    6  C2  UNK     1      20.065  -0.749  30.070  1.00  0.00     0.102 A 
HETATM    7  C1  UNK     1      19.784  -0.250  31.344  1.00  0.00     0.103 A 
HETATM    8  O2  UNK     1      20.585  -2.000  29.860  1.00  0.00    -0.346 OA
HETATM    9  O1  UNK     1      20.025  -0.961  32.490  1.00  0.00    -0.346 OA
HETATM   10  C6  UNK     1      19.222   1.019  31.489  1.00  0.00     0.055 A 
HETATM   11  C3  UNK     1      20.899  -2.068  32.256  1.00  0.00     0.202 C 
HETATM   12  C4  UNK     1      20.464  -2.829  31.019  1.00  0.00     0.202 C 
ENDBRANCH   2   3
BRANCH   2  13
HETATM   13  C18 UNK     1      18.631   4.140  29.423  1.00  0.00     0.056 C 
HETATM   14  C16 UNK     1      18.923   5.413  29.728  1.00  0.00     0.015 C 
BRANCH  14  15
HETATM   15  C8  UNK     1      19.036   5.937  31.101  1.00  0.00    -0.033 A 
HETATM   16  C12 UNK     1      17.914   6.479  31.732  1.00  0.00     0.051 A 
HETATM   17  C7  UNK     1      18.069   6.956  33.017  1.00  0.00     0.105 A 
HETATM   18  O3  UNK     1      17.094   7.517  33.783  1.00  0.00    -0.323 OA
HETATM   19  C9  UNK     1      19.281   6.904  33.667  1.00  0.00     0.105 A 
HETATM   20  C17 UNK     1      17.829   7.812  34.990  1.00  0.00     0.352 A 
HETATM   21  O4  UNK     1      19.216   7.426  34.923  1.00  0.00    -0.323 OA
HETATM   22  C15 UNK     1      20.404   6.373  33.068  1.00  0.00     0.040 A 
HETATM   23  C14 UNK     1      20.274   5.884  31.766  1.00  0.00     0.014 A 
ENDBRANCH  14  15
ENDBRANCH   2  13
TORSDOF 3
ENDMDL
MODEL 2
REMARK VINA RESULT:      -9.0     22.314     24.877
REMARK  3 active torsions:
REMARK  status: ('A' for Active; 'I' for Inactive)
REMARK    1  A    between atoms: C13_18  and  C5_10 
REMARK    2  A    between atoms: C16_21  and  C8_13 
REMARK    3  A    between atoms: C13_18  and  C18_23 
ROOT
HETATM    1  O5  UNK     1      14.340   7.783  11.284  1.00  0.00    -0.288 OA
HETATM    2  C13 UNK     1      15.242   7.682  10.439  1.00  0.00     0.182 C 
ENDROOT
BRANCH   2   3
HETATM    3  C5  UNK     1      15.680   8.837   9.673  1.00  0.00     0.017 A 
HETATM    4  C11 UNK     1      14.784   9.493   8.827  1.00  0.00     0.018 A 
HETATM    5  C10 UNK     1      15.203  10.598   8.086  1.00  0.00     0.040 A 
HETATM    6  C2  UNK     1      16.520  11.045   8.190  1.00  0.00     0.102 A 
HETATM    7  C1  UNK     1      17.409  10.406   9.057  1.00  0.00     0.103 A 
HETATM    8  O2  UNK     1      16.877  12.123   7.421  1.00  0.00    -0.346 OA
HETATM    9  O1  UNK     1      18.705  10.817   9.228  1.00  0.00    -0.346 OA
HETATM   10  C6  UNK     1      16.994   9.292   9.788  1.00  0.00     0.055 A 
HETATM   11  C3  UNK     1      18.917  12.136   8.717  1.00  0.00     0.202 C 
HETATM   12  C4  UNK     1      18.297  12.274   7.341  1.00  0.00     0.202 C 
ENDBRANCH   2   3
BRANCH   2  13
HETATM   13  C18 UNK     1      15.928   6.364  10.211  1.00  0.00     0.056 C 
HETATM   14  C16 UNK     1      15.314   5.381   9.538  1.00  0.00     0.015 C 
BRANCH  14  15
HETATM   15  C8  UNK     1      13.956   5.478   8.974  1.00  0.00    -0.033 A 
HETATM   16  C12 UNK     1      13.776   5.976   7.681  1.00  0.00     0.051 A 
HETATM   17  C7  UNK     1      12.487   6.048   7.196  1.00  0.00     0.105 A 
HETATM   18  O3  UNK     1      12.120   6.505   5.967  1.00  0.00    -0.323 OA
HETATM   19  C9  UNK     1      11.406   5.644   7.947  1.00  0.00     0.105 A 
HETATM   20  C17 UNK     1      10.687   6.342   6.030  1.00  0.00     0.352 A 
HETATM   21  O4  UNK     1      10.228   5.797   7.283  1.00  0.00    -0.323 OA
HETATM   22  C15 UNK     1      11.557   5.147   9.225  1.00  0.00     0.040 A 
HETATM   23  C14 UNK     1      12.853   5.065   9.742  1.00  0.00     0.014 A 
ENDBRANCH  14  15
ENDBRANCH   2  13
TORSDOF 3
ENDMDL
MODEL 3
REMARK VINA RESULT:      -8.8     22.479     24.928
REMARK  3 active torsions:
REMARK  status: ('A' for Active; 'I' for Inactive)
REMARK    1  A    between atoms: C13_18  and  C5_10 
REMARK    2  A    between atoms: C16_21  and  C8_13 
REMARK    3  A    between atoms: C13_18  and  C18_23 
ROOT
HETATM    1  O5  UNK     1      13.314   7.571  10.958  1.00  0.00    -0.288 OA
HETATM    2  C13 UNK     1      14.284   7.397  10.205  1.00  0.00     0.182 C 
ENDROOT
BRANCH   2   3
HETATM    3  C5  UNK     1      14.987   8.527   9.620  1.00  0.00     0.017 A 
HETATM    4  C11 UNK     1      14.345   9.336   8.681  1.00  0.00     0.018 A 
HETATM    5  C10 UNK     1      15.019  10.417   8.113  1.00  0.00     0.040 A 
HETATM    6  C2  UNK     1      16.336  10.687   8.483  1.00  0.00     0.102 A 
HETATM    7  C1  UNK     1      16.970   9.894   9.442  1.00  0.00     0.103 A 
HETATM    8  O2  UNK     1      16.951  11.750   7.874  1.00  0.00    -0.346 OA
HETATM    9  O1  UNK     1      18.250  10.126   9.871  1.00  0.00    -0.346 OA
HETATM   10  C6  UNK     1      16.301   8.803  10.000  1.00  0.00     0.055 A 
HETATM   11  C3  UNK     1      18.704  11.433   9.508  1.00  0.00     0.202 C 
HETATM   12  C4  UNK     1      18.370  11.723   8.059  1.00  0.00     0.202 C 
ENDBRANCH   2   3
BRANCH   2  13
HETATM   13  C18 UNK     1      14.779   6.009   9.908  1.00  0.00     0.056 C 
HETATM   14  C16 UNK     1      14.112   5.212   9.060  1.00  0.00     0.015 C 
BRANCH  14  15
HETATM   15  C8  UNK     1      12.873   5.592   8.358  1.00  0.00    -0.033 A 
HETATM   16  C12 UNK     1      11.634   5.248   8.903  1.00  0.00     0.051 A 
HETATM   17  C7  UNK     1      10.503   5.625   8.211  1.00  0.00     0.105 A 
HETATM   18  O3  UNK     1       9.217   5.378   8.584  1.00  0.00    -0.323 OA
HETATM   19  C9  UNK     1      10.578   6.319   7.024  1.00  0.00     0.105 A 
HETATM   20  C17 UNK     1       8.492   5.995   7.500  1.00  0.00     0.352 A 
HETATM   21  O4  UNK     1       9.348   6.593   6.507  1.00  0.00    -0.323 OA
HETATM   22  C15 UNK     1      11.788   6.671   6.465  1.00  0.00     0.040 A 
HETATM   23  C14 UNK     1      12.950   6.300   7.146  1.00  0.00     0.014 A 
ENDBRANCH  14  15
ENDBRANCH   2  13
TORSDOF 3
ENDMDL
MODEL 4
REMARK VINA RESULT:      -8.7     22.407     24.629
REMARK  3 active torsions:
REMARK  status: ('A' for Active; 'I' for Inactive)
REMARK    1  A    between atoms: C13_18  and  C5_10 
REMARK    2  A    between atoms: C16_21  and  C8_13 
REMARK    3  A    between atoms: C13_18  and  C18_23 
ROOT
HETATM    1  O5  UNK     1      11.674   4.450   8.424  1.00  0.00    -0.288 OA
HETATM    2  C13 UNK     1      11.864   5.524   7.834  1.00  0.00     0.182 C 
ENDROOT
BRANCH   2   3
HETATM    3  C5  UNK     1      12.797   6.508   8.357  1.00  0.00     0.017 A 
HETATM    4  C11 UNK     1      12.980   7.719   7.689  1.00  0.00     0.018 A 
HETATM    5  C10 UNK     1      13.880   8.663   8.184  1.00  0.00     0.040 A 
HETATM    6  C2  UNK     1      14.599   8.392   9.348  1.00  0.00     0.102 A 
HETATM    7  C1  UNK     1      14.396   7.191  10.033  1.00  0.00     0.103 A 
HETATM    8  O2  UNK     1      15.483   9.349   9.774  1.00  0.00    -0.346 OA
HETATM    9  O1  UNK     1      15.047   6.881  11.198  1.00  0.00    -0.346 OA
HETATM   10  C6  UNK     1      13.507   6.241   9.529  1.00  0.00     0.055 A 
HETATM   11  C3  UNK     1      15.650   8.032  11.794  1.00  0.00     0.202 C 
HETATM   12  C4  UNK     1      16.396   8.837  10.748  1.00  0.00     0.202 C 
ENDBRANCH   2   3
BRANCH   2  13
HETATM   13  C18 UNK     1      11.156   5.819   6.541  1.00  0.00     0.056 C 
HETATM   14  C16 UNK     1       9.892   6.265   6.540  1.00  0.00     0.015 C 
BRANCH  14  15
HETATM   15  C8  UNK     1       9.090   6.503   7.753  1.00  0.00    -0.033 A 
HETATM   16  C12 UNK     1       8.132   5.565   8.147  1.00  0.00     0.051 A 
HETATM   17  C7  UNK     1       7.407   5.831   9.289  1.00  0.00     0.105 A 
HETATM   18  O3  UNK     1       6.437   5.039   9.822  1.00  0.00    -0.323 OA
HETATM   19  C9  UNK     1       7.610   6.976  10.026  1.00  0.00     0.105 A 
HETATM   20  C17 UNK     1       6.053   5.814  10.978  1.00  0.00     0.352 A 
HETATM   21  O4  UNK     1       6.793   7.044  11.113  1.00  0.00    -0.323 OA
HETATM   22  C15 UNK     1       8.550   7.917   9.660  1.00  0.00     0.040 A 
HETATM   23  C14 UNK     1       9.298   7.673   8.505  1.00  0.00     0.014 A 
ENDBRANCH  14  15
ENDBRANCH   2  13
TORSDOF 3
ENDMDL
MODEL 5
REMARK VINA RESULT:      -8.6     22.436     24.653
REMARK  3 active torsions:
REMARK  status: ('A' for Active; 'I' for Inactive)
REMARK    1  A    between atoms: C13_18  and  C5_10 
REMARK    2  A    between atoms: C16_21  and  C8_13 
REMARK    3  A    between atoms: C13_18  and  C18_23 
ROOT
HETATM    1  O5  UNK     1      11.573   4.269   8.488  1.00  0.00    -0.288 OA
HETATM    2  C13 UNK     1      12.113   5.253   7.960  1.00  0.00     0.182 C 
ENDROOT
BRANCH   2   3
HETATM    3  C5  UNK     1      13.256   5.900   8.581  1.00  0.00     0.017 A 
HETATM    4  C11 UNK     1      14.185   5.140   9.293  1.00  0.00     0.018 A 
HETATM    5  C10 UNK     1      15.281   5.758   9.896  1.00  0.00     0.040 A 
HETATM    6  C2  UNK     1      15.445   7.139   9.789  1.00  0.00     0.102 A 
HETATM    7  C1  UNK     1      14.530   7.897   9.053  1.00  0.00     0.103 A 
HETATM    8  O2  UNK     1      16.529   7.691  10.420  1.00  0.00    -0.346 OA
HETATM    9  O1  UNK     1      14.654   9.251   8.884  1.00  0.00    -0.346 OA
HETATM   10  C6  UNK     1      13.427   7.280   8.463  1.00  0.00     0.055 A 
HETATM   11  C3  UNK     1      15.964   9.713   9.221  1.00  0.00     0.202 C 
HETATM   12  C4  UNK     1      16.411   9.111  10.539  1.00  0.00     0.202 C 
ENDBRANCH   2   3
BRANCH   2  13
HETATM   13  C18 UNK     1      11.615   5.780   6.642  1.00  0.00     0.056 C 
HETATM   14  C16 UNK     1      10.448   6.436   6.565  1.00  0.00     0.015 C 
BRANCH  14  15
HETATM   15  C8  UNK     1       9.562   6.700   7.713  1.00  0.00    -0.033 A 
HETATM   16  C12 UNK     1       8.508   5.826   7.990  1.00  0.00     0.051 A 
HETATM   17  C7  UNK     1       7.705   6.113   9.075  1.00  0.00     0.105 A 
HETATM   18  O3  UNK     1       6.637   5.382   9.495  1.00  0.00    -0.323 OA
HETATM   19  C9  UNK     1       7.925   7.219   9.865  1.00  0.00     0.105 A 
HETATM   20  C17 UNK     1       6.210   6.150  10.639  1.00  0.00     0.352 A 
HETATM   21  O4  UNK     1       7.023   7.317  10.880  1.00  0.00    -0.323 OA
HETATM   22  C15 UNK     1       8.959   8.096   9.614  1.00  0.00     0.040 A 
HETATM   23  C14 UNK     1       9.787   7.828   8.520  1.00  0.00     0.014 A 
ENDBRANCH  14  15
ENDBRANCH   2  13
TORSDOF 3
ENDMDL
MODEL 6
REMARK VINA RESULT:      -8.5     10.401     13.910
REMARK  3 active torsions:
REMARK  status: ('A' for Active; 'I' for Inactive)
REMARK    1  A    between atoms: C13_18  and  C5_10 
REMARK    2  A    between atoms: C16_21  and  C8_13 
REMARK    3  A    between atoms: C13_18  and  C18_23 
ROOT
HETATM    1  O5  UNK     1      21.666 -10.301  34.370  1.00  0.00    -0.288 OA
HETATM    2  C13 UNK     1      21.943 -10.584  35.545  1.00  0.00     0.182 C 
ENDROOT
BRANCH   2   3
HETATM    3  C5  UNK     1      23.306 -10.471  36.038  1.00  0.00     0.017 A 
HETATM    4  C11 UNK     1      24.201 -11.528  35.862  1.00  0.00     0.018 A 
HETATM    5  C10 UNK     1      25.507 -11.425  36.339  1.00  0.00     0.040 A 
HETATM    6  C2  UNK     1      25.917 -10.266  36.997  1.00  0.00     0.102 A 
HETATM    7  C1  UNK     1      25.030  -9.197  37.150  1.00  0.00     0.103 A 
HETATM    8  O2  UNK     1      27.206 -10.233  37.461  1.00  0.00    -0.346 OA
HETATM    9  O1  UNK     1      25.382  -8.021  37.757  1.00  0.00    -0.346 OA
HETATM   10  C6  UNK     1      23.719  -9.306  36.685  1.00  0.00     0.055 A 
HETATM   11  C3  UNK     1      26.801  -7.886  37.877  1.00  0.00     0.202 C 
HETATM   12  C4  UNK     1      27.408  -9.173  38.400  1.00  0.00     0.202 C 
ENDBRANCH   2   3
BRANCH   2  13
HETATM   13  C18 UNK     1      20.865 -11.019  36.500  1.00  0.00     0.056 C 
HETATM   14  C16 UNK     1      20.047 -10.118  37.063  1.00  0.00     0.015 C 
BRANCH  14  15
HETATM   15  C8  UNK     1      20.112  -8.666  36.821  1.00  0.00    -0.033 A 
HETATM   16  C12 UNK     1      20.754  -7.837  37.745  1.00  0.00     0.051 A 
HETATM   17  C7  UNK     1      20.790  -6.485  37.476  1.00  0.00     0.105 A 
HETATM   18  O3  UNK     1      21.367  -5.530  38.256  1.00  0.00    -0.323 OA
HETATM   19  C9  UNK     1      20.219  -5.957  36.339  1.00  0.00     0.105 A 
HETATM   20  C17 UNK     1      21.095  -4.342  37.483  1.00  0.00     0.352 A 
HETATM   21  O4  UNK     1      20.368  -4.606  36.266  1.00  0.00    -0.323 OA
HETATM   22  C15 UNK     1      19.581  -6.753  35.411  1.00  0.00     0.040 A 
HETATM   23  C14 UNK     1      19.529  -8.127  35.661  1.00  0.00     0.014 A 
ENDBRANCH  14  15
ENDBRANCH   2  13
TORSDOF 3
ENDMDL
MODEL 7
REMARK VINA RESULT:      -8.5     22.508     24.607
REMARK  3 active torsions:
REMARK  status: ('A' for Active; 'I' for Inactive)
REMARK    1  A    between atoms: C13_18  and  C5_10 
REMARK    2  A    between atoms: C16_21  and  C8_13 
REMARK    3  A    between atoms: C13_18  and  C18_23 
ROOT
HETATM    1  O5  UNK     1      14.915   5.575   7.692  1.00  0.00    -0.288 OA
HETATM    2  C13 UNK     1      14.004   5.731   8.518  1.00  0.00     0.182 C 
ENDROOT
BRANCH   2   3
HETATM    3  C5  UNK     1      12.636   5.966   8.085  1.00  0.00     0.017 A 
HETATM    4  C11 UNK     1      12.376   6.311   6.758  1.00  0.00     0.018 A 
HETATM    5  C10 UNK     1      11.065   6.544   6.339  1.00  0.00     0.040 A 
HETATM    6  C2  UNK     1      10.016   6.433   7.251  1.00  0.00     0.102 A 
HETATM    7  C1  UNK     1      10.273   6.061   8.573  1.00  0.00     0.103 A 
HETATM    8  O2  UNK     1       8.753   6.694   6.786  1.00  0.00    -0.346 OA
HETATM    9  O1  UNK     1       9.283   5.904   9.507  1.00  0.00    -0.346 OA
HETATM   10  C6  UNK     1      11.585   5.843   8.994  1.00  0.00     0.055 A 
HETATM   11  C3  UNK     1       7.990   5.811   8.903  1.00  0.00     0.202 C 
HETATM   12  C4  UNK     1       7.821   6.891   7.853  1.00  0.00     0.202 C 
ENDBRANCH   2   3
BRANCH   2  13
HETATM   13  C18 UNK     1      14.287   5.646   9.992  1.00  0.00     0.056 C 
HETATM   14  C16 UNK     1      14.861   6.671  10.638  1.00  0.00     0.015 C 
BRANCH  14  15
HETATM   15  C8  UNK     1      15.260   7.939  10.003  1.00  0.00    -0.033 A 
HETATM   16  C12 UNK     1      16.612   8.285   9.934  1.00  0.00     0.051 A 
HETATM   17  C7  UNK     1      16.938   9.481   9.330  1.00  0.00     0.105 A 
HETATM   18  O3  UNK     1      18.194   9.981   9.173  1.00  0.00    -0.323 OA
HETATM   19  C9  UNK     1      15.975  10.314   8.806  1.00  0.00     0.105 A 
HETATM   20  C17 UNK     1      17.914  11.221   8.492  1.00  0.00     0.352 A 
HETATM   21  O4  UNK     1      16.509  11.439   8.256  1.00  0.00    -0.323 OA
HETATM   22  C15 UNK     1      14.634   9.995   8.859  1.00  0.00     0.040 A 
HETATM   23  C14 UNK     1      14.277   8.790   9.468  1.00  0.00     0.014 A 
ENDBRANCH  14  15
ENDBRANCH   2  13
TORSDOF 3
ENDMDL
MODEL 8
REMARK VINA RESULT:      -8.5      2.215      4.172
REMARK  3 active torsions:
REMARK  status: ('A' for Active; 'I' for Inactive)
REMARK    1  A    between atoms: C13_18  and  C5_10 
REMARK    2  A    between atoms: C16_21  and  C8_13 
REMARK    3  A    between atoms: C13_18  and  C18_23 
ROOT
HETATM    1  O5  UNK     1      17.894   5.063  34.221  1.00  0.00    -0.288 OA
HETATM    2  C13 UNK     1      18.714   5.314  33.326  1.00  0.00     0.182 C 
ENDROOT
BRANCH   2   3
HETATM    3  C5  UNK     1      18.661   4.618  32.050  1.00  0.00     0.017 A 
HETATM    4  C11 UNK     1      18.768   5.338  30.859  1.00  0.00     0.018 A 
HETATM    5  C10 UNK     1      18.711   4.675  29.633  1.00  0.00     0.040 A 
HETATM    6  C2  UNK     1      18.544   3.291  29.600  1.00  0.00     0.102 A 
HETATM    7  C1  UNK     1      18.465   2.566  30.792  1.00  0.00     0.103 A 
HETATM    8  O2  UNK     1      18.475   2.698  28.366  1.00  0.00    -0.346 OA
HETATM    9  O1  UNK     1      18.333   1.203  30.826  1.00  0.00    -0.346 OA
HETATM   10  C6  UNK     1      18.507   3.232  32.018  1.00  0.00     0.055 A 
HETATM   11  C3  UNK     1      18.645   0.606  29.564  1.00  0.00     0.202 C 
HETATM   12  C4  UNK     1      17.965   1.364  28.442  1.00  0.00     0.202 C 
ENDBRANCH   2   3
BRANCH   2  13
HETATM   13  C18 UNK     1      19.763   6.371  33.527  1.00  0.00     0.056 C 
HETATM   14  C16 UNK     1      19.422   7.665  33.610  1.00  0.00     0.015 C 
BRANCH  14  15
HETATM   15  C8  UNK     1      18.042   8.172  33.516  1.00  0.00    -0.033 A 
HETATM   16  C12 UNK     1      17.456   8.800  34.618  1.00  0.00     0.051 A 
HETATM   17  C7  UNK     1      16.163   9.258  34.482  1.00  0.00     0.105 A 
HETATM   18  O3  UNK     1      15.433   9.889  35.443  1.00  0.00    -0.323 OA
HETATM   19  C9  UNK     1      15.462   9.111  33.306  1.00  0.00     0.105 A 
HETATM   20  C17 UNK     1      14.196  10.124  34.739  1.00  0.00     0.352 A 
HETATM   21  O4  UNK     1      14.207   9.633  33.384  1.00  0.00    -0.323 OA
HETATM   22  C15 UNK     1      16.018   8.497  32.203  1.00  0.00     0.040 A 
HETATM   23  C14 UNK     1      17.327   8.022  32.315  1.00  0.00     0.014 A 
ENDBRANCH  14  15
ENDBRANCH   2  13
TORSDOF 3
ENDMDL
MODEL 9
REMARK VINA RESULT:      -8.5      2.716      7.729
REMARK  3 active torsions:
REMARK  status: ('A' for Active; 'I' for Inactive)
REMARK    1  A    between atoms: C13_18  and  C5_10 
REMARK    2  A    between atoms: C16_21  and  C8_13 
REMARK    3  A    between atoms: C13_18  and  C18_23 
ROOT
HETATM    1  O5  UNK     1      19.497   1.868  35.878  1.00  0.00    -0.288 OA
HETATM    2  C13 UNK     1      18.459   1.948  35.205  1.00  0.00     0.182 C 
ENDROOT
BRANCH   2   3
HETATM    3  C5  UNK     1      18.399   2.793  34.024  1.00  0.00     0.017 A 
HETATM    4  C11 UNK     1      18.278   2.216  32.759  1.00  0.00     0.018 A 
HETATM    5  C10 UNK     1      18.227   3.024  31.623  1.00  0.00     0.040 A 
HETATM    6  C2  UNK     1      18.299   4.411  31.754  1.00  0.00     0.102 A 
HETATM    7  C1  UNK     1      18.393   4.990  33.021  1.00  0.00     0.103 A 
HETATM    8  O2  UNK     1      18.265   5.150  30.600  1.00  0.00    -0.346 OA
HETATM    9  O1  UNK     1      18.435   6.346  33.217  1.00  0.00    -0.346 OA
HETATM   10  C6  UNK     1      18.459   4.181  34.156  1.00  0.00     0.055 A 
HETATM   11  C3  UNK     1      18.019   7.066  32.054  1.00  0.00     0.202 C 
HETATM   12  C4  UNK     1      18.688   6.499  30.818  1.00  0.00     0.202 C 
ENDBRANCH   2   3
BRANCH   2  13
HETATM   13  C18 UNK     1      17.245   1.142  35.576  1.00  0.00     0.056 C 
HETATM   14  C16 UNK     1      17.196  -0.174  35.327  1.00  0.00     0.015 C 
BRANCH  14  15
HETATM   15  C8  UNK     1      18.278  -0.943  34.686  1.00  0.00    -0.033 A 
HETATM   16  C12 UNK     1      18.384  -0.964  33.293  1.00  0.00     0.051 A 
HETATM   17  C7  UNK     1      19.413  -1.697  32.740  1.00  0.00     0.105 A 
HETATM   18  O3  UNK     1      19.671  -1.834  31.410  1.00  0.00    -0.323 OA
HETATM   19  C9  UNK     1      20.312  -2.387  33.521  1.00  0.00     0.105 A 
HETATM   20  C17 UNK     1      20.834  -2.687  31.442  1.00  0.00     0.352 A 
HETATM   21  O4  UNK     1      21.246  -3.042  32.778  1.00  0.00    -0.323 OA
HETATM   22  C15 UNK     1      20.230  -2.382  34.898  1.00  0.00     0.040 A 
HETATM   23  C14 UNK     1      19.196  -1.648  35.484  1.00  0.00     0.014 A 
ENDBRANCH  14  15
ENDBRANCH   2  13
TORSDOF 3
ENDMDL
MODEL 10
REMARK VINA RESULT:      -8.4     22.068     24.149
REMARK  3 active torsions:
REMARK  status: ('A' for Active; 'I' for Inactive)
REMARK    1  A    between atoms: C13_18  and  C5_10 
REMARK    2  A    between atoms: C16_21  and  C8_13 
REMARK    3  A    between atoms: C13_18  and  C18_23 
ROOT
HETATM    1  O5  UNK     1      16.472   6.605   9.563  1.00  0.00    -0.288 OA
HETATM    2  C13 UNK     1      15.384   6.920  10.067  1.00  0.00     0.182 C 
ENDROOT
BRANCH   2   3
HETATM    3  C5  UNK     1      14.131   6.540   9.435  1.00  0.00     0.017 A 
HETATM    4  C11 UNK     1      14.072   5.397   8.637  1.00  0.00     0.018 A 
HETATM    5  C10 UNK     1      12.873   5.033   8.024  1.00  0.00     0.040 A 
HETATM    6  C2  UNK     1      11.734   5.815   8.208  1.00  0.00     0.102 A 
HETATM    7  C1  UNK     1      11.785   6.944   9.029  1.00  0.00     0.103 A 
HETATM    8  O2  UNK     1      10.591   5.417   7.563  1.00  0.00    -0.346 OA
HETATM    9  O1  UNK     1      10.693   7.734   9.275  1.00  0.00    -0.346 OA
HETATM   10  C6  UNK     1      12.988   7.316   9.630  1.00  0.00     0.055 A 
HETATM   11  C3  UNK     1       9.473   7.086   8.908  1.00  0.00     0.202 C 
HETATM   12  C4  UNK     1       9.605   6.453   7.537  1.00  0.00     0.202 C 
ENDBRANCH   2   3
BRANCH   2  13
HETATM   13  C18 UNK     1      15.336   7.675  11.366  1.00  0.00     0.056 C 
HETATM   14  C16 UNK     1      15.635   8.982  11.408  1.00  0.00     0.015 C 
BRANCH  14  15
HETATM   15  C8  UNK     1      16.029   9.786  10.238  1.00  0.00    -0.033 A 
HETATM   16  C12 UNK     1      17.383   9.972   9.948  1.00  0.00     0.051 A 
HETATM   17  C7  UNK     1      17.703  10.732   8.843  1.00  0.00     0.105 A 
HETATM   18  O3  UNK     1      18.960  11.020   8.408  1.00  0.00    -0.323 OA
HETATM   19  C9  UNK     1      16.732  11.292   8.043  1.00  0.00     0.105 A 
HETATM   20  C17 UNK     1      18.672  11.824   7.245  1.00  0.00     0.352 A 
HETATM   21  O4  UNK     1      17.261  12.001   7.008  1.00  0.00    -0.323 OA
HETATM   22  C15 UNK     1      15.389  11.123   8.307  1.00  0.00     0.040 A 
HETATM   23  C14 UNK     1      15.037  10.359   9.422  1.00  0.00     0.014 A 
ENDBRANCH  14  15
ENDBRANCH   2  13
TORSDOF 3
ENDMDL
