MODEL 1
REMARK VINA RESULT:      -8.0      0.000      0.000
REMARK  3 active torsions:
REMARK  status: ('A' for Active; 'I' for Inactive)
REMARK    1  A    between atoms: C8_12  and  O2_2 
REMARK    2  A    between atoms: C10_14  and  O4_4 
REMARK    3  A    between atoms: C2_6  and  C5_9 
ROOT
HETATM    1  O1  UNK     1      14.349   5.014   8.889  1.00  0.00    -0.321 OA
HETATM    2  O3  UNK     1      12.532   8.627   8.348  1.00  0.00    -0.286 OA
HETATM    3  C1  UNK     1      14.425   7.432   9.076  1.00  0.00     0.052 A 
HETATM    4  C2  UNK     1      12.382   6.256   8.189  1.00  0.00     0.048 A 
HETATM    5  C3  UNK     1      15.000   6.171   9.228  1.00  0.00     0.092 A 
HETATM    6  C4  UNK     1      13.061   7.537   8.526  1.00  0.00     0.198 A 
HETATM    7  C6  UNK     1      15.138   8.578   9.438  1.00  0.00     0.058 A 
HETATM    8  C7  UNK     1      16.292   6.048   9.743  1.00  0.00     0.077 A 
HETATM    9  C8  UNK     1      16.429   8.453   9.954  1.00  0.00     0.102 A 
HETATM   10  C9  UNK     1      13.070   5.123   8.396  1.00  0.00     0.159 A 
HETATM   11  C10 UNK     1      17.005   7.191  10.105  1.00  0.00     0.101 A 
ENDROOT
BRANCH   4  12
HETATM   12  C5  UNK     1      11.006   6.217   7.669  1.00  0.00    -0.020 A 
HETATM   13  C11 UNK     1       9.929   6.116   8.550  1.00  0.00     0.012 A 
HETATM   14  C13 UNK     1       8.625   6.080   8.056  1.00  0.00     0.001 A 
HETATM   15  C15 UNK     1       8.397   6.145   6.681  1.00  0.00     0.000 A 
HETATM   16  C14 UNK     1       9.474   6.246   5.800  1.00  0.00     0.001 A 
HETATM   17  C12 UNK     1      10.778   6.283   6.293  1.00  0.00     0.012 A 
ENDBRANCH   4  12
BRANCH   9  18
HETATM   18  O2  UNK     1      17.120   9.573  10.304  1.00  0.00    -0.353 OA
HETATM   19  C16 UNK     1      17.499  10.456   9.250  1.00  0.00     0.210 C 
ENDBRANCH   9  18
BRANCH  11  20
HETATM   20  O4  UNK     1      18.265   7.061  10.607  1.00  0.00    -0.358 OA
HETATM   21  H9  UNK     1      18.356   7.634  11.387  1.00  0.00     0.217 HD
ENDBRANCH  11  20
TORSDOF 3
ENDMDL
MODEL 2
REMARK VINA RESULT:      -7.6     11.288     12.769
REMARK  3 active torsions:
REMARK  status: ('A' for Active; 'I' for Inactive)
REMARK    1  A    between atoms: C8_12  and  O2_2 
REMARK    2  A    between atoms: C10_14  and  O4_4 
REMARK    3  A    between atoms: C2_6  and  C5_9 
ROOT
HETATM    1  O1  UNK     1      19.500   1.259  15.138  1.00  0.00    -0.321 OA
HETATM    2  O3  UNK     1      18.452  -1.742  17.696  1.00  0.00    -0.286 OA
HETATM    3  C1  UNK     1      19.012   0.525  17.399  1.00  0.00     0.052 A 
HETATM    4  C2  UNK     1      18.970  -1.089  15.466  1.00  0.00     0.048 A 
HETATM    5  C3  UNK     1      19.358   1.513  16.478  1.00  0.00     0.092 A 
HETATM    6  C4  UNK     1      18.786  -0.852  16.924  1.00  0.00     0.198 A 
HETATM    7  C6  UNK     1      18.880   0.842  18.754  1.00  0.00     0.058 A 
HETATM    8  C7  UNK     1      19.573   2.824  16.905  1.00  0.00     0.077 A 
HETATM    9  C8  UNK     1      19.098   2.154  19.179  1.00  0.00     0.102 A 
HETATM   10  C9  UNK     1      19.307  -0.033  14.710  1.00  0.00     0.159 A 
HETATM   11  C10 UNK     1      19.443   3.143  18.256  1.00  0.00     0.101 A 
ENDROOT
BRANCH   4  12
HETATM   12  C5  UNK     1      18.812  -2.424  14.867  1.00  0.00    -0.020 A 
HETATM   13  C11 UNK     1      17.922  -3.340  15.429  1.00  0.00     0.012 A 
HETATM   14  C13 UNK     1      17.773  -4.605  14.861  1.00  0.00     0.001 A 
HETATM   15  C15 UNK     1      18.513  -4.955  13.731  1.00  0.00     0.000 A 
HETATM   16  C14 UNK     1      19.403  -4.039  13.170  1.00  0.00     0.001 A 
HETATM   17  C12 UNK     1      19.552  -2.774  13.737  1.00  0.00     0.012 A 
ENDBRANCH   4  12
BRANCH   9  18
HETATM   18  O2  UNK     1      18.966   2.459  20.500  1.00  0.00    -0.353 OA
HETATM   19  C16 UNK     1      19.995   2.001  21.375  1.00  0.00     0.210 C 
ENDBRANCH   9  18
BRANCH  11  20
HETATM   20  O4  UNK     1      19.654   4.425  18.664  1.00  0.00    -0.358 OA
HETATM   21  H9  UNK     1      18.836   4.772  19.058  1.00  0.00     0.217 HD
ENDBRANCH  11  20
TORSDOF 3
ENDMDL
MODEL 3
REMARK VINA RESULT:      -7.4     22.105     24.492
REMARK  3 active torsions:
REMARK  status: ('A' for Active; 'I' for Inactive)
REMARK    1  A    between atoms: C8_12  and  O2_2 
REMARK    2  A    between atoms: C10_14  and  O4_4 
REMARK    3  A    between atoms: C2_6  and  C5_9 
ROOT
HETATM    1  O1  UNK     1      18.786   4.982  29.671  1.00  0.00    -0.321 OA
HETATM    2  O3  UNK     1      18.283   4.531  33.696  1.00  0.00    -0.286 OA
HETATM    3  C1  UNK     1      18.569   3.514  31.592  1.00  0.00     0.052 A 
HETATM    4  C2  UNK     1      18.440   6.017  31.842  1.00  0.00     0.048 A 
HETATM    5  C3  UNK     1      18.749   3.729  30.226  1.00  0.00     0.092 A 
HETATM    6  C4  UNK     1      18.414   4.675  32.487  1.00  0.00     0.198 A 
HETATM    7  C6  UNK     1      18.541   2.213  32.101  1.00  0.00     0.058 A 
HETATM    8  C7  UNK     1      18.902   2.644  29.361  1.00  0.00     0.077 A 
HETATM    9  C8  UNK     1      18.693   1.130  31.233  1.00  0.00     0.102 A 
HETATM   10  C9  UNK     1      18.620   6.056  30.513  1.00  0.00     0.159 A 
HETATM   11  C10 UNK     1      18.874   1.345  29.867  1.00  0.00     0.101 A 
ENDROOT
BRANCH   4  12
HETATM   12  C5  UNK     1      18.258   7.256  32.615  1.00  0.00    -0.020 A 
HETATM   13  C11 UNK     1      17.080   7.992  32.487  1.00  0.00     0.012 A 
HETATM   14  C13 UNK     1      16.908   9.166  33.220  1.00  0.00     0.001 A 
HETATM   15  C15 UNK     1      17.914   9.605  34.081  1.00  0.00     0.000 A 
HETATM   16  C14 UNK     1      19.092   8.869  34.209  1.00  0.00     0.001 A 
HETATM   17  C12 UNK     1      19.264   7.695  33.477  1.00  0.00     0.012 A 
ENDBRANCH   4  12
BRANCH   9  18
HETATM   18  O2  UNK     1      18.666  -0.136  31.735  1.00  0.00    -0.353 OA
HETATM   19  C16 UNK     1      18.528  -0.270  33.148  1.00  0.00     0.210 C 
ENDBRANCH   9  18
BRANCH  11  20
HETATM   20  O4  UNK     1      19.025   0.292  29.015  1.00  0.00    -0.358 OA
HETATM   21  H9  UNK     1      19.973   0.112  28.899  1.00  0.00     0.217 HD
ENDBRANCH  11  20
TORSDOF 3
ENDMDL
MODEL 4
REMARK VINA RESULT:      -7.4      2.928      5.291
REMARK  3 active torsions:
REMARK  status: ('A' for Active; 'I' for Inactive)
REMARK    1  A    between atoms: C8_12  and  O2_2 
REMARK    2  A    between atoms: C10_14  and  O4_4 
REMARK    3  A    between atoms: C2_6  and  C5_9 
ROOT
HETATM    1  O1  UNK     1       9.198   6.459   7.254  1.00  0.00    -0.321 OA
HETATM    2  O3  UNK     1      10.009   4.379  10.670  1.00  0.00    -0.286 OA
HETATM    3  C1  UNK     1      10.826   5.420   8.723  1.00  0.00     0.052 A 
HETATM    4  C2  UNK     1       8.363   5.338   9.241  1.00  0.00     0.048 A 
HETATM    5  C3  UNK     1      10.491   6.138   7.576  1.00  0.00     0.092 A 
HETATM    6  C4  UNK     1       9.754   4.986   9.637  1.00  0.00     0.198 A 
HETATM    7  C6  UNK     1      12.163   5.123   9.000  1.00  0.00     0.058 A 
HETATM    8  C7  UNK     1      11.490   6.563   6.699  1.00  0.00     0.077 A 
HETATM    9  C8  UNK     1      13.161   5.548   8.121  1.00  0.00     0.102 A 
HETATM   10  C9  UNK     1       8.205   6.031   8.103  1.00  0.00     0.159 A 
HETATM   11  C10 UNK     1      12.825   6.267   6.973  1.00  0.00     0.101 A 
ENDROOT
BRANCH   4  12
HETATM   12  C5  UNK     1       7.198   4.931  10.044  1.00  0.00    -0.020 A 
HETATM   13  C11 UNK     1       6.602   5.840  10.919  1.00  0.00     0.012 A 
HETATM   14  C13 UNK     1       5.498   5.454  11.679  1.00  0.00     0.001 A 
HETATM   15  C15 UNK     1       4.990   4.160  11.564  1.00  0.00     0.000 A 
HETATM   16  C14 UNK     1       5.586   3.251  10.689  1.00  0.00     0.001 A 
HETATM   17  C12 UNK     1       6.689   3.637   9.929  1.00  0.00     0.012 A 
ENDBRANCH   4  12
BRANCH   9  18
HETATM   18  O2  UNK     1      14.462   5.256   8.397  1.00  0.00    -0.353 OA
HETATM   19  C16 UNK     1      14.797   5.015   9.762  1.00  0.00     0.210 C 
ENDBRANCH   9  18
BRANCH  11  20
HETATM   20  O4  UNK     1      13.794   6.686   6.112  1.00  0.00    -0.358 OA
HETATM   21  H9  UNK     1      13.749   6.152   5.301  1.00  0.00     0.217 HD
ENDBRANCH  11  20
TORSDOF 3
ENDMDL
MODEL 5
REMARK VINA RESULT:      -7.3     21.875     24.007
REMARK  3 active torsions:
REMARK  status: ('A' for Active; 'I' for Inactive)
REMARK    1  A    between atoms: C8_12  and  O2_2 
REMARK    2  A    between atoms: C10_14  and  O4_4 
REMARK    3  A    between atoms: C2_6  and  C5_9 
ROOT
HETATM    1  O1  UNK     1      18.157   2.971  33.485  1.00  0.00    -0.321 OA
HETATM    2  O3  UNK     1      18.791   4.130  29.624  1.00  0.00    -0.286 OA
HETATM    3  C1  UNK     1      18.161   4.729  31.812  1.00  0.00     0.052 A 
HETATM    4  C2  UNK     1      18.756   2.356  31.212  1.00  0.00     0.048 A 
HETATM    5  C3  UNK     1      17.970   4.278  33.118  1.00  0.00     0.092 A 
HETATM    6  C4  UNK     1      18.584   3.769  30.776  1.00  0.00     0.198 A 
HETATM    7  C6  UNK     1      17.957   6.075  31.496  1.00  0.00     0.058 A 
HETATM    8  C7  UNK     1      17.574   5.171  34.116  1.00  0.00     0.077 A 
HETATM    9  C8  UNK     1      17.560   6.965  32.495  1.00  0.00     0.102 A 
HETATM   10  C9  UNK     1      18.531   2.081  32.506  1.00  0.00     0.159 A 
HETATM   11  C10 UNK     1      17.370   6.514  33.802  1.00  0.00     0.101 A 
ENDROOT
BRANCH   4  12
HETATM   12  C5  UNK     1      19.137   1.291  30.271  1.00  0.00    -0.020 A 
HETATM   13  C11 UNK     1      18.457   1.154  29.060  1.00  0.00     0.012 A 
HETATM   14  C13 UNK     1      18.820   0.145  28.168  1.00  0.00     0.001 A 
HETATM   15  C15 UNK     1      19.860  -0.728  28.486  1.00  0.00     0.000 A 
HETATM   16  C14 UNK     1      20.539  -0.591  29.697  1.00  0.00     0.001 A 
HETATM   17  C12 UNK     1      20.179   0.419  30.589  1.00  0.00     0.012 A 
ENDBRANCH   4  12
BRANCH   9  18
HETATM   18  O2  UNK     1      17.364   8.276  32.182  1.00  0.00    -0.353 OA
HETATM   19  C16 UNK     1      16.036   8.669  31.842  1.00  0.00     0.210 C 
ENDBRANCH   9  18
BRANCH  11  20
HETATM   20  O4  UNK     1      16.984   7.378  34.782  1.00  0.00    -0.358 OA
HETATM   21  H9  UNK     1      17.587   7.288  35.539  1.00  0.00     0.217 HD
ENDBRANCH  11  20
TORSDOF 3
ENDMDL
MODEL 6
REMARK VINA RESULT:      -7.3      1.974      6.664
REMARK  3 active torsions:
REMARK  status: ('A' for Active; 'I' for Inactive)
REMARK    1  A    between atoms: C8_12  and  O2_2 
REMARK    2  A    between atoms: C10_14  and  O4_4 
REMARK    3  A    between atoms: C2_6  and  C5_9 
ROOT
HETATM    1  O1  UNK     1      14.928   6.781  10.939  1.00  0.00    -0.321 OA
HETATM    2  O3  UNK     1      14.611   9.649   8.052  1.00  0.00    -0.286 OA
HETATM    3  C1  UNK     1      14.021   7.497   8.805  1.00  0.00     0.052 A 
HETATM    4  C2  UNK     1      15.570   8.980  10.127  1.00  0.00     0.048 A 
HETATM    5  C3  UNK     1      14.157   6.559   9.828  1.00  0.00     0.092 A 
HETATM    6  C4  UNK     1      14.728   8.786   8.914  1.00  0.00     0.198 A 
HETATM    7  C6  UNK     1      13.220   7.215   7.695  1.00  0.00     0.058 A 
HETATM    8  C7  UNK     1      13.494   5.334   9.747  1.00  0.00     0.077 A 
HETATM    9  C8  UNK     1      12.558   5.989   7.616  1.00  0.00     0.102 A 
HETATM   10  C9  UNK     1      15.599   7.979  11.020  1.00  0.00     0.159 A 
HETATM   11  C10 UNK     1      12.694   5.051   8.639  1.00  0.00     0.101 A 
ENDROOT
BRANCH   4  12
HETATM   12  C5  UNK     1      16.358  10.204  10.341  1.00  0.00    -0.020 A 
HETATM   13  C11 UNK     1      15.805  11.277  11.040  1.00  0.00     0.012 A 
HETATM   14  C13 UNK     1      16.553  12.437  11.243  1.00  0.00     0.001 A 
HETATM   15  C15 UNK     1      17.854  12.524  10.747  1.00  0.00     0.000 A 
HETATM   16  C14 UNK     1      18.407  11.451  10.049  1.00  0.00     0.001 A 
HETATM   17  C12 UNK     1      17.660  10.290   9.846  1.00  0.00     0.012 A 
ENDBRANCH   4  12
BRANCH   9  18
HETATM   18  O2  UNK     1      11.778   5.720   6.532  1.00  0.00    -0.353 OA
HETATM   19  C16 UNK     1      10.937   6.772   6.062  1.00  0.00     0.210 C 
ENDBRANCH   9  18
BRANCH  11  20
HETATM   20  O4  UNK     1      12.050   3.852   8.569  1.00  0.00    -0.358 OA
HETATM   21  H9  UNK     1      11.235   3.899   9.098  1.00  0.00     0.217 HD
ENDBRANCH  11  20
TORSDOF 3
ENDMDL
MODEL 7
REMARK VINA RESULT:      -7.2     22.991     25.012
REMARK  3 active torsions:
REMARK  status: ('A' for Active; 'I' for Inactive)
REMARK    1  A    between atoms: C8_12  and  O2_2 
REMARK    2  A    between atoms: C10_14  and  O4_4 
REMARK    3  A    between atoms: C2_6  and  C5_9 
ROOT
HETATM    1  O1  UNK     1      16.689   8.213  34.991  1.00  0.00    -0.321 OA
HETATM    2  O3  UNK     1      15.942   8.271  30.980  1.00  0.00    -0.286 OA
HETATM    3  C1  UNK     1      15.454   9.132  33.115  1.00  0.00     0.052 A 
HETATM    4  C2  UNK     1      17.148   7.297  32.788  1.00  0.00     0.048 A 
HETATM    5  C3  UNK     1      15.758   9.076  34.475  1.00  0.00     0.092 A 
HETATM    6  C4  UNK     1      16.159   8.232  32.185  1.00  0.00     0.198 A 
HETATM    7  C6  UNK     1      14.495  10.034  32.646  1.00  0.00     0.058 A 
HETATM    8  C7  UNK     1      15.105   9.922  35.374  1.00  0.00     0.077 A 
HETATM    9  C8  UNK     1      13.843  10.878  33.547  1.00  0.00     0.102 A 
HETATM   10  C9  UNK     1      17.325   7.364  34.117  1.00  0.00     0.159 A 
HETATM   11  C10 UNK     1      14.148  10.822  34.907  1.00  0.00     0.101 A 
ENDROOT
BRANCH   4  12
HETATM   12  C5  UNK     1      17.892   6.320  31.977  1.00  0.00    -0.020 A 
HETATM   13  C11 UNK     1      18.793   6.761  31.008  1.00  0.00     0.012 A 
HETATM   14  C13 UNK     1      19.499   5.834  30.240  1.00  0.00     0.001 A 
HETATM   15  C15 UNK     1      19.303   4.468  30.441  1.00  0.00     0.000 A 
HETATM   16  C14 UNK     1      18.401   4.028  31.410  1.00  0.00     0.001 A 
HETATM   17  C12 UNK     1      17.696   4.953  32.178  1.00  0.00     0.012 A 
ENDBRANCH   4  12
BRANCH   9  18
HETATM   18  O2  UNK     1      12.911  11.757  33.084  1.00  0.00    -0.353 OA
HETATM   19  C16 UNK     1      13.393  12.942  32.454  1.00  0.00     0.210 C 
ENDBRANCH   9  18
BRANCH  11  20
HETATM   20  O4  UNK     1      13.517  11.645  35.792  1.00  0.00    -0.358 OA
HETATM   21  H9  UNK     1      12.803  11.151  36.230  1.00  0.00     0.217 HD
ENDBRANCH  11  20
TORSDOF 3
ENDMDL
MODEL 8
REMARK VINA RESULT:      -7.1     24.237     26.418
REMARK  3 active torsions:
REMARK  status: ('A' for Active; 'I' for Inactive)
REMARK    1  A    between atoms: C8_12  and  O2_2 
REMARK    2  A    between atoms: C10_14  and  O4_4 
REMARK    3  A    between atoms: C2_6  and  C5_9 
ROOT
HETATM    1  O1  UNK     1      20.152  -1.969  32.743  1.00  0.00    -0.321 OA
HETATM    2  O3  UNK     1      17.873   1.337  33.474  1.00  0.00    -0.286 OA
HETATM    3  C1  UNK     1      19.101   0.059  31.924  1.00  0.00     0.052 A 
HETATM    4  C2  UNK     1      18.925  -0.615  34.344  1.00  0.00     0.048 A 
HETATM    5  C3  UNK     1      19.865  -1.092  31.730  1.00  0.00     0.092 A 
HETATM    6  C4  UNK     1      18.573   0.353  33.268  1.00  0.00     0.198 A 
HETATM    7  C6  UNK     1      18.839   0.917  30.852  1.00  0.00     0.058 A 
HETATM    8  C7  UNK     1      20.371  -1.391  30.465  1.00  0.00     0.077 A 
HETATM    9  C8  UNK     1      19.347   0.615  29.587  1.00  0.00     0.102 A 
HETATM   10  C9  UNK     1      19.672  -1.674  33.997  1.00  0.00     0.159 A 
HETATM   11  C10 UNK     1      20.111  -0.536  29.394  1.00  0.00     0.101 A 
ENDROOT
BRANCH   4  12
HETATM   12  C5  UNK     1      18.495  -0.420  35.738  1.00  0.00    -0.020 A 
HETATM   13  C11 UNK     1      18.344  -1.520  36.582  1.00  0.00     0.012 A 
HETATM   14  C13 UNK     1      17.936  -1.334  37.903  1.00  0.00     0.001 A 
HETATM   15  C15 UNK     1      17.681  -0.049  38.381  1.00  0.00     0.000 A 
HETATM   16  C14 UNK     1      17.832   1.051  37.537  1.00  0.00     0.001 A 
HETATM   17  C12 UNK     1      18.240   0.867  36.216  1.00  0.00     0.012 A 
ENDBRANCH   4  12
BRANCH   9  18
HETATM   18  O2  UNK     1      19.087   1.454  28.546  1.00  0.00    -0.353 OA
HETATM   19  C16 UNK     1      17.835   2.136  28.560  1.00  0.00     0.210 C 
ENDBRANCH   9  18
BRANCH  11  20
HETATM   20  O4  UNK     1      20.609  -0.837  28.162  1.00  0.00    -0.358 OA
HETATM   21  H9  UNK     1      19.872  -1.054  27.567  1.00  0.00     0.217 HD
ENDBRANCH  11  20
TORSDOF 3
ENDMDL
MODEL 9
REMARK VINA RESULT:      -7.1     27.208     29.455
REMARK  3 active torsions:
REMARK  status: ('A' for Active; 'I' for Inactive)
REMARK    1  A    between atoms: C8_12  and  O2_2 
REMARK    2  A    between atoms: C10_14  and  O4_4 
REMARK    3  A    between atoms: C2_6  and  C5_9 
ROOT
HETATM    1  O1  UNK     1      18.512  -1.220  36.821  1.00  0.00    -0.321 OA
HETATM    2  O3  UNK     1      20.488  -3.701  34.254  1.00  0.00    -0.286 OA
HETATM    3  C1  UNK     1      19.289  -1.701  34.573  1.00  0.00     0.052 A 
HETATM    4  C2  UNK     1      19.706  -3.306  36.469  1.00  0.00     0.048 A 
HETATM    5  C3  UNK     1      18.634  -0.887  35.497  1.00  0.00     0.092 A 
HETATM    6  C4  UNK     1      19.880  -2.973  35.028  1.00  0.00     0.198 A 
HETATM    7  C6  UNK     1      19.384  -1.308  33.235  1.00  0.00     0.058 A 
HETATM    8  C7  UNK     1      18.072   0.324  35.089  1.00  0.00     0.077 A 
HETATM    9  C8  UNK     1      18.820  -0.098  32.829  1.00  0.00     0.102 A 
HETATM   10  C9  UNK     1      19.048  -2.418  37.229  1.00  0.00     0.159 A 
HETATM   11  C10 UNK     1      18.166   0.716  33.754  1.00  0.00     0.101 A 
ENDROOT
BRANCH   4  12
HETATM   12  C5  UNK     1      20.213  -4.562  37.044  1.00  0.00    -0.020 A 
HETATM   13  C11 UNK     1      21.400  -4.565  37.777  1.00  0.00     0.012 A 
HETATM   14  C13 UNK     1      21.879  -5.756  38.322  1.00  0.00     0.001 A 
HETATM   15  C15 UNK     1      21.173  -6.943  38.135  1.00  0.00     0.000 A 
HETATM   16  C14 UNK     1      19.986  -6.940  37.402  1.00  0.00     0.001 A 
HETATM   17  C12 UNK     1      19.506  -5.750  36.857  1.00  0.00     0.012 A 
ENDBRANCH   4  12
BRANCH   9  18
HETATM   18  O2  UNK     1      18.917   0.280  31.524  1.00  0.00    -0.353 OA
HETATM   19  C16 UNK     1      20.101  -0.100  30.826  1.00  0.00     0.210 C 
ENDBRANCH   9  18
BRANCH  11  20
HETATM   20  O4  UNK     1      17.614   1.900  33.365  1.00  0.00    -0.358 OA
HETATM   21  H9  UNK     1      16.807   2.059  33.883  1.00  0.00     0.217 HD
ENDBRANCH  11  20
TORSDOF 3
ENDMDL
MODEL 10
REMARK VINA RESULT:      -7.1     23.823     26.061
REMARK  3 active torsions:
REMARK  status: ('A' for Active; 'I' for Inactive)
REMARK    1  A    between atoms: C8_12  and  O2_2 
REMARK    2  A    between atoms: C10_14  and  O4_4 
REMARK    3  A    between atoms: C2_6  and  C5_9 
ROOT
HETATM    1  O1  UNK     1      18.688   4.401  33.869  1.00  0.00    -0.321 OA
HETATM    2  O3  UNK     1      18.118   0.459  32.979  1.00  0.00    -0.286 OA
HETATM    3  C1  UNK     1      18.405   2.662  32.200  1.00  0.00     0.052 A 
HETATM    4  C2  UNK     1      18.341   2.131  34.661  1.00  0.00     0.048 A 
HETATM    5  C3  UNK     1      18.609   3.993  32.563  1.00  0.00     0.092 A 
HETATM    6  C4  UNK     1      18.269   1.643  33.256  1.00  0.00     0.198 A 
HETATM    7  C6  UNK     1      18.334   2.305  30.851  1.00  0.00     0.058 A 
HETATM    8  C7  UNK     1      18.745   4.974  31.579  1.00  0.00     0.077 A 
HETATM    9  C8  UNK     1      18.468   3.288  29.869  1.00  0.00     0.102 A 
HETATM   10  C9  UNK     1      18.540   3.445  34.845  1.00  0.00     0.159 A 
HETATM   11  C10 UNK     1      18.674   4.619  30.232  1.00  0.00     0.101 A 
ENDROOT
BRANCH   4  12
HETATM   12  C5  UNK     1      18.182   1.224  35.809  1.00  0.00    -0.020 A 
HETATM   13  C11 UNK     1      17.668   1.706  37.013  1.00  0.00     0.012 A 
HETATM   14  C13 UNK     1      17.517   0.846  38.101  1.00  0.00     0.001 A 
HETATM   15  C15 UNK     1      17.880  -0.495  37.986  1.00  0.00     0.000 A 
HETATM   16  C14 UNK     1      18.395  -0.977  36.782  1.00  0.00     0.001 A 
HETATM   17  C12 UNK     1      18.545  -0.118  35.694  1.00  0.00     0.012 A 
ENDBRANCH   4  12
BRANCH   9  18
HETATM   18  O2  UNK     1      18.400   2.933  28.555  1.00  0.00    -0.353 OA
HETATM   19  C16 UNK     1      17.874   1.641  28.260  1.00  0.00     0.210 C 
ENDBRANCH   9  18
BRANCH  11  20
HETATM   20  O4  UNK     1      18.808   5.583  29.279  1.00  0.00    -0.358 OA
HETATM   21  H9  UNK     1      19.011   5.161  28.427  1.00  0.00     0.217 HD
ENDBRANCH  11  20
TORSDOF 3
ENDMDL
