MODEL 1
REMARK VINA RESULT:      -7.0      0.000      0.000
REMARK  2 active torsions:
REMARK  status: ('A' for Active; 'I' for Inactive)
REMARK    1  A    between atoms: C4_9  and  O2_3 
REMARK    2  A    between atoms: C7_12  and  O3_4 
ROOT
HETATM    1 Cl1  UNK     1      20.696  -2.713  30.154  1.00  0.00    -0.077 Cl
HETATM    2  O1  UNK     1      19.508   1.031  29.505  1.00  0.00    -0.273 OA
HETATM    3  O4  UNK     1      20.432  -0.586  28.202  1.00  0.00    -0.258 OA
HETATM    4  C1  UNK     1      19.055   0.600  31.861  1.00  0.00     0.039 A 
HETATM    5  C2  UNK     1      19.032   1.452  30.759  1.00  0.00     0.095 A 
HETATM    6  C3  UNK     1      19.591  -0.767  31.699  1.00  0.00    -0.018 A 
HETATM    7  C4  UNK     1      18.559   1.107  33.073  1.00  0.00     0.084 A 
HETATM    8  C5  UNK     1      18.542   2.758  30.828  1.00  0.00     0.075 A 
HETATM    9  C6  UNK     1      18.065   2.414  33.160  1.00  0.00     0.074 A 
HETATM   10  C7  UNK     1      18.056   3.239  32.039  1.00  0.00     0.073 A 
HETATM   11  C8  UNK     1      20.040  -1.139  30.485  1.00  0.00     0.116 A 
HETATM   12  C9  UNK     1      19.622  -1.700  32.887  1.00  0.00     0.051 C 
HETATM   13  C10 UNK     1      20.020  -0.242  29.305  1.00  0.00     0.310 A 
ENDROOT
BRANCH   7  14
HETATM   14  O2  UNK     1      18.518   0.391  34.233  1.00  0.00    -0.355 OA
HETATM   15  C11 UNK     1      18.763   1.105  35.442  1.00  0.00     0.210 C 
ENDBRANCH   7  14
BRANCH  10  16
HETATM   16  O3  UNK     1      17.575   4.508  32.128  1.00  0.00    -0.356 OA
HETATM   17  C12 UNK     1      18.000   5.286  33.247  1.00  0.00     0.210 C 
ENDBRANCH  10  16
TORSDOF 2
ENDMDL
MODEL 2
REMARK VINA RESULT:      -6.7      1.845      3.610
REMARK  2 active torsions:
REMARK  status: ('A' for Active; 'I' for Inactive)
REMARK    1  A    between atoms: C4_9  and  O2_3 
REMARK    2  A    between atoms: C7_12  and  O3_4 
ROOT
HETATM    1 Cl1  UNK     1      20.517  -0.571  28.950  1.00  0.00    -0.077 Cl
HETATM    2  O1  UNK     1      19.709  -1.889  32.619  1.00  0.00    -0.273 OA
HETATM    3  O4  UNK     1      20.745  -2.786  30.806  1.00  0.00    -0.258 OA
HETATM    4  C1  UNK     1      18.810   0.376  32.525  1.00  0.00     0.039 A 
HETATM    5  C2  UNK     1      19.041  -0.808  33.222  1.00  0.00     0.095 A 
HETATM    6  C3  UNK     1      19.279   0.487  31.128  1.00  0.00    -0.018 A 
HETATM    7  C4  UNK     1      18.136   1.400  33.207  1.00  0.00     0.084 A 
HETATM    8  C5  UNK     1      18.630  -0.994  34.544  1.00  0.00     0.075 A 
HETATM    9  C6  UNK     1      17.717   1.231  34.533  1.00  0.00     0.074 A 
HETATM   10  C7  UNK     1      17.964   0.035  35.201  1.00  0.00     0.073 A 
HETATM   11  C8  UNK     1      19.915  -0.565  30.580  1.00  0.00     0.116 A 
HETATM   12  C9  UNK     1      19.034   1.766  30.361  1.00  0.00     0.051 C 
HETATM   13  C10 UNK     1      20.167  -1.830  31.312  1.00  0.00     0.310 A 
ENDROOT
BRANCH   7  14
HETATM   14  O2  UNK     1      17.840   2.612  32.655  1.00  0.00    -0.355 OA
HETATM   15  C11 UNK     1      18.223   3.769  33.393  1.00  0.00     0.210 C 
ENDBRANCH   7  14
BRANCH  10  16
HETATM   16  O3  UNK     1      17.555  -0.126  36.488  1.00  0.00    -0.356 OA
HETATM   17  C12 UNK     1      17.234   1.056  37.220  1.00  0.00     0.210 C 
ENDBRANCH  10  16
TORSDOF 2
ENDMDL
MODEL 3
REMARK VINA RESULT:      -6.6     22.945     24.645
REMARK  2 active torsions:
REMARK  status: ('A' for Active; 'I' for Inactive)
REMARK    1  A    between atoms: C4_9  and  O2_3 
REMARK    2  A    between atoms: C7_12  and  O3_4 
ROOT
HETATM    1 Cl1  UNK     1      16.920   7.263  10.769  1.00  0.00    -0.077 Cl
HETATM    2  O1  UNK     1      14.380   5.061   8.637  1.00  0.00    -0.273 OA
HETATM    3  O4  UNK     1      16.498   4.745   9.397  1.00  0.00    -0.258 OA
HETATM    4  C1  UNK     1      13.201   7.141   9.114  1.00  0.00     0.039 A 
HETATM    5  C2  UNK     1      13.239   5.876   8.532  1.00  0.00     0.095 A 
HETATM    6  C3  UNK     1      14.386   7.625   9.852  1.00  0.00    -0.018 A 
HETATM    7  C4  UNK     1      12.020   7.884   8.957  1.00  0.00     0.084 A 
HETATM    8  C5  UNK     1      12.162   5.345   7.817  1.00  0.00     0.075 A 
HETATM    9  C6  UNK     1      10.932   7.367   8.244  1.00  0.00     0.074 A 
HETATM   10  C7  UNK     1      11.002   6.098   7.675  1.00  0.00     0.073 A 
HETATM   11  C8  UNK     1      15.462   6.821   9.935  1.00  0.00     0.116 A 
HETATM   12  C9  UNK     1      14.357   8.996  10.488  1.00  0.00     0.051 C 
HETATM   13  C10 UNK     1      15.514   5.472   9.320  1.00  0.00     0.310 A 
ENDROOT
BRANCH   7  14
HETATM   14  O2  UNK     1      11.838   9.134   9.470  1.00  0.00    -0.355 OA
HETATM   15  C11 UNK     1      10.518   9.476   9.885  1.00  0.00     0.210 C 
ENDBRANCH   7  14
BRANCH  10  16
HETATM   16  O3  UNK     1       9.943   5.600   6.983  1.00  0.00    -0.356 OA
HETATM   17  C12 UNK     1       9.668   6.181   5.708  1.00  0.00     0.210 C 
ENDBRANCH  10  16
TORSDOF 2
ENDMDL
MODEL 4
REMARK VINA RESULT:      -6.6      2.208      4.789
REMARK  2 active torsions:
REMARK  status: ('A' for Active; 'I' for Inactive)
REMARK    1  A    between atoms: C4_9  and  O2_3 
REMARK    2  A    between atoms: C7_12  and  O3_4 
ROOT
HETATM    1 Cl1  UNK     1      18.669   3.904  29.337  1.00  0.00    -0.077 Cl
HETATM    2  O1  UNK     1      17.930   2.655  33.045  1.00  0.00    -0.273 OA
HETATM    3  O4  UNK     1      17.672   4.635  31.960  1.00  0.00    -0.258 OA
HETATM    4  C1  UNK     1      18.849   0.723  31.875  1.00  0.00     0.039 A 
HETATM    5  C2  UNK     1      18.333   1.308  33.030  1.00  0.00     0.095 A 
HETATM    6  C3  UNK     1      18.972   1.543  30.652  1.00  0.00    -0.018 A 
HETATM    7  C4  UNK     1      19.225  -0.626  31.953  1.00  0.00     0.084 A 
HETATM    8  C5  UNK     1      18.184   0.604  34.227  1.00  0.00     0.075 A 
HETATM    9  C6  UNK     1      19.083  -1.348  33.145  1.00  0.00     0.074 A 
HETATM   10  C7  UNK     1      18.562  -0.733  34.281  1.00  0.00     0.073 A 
HETATM   11  C8  UNK     1      18.579   2.829  30.699  1.00  0.00     0.116 A 
HETATM   12  C9  UNK     1      19.532   0.921  29.393  1.00  0.00     0.051 C 
HETATM   13  C10 UNK     1      18.027   3.462  31.922  1.00  0.00     0.310 A 
ENDROOT
BRANCH   7  14
HETATM   14  O2  UNK     1      19.745  -1.330  30.907  1.00  0.00    -0.355 OA
HETATM   15  C11 UNK     1      20.582  -2.438  31.226  1.00  0.00     0.210 C 
ENDBRANCH   7  14
BRANCH  10  16
HETATM   16  O3  UNK     1      18.426  -1.437  35.437  1.00  0.00    -0.356 OA
HETATM   17  C12 UNK     1      18.102  -0.696  36.613  1.00  0.00     0.210 C 
ENDBRANCH  10  16
TORSDOF 2
ENDMDL
MODEL 5
REMARK VINA RESULT:      -6.5      2.047      3.385
REMARK  2 active torsions:
REMARK  status: ('A' for Active; 'I' for Inactive)
REMARK    1  A    between atoms: C4_9  and  O2_3 
REMARK    2  A    between atoms: C7_12  and  O3_4 
ROOT
HETATM    1 Cl1  UNK     1      20.014   0.068  28.931  1.00  0.00    -0.077 Cl
HETATM    2  O1  UNK     1      18.297   2.090  31.900  1.00  0.00    -0.273 OA
HETATM    3  O4  UNK     1      18.711   2.537  29.711  1.00  0.00    -0.258 OA
HETATM    4  C1  UNK     1      18.967  -0.047  32.865  1.00  0.00     0.039 A 
HETATM    5  C2  UNK     1      18.379   1.210  32.994  1.00  0.00     0.095 A 
HETATM    6  C3  UNK     1      19.511  -0.452  31.553  1.00  0.00    -0.018 A 
HETATM    7  C4  UNK     1      19.005  -0.856  34.011  1.00  0.00     0.084 A 
HETATM    8  C5  UNK     1      17.842   1.669  34.199  1.00  0.00     0.075 A 
HETATM    9  C6  UNK     1      18.472  -0.412  35.227  1.00  0.00     0.074 A 
HETATM   10  C7  UNK     1      17.890   0.849  35.321  1.00  0.00     0.073 A 
HETATM   11  C8  UNK     1      19.416   0.413  30.525  1.00  0.00     0.116 A 
HETATM   12  C9  UNK     1      20.151  -1.812  31.400  1.00  0.00     0.051 C 
HETATM   13  C10 UNK     1      18.792   1.753  30.650  1.00  0.00     0.310 A 
ENDROOT
BRANCH   7  14
HETATM   14  O2  UNK     1      19.548  -2.107  34.036  1.00  0.00    -0.355 OA
HETATM   15  C11 UNK     1      20.107  -2.543  35.273  1.00  0.00     0.210 C 
ENDBRANCH   7  14
BRANCH  10  16
HETATM   16  O3  UNK     1      17.374   1.277  36.504  1.00  0.00    -0.356 OA
HETATM   17  C12 UNK     1      17.541   0.421  37.634  1.00  0.00     0.210 C 
ENDBRANCH  10  16
TORSDOF 2
ENDMDL
MODEL 6
REMARK VINA RESULT:      -6.5      2.293      4.523
REMARK  2 active torsions:
REMARK  status: ('A' for Active; 'I' for Inactive)
REMARK    1  A    between atoms: C4_9  and  O2_3 
REMARK    2  A    between atoms: C7_12  and  O3_4 
ROOT
HETATM    1 Cl1  UNK     1      18.549  -1.119  36.030  1.00  0.00    -0.077 Cl
HETATM    2  O1  UNK     1      18.274   2.793  35.346  1.00  0.00    -0.273 OA
HETATM    3  O4  UNK     1      18.329   1.514  37.223  1.00  0.00    -0.258 OA
HETATM    4  C1  UNK     1      18.395   1.751  33.145  1.00  0.00     0.039 A 
HETATM    5  C2  UNK     1      18.294   2.889  33.943  1.00  0.00     0.095 A 
HETATM    6  C3  UNK     1      18.480   0.427  33.794  1.00  0.00    -0.018 A 
HETATM    7  C4  UNK     1      18.408   1.944  31.755  1.00  0.00     0.084 A 
HETATM    8  C5  UNK     1      18.209   4.177  33.409  1.00  0.00     0.075 A 
HETATM    9  C6  UNK     1      18.323   3.228  31.202  1.00  0.00     0.074 A 
HETATM   10  C7  UNK     1      18.225   4.343  32.029  1.00  0.00     0.073 A 
HETATM   11  C8  UNK     1      18.458   0.369  35.139  1.00  0.00     0.116 A 
HETATM   12  C9  UNK     1      18.589  -0.815  32.939  1.00  0.00     0.051 C 
HETATM   13  C10 UNK     1      18.351   1.573  35.998  1.00  0.00     0.310 A 
ENDROOT
BRANCH   7  14
HETATM   14  O2  UNK     1      18.502   0.927  30.850  1.00  0.00    -0.355 OA
HETATM   15  C11 UNK     1      19.062   1.243  29.578  1.00  0.00     0.210 C 
ENDBRANCH   7  14
BRANCH  10  16
HETATM   16  O3  UNK     1      18.142   5.589  31.489  1.00  0.00    -0.356 OA
HETATM   17  C12 UNK     1      18.963   5.860  30.353  1.00  0.00     0.210 C 
ENDBRANCH  10  16
TORSDOF 2
ENDMDL
MODEL 7
REMARK VINA RESULT:      -6.5      2.724      5.145
REMARK  2 active torsions:
REMARK  status: ('A' for Active; 'I' for Inactive)
REMARK    1  A    between atoms: C4_9  and  O2_3 
REMARK    2  A    between atoms: C7_12  and  O3_4 
ROOT
HETATM    1 Cl1  UNK     1      17.830   5.970  34.012  1.00  0.00    -0.077 Cl
HETATM    2  O1  UNK     1      18.526   4.494  30.381  1.00  0.00    -0.273 OA
HETATM    3  O4  UNK     1      18.126   6.578  31.193  1.00  0.00    -0.258 OA
HETATM    4  C1  UNK     1      18.587   2.578  31.888  1.00  0.00     0.039 A 
HETATM    5  C2  UNK     1      18.685   3.115  30.606  1.00  0.00     0.095 A 
HETATM    6  C3  UNK     1      18.308   3.482  33.023  1.00  0.00    -0.018 A 
HETATM    7  C4  UNK     1      18.760   1.192  32.017  1.00  0.00     0.084 A 
HETATM    8  C5  UNK     1      18.946   2.330  29.481  1.00  0.00     0.075 A 
HETATM    9  C6  UNK     1      19.021   0.389  30.899  1.00  0.00     0.074 A 
HETATM   10  C7  UNK     1      19.115   0.958  29.632  1.00  0.00     0.073 A 
HETATM   11  C8  UNK     1      18.160   4.797  32.774  1.00  0.00     0.116 A 
HETATM   12  C9  UNK     1      18.198   2.912  34.418  1.00  0.00     0.051 C 
HETATM   13  C10 UNK     1      18.264   5.380  31.414  1.00  0.00     0.310 A 
ENDROOT
BRANCH   7  14
HETATM   14  O2  UNK     1      18.691   0.527  33.206  1.00  0.00    -0.355 OA
HETATM   15  C11 UNK     1      18.636  -0.896  33.149  1.00  0.00     0.210 C 
ENDBRANCH   7  14
BRANCH  10  16
HETATM   16  O3  UNK     1      19.368   0.176  28.549  1.00  0.00    -0.356 OA
HETATM   17  C12 UNK     1      20.192  -0.971  28.755  1.00  0.00     0.210 C 
ENDBRANCH  10  16
TORSDOF 2
ENDMDL
MODEL 8
REMARK VINA RESULT:      -6.4     13.158     15.389
REMARK  2 active torsions:
REMARK  status: ('A' for Active; 'I' for Inactive)
REMARK    1  A    between atoms: C4_9  and  O2_3 
REMARK    2  A    between atoms: C7_12  and  O3_4 
ROOT
HETATM    1 Cl1  UNK     1      25.293  -7.830  38.722  1.00  0.00    -0.077 Cl
HETATM    2  O1  UNK     1      28.248  -5.164  38.611  1.00  0.00    -0.273 OA
HETATM    3  O4  UNK     1      25.988  -5.017  38.794  1.00  0.00    -0.258 OA
HETATM    4  C1  UNK     1      29.326  -7.344  38.428  1.00  0.00     0.039 A 
HETATM    5  C2  UNK     1      29.405  -5.953  38.484  1.00  0.00     0.095 A 
HETATM    6  C3  UNK     1      27.999  -7.989  38.503  1.00  0.00    -0.018 A 
HETATM    7  C4  UNK     1      30.533  -8.049  38.301  1.00  0.00     0.084 A 
HETATM    8  C5  UNK     1      30.619  -5.267  38.420  1.00  0.00     0.075 A 
HETATM    9  C6  UNK     1      31.759  -7.376  38.234  1.00  0.00     0.074 A 
HETATM   10  C7  UNK     1      31.802  -5.986  38.294  1.00  0.00     0.073 A 
HETATM   11  C8  UNK     1      26.911  -7.205  38.624  1.00  0.00     0.116 A 
HETATM   12  C9  UNK     1      27.900  -9.496  38.443  1.00  0.00     0.051 C 
HETATM   13  C10 UNK     1      26.983  -5.725  38.686  1.00  0.00     0.310 A 
ENDROOT
BRANCH   7  14
HETATM   14  O2  UNK     1      30.611  -9.409  38.233  1.00  0.00    -0.355 OA
HETATM   15  C11 UNK     1      31.371  -9.960  37.160  1.00  0.00     0.210 C 
ENDBRANCH   7  14
BRANCH  10  16
HETATM   16  O3  UNK     1      32.995  -5.336  38.228  1.00  0.00    -0.356 OA
HETATM   17  C12 UNK     1      34.079  -6.029  37.609  1.00  0.00     0.210 C 
ENDBRANCH  10  16
TORSDOF 2
ENDMDL
MODEL 9
REMARK VINA RESULT:      -6.3     23.384     25.120
REMARK  2 active torsions:
REMARK  status: ('A' for Active; 'I' for Inactive)
REMARK    1  A    between atoms: C4_9  and  O2_3 
REMARK    2  A    between atoms: C7_12  and  O3_4 
ROOT
HETATM    1 Cl1  UNK     1       7.384   7.717   8.758  1.00  0.00    -0.077 Cl
HETATM    2  O1  UNK     1      10.430   5.297   7.911  1.00  0.00    -0.273 OA
HETATM    3  O4  UNK     1       8.179   5.168   7.628  1.00  0.00    -0.258 OA
HETATM    4  C1  UNK     1      11.428   7.267   8.944  1.00  0.00     0.039 A 
HETATM    5  C2  UNK     1      11.556   6.008   8.360  1.00  0.00     0.095 A 
HETATM    6  C3  UNK     1      10.080   7.855   9.089  1.00  0.00    -0.018 A 
HETATM    7  C4  UNK     1      12.607   7.903   9.363  1.00  0.00     0.084 A 
HETATM    8  C5  UNK     1      12.794   5.384   8.187  1.00  0.00     0.075 A 
HETATM    9  C6  UNK     1      13.855   7.290   9.197  1.00  0.00     0.074 A 
HETATM   10  C7  UNK     1      13.949   6.032   8.609  1.00  0.00     0.073 A 
HETATM   11  C8  UNK     1       9.022   7.148   8.649  1.00  0.00     0.116 A 
HETATM   12  C9  UNK     1       9.927   9.219   9.721  1.00  0.00     0.051 C 
HETATM   13  C10 UNK     1       9.147   5.808   8.025  1.00  0.00     0.310 A 
ENDROOT
BRANCH   7  14
HETATM   14  O2  UNK     1      12.637   9.134   9.950  1.00  0.00    -0.355 OA
HETATM   15  C11 UNK     1      13.395   9.259  11.150  1.00  0.00     0.210 C 
ENDBRANCH   7  14
BRANCH  10  16
HETATM   16  O3  UNK     1      15.163   5.440   8.450  1.00  0.00    -0.356 OA
HETATM   17  C12 UNK     1      16.058   5.485   9.561  1.00  0.00     0.210 C 
ENDBRANCH  10  16
TORSDOF 2
ENDMDL
MODEL 10
REMARK VINA RESULT:      -6.3     30.769     32.758
REMARK  2 active torsions:
REMARK  status: ('A' for Active; 'I' for Inactive)
REMARK    1  A    between atoms: C4_9  and  O2_3 
REMARK    2  A    between atoms: C7_12  and  O3_4 
ROOT
HETATM    1 Cl1  UNK     1      44.522   2.216  17.323  1.00  0.00    -0.077 Cl
HETATM    2  O1  UNK     1      48.015   3.028  19.053  1.00  0.00    -0.273 OA
HETATM    3  O4  UNK     1      46.404   1.462  19.395  1.00  0.00    -0.258 OA
HETATM    4  C1  UNK     1      47.759   4.687  17.284  1.00  0.00     0.039 A 
HETATM    5  C2  UNK     1      48.492   4.139  18.335  1.00  0.00     0.095 A 
HETATM    6  C3  UNK     1      46.459   4.083  16.927  1.00  0.00    -0.018 A 
HETATM    7  C4  UNK     1      48.315   5.795  16.625  1.00  0.00     0.084 A 
HETATM    8  C5  UNK     1      49.729   4.649  18.735  1.00  0.00     0.075 A 
HETATM    9  C6  UNK     1      49.553   6.320  17.014  1.00  0.00     0.074 A 
HETATM   10  C7  UNK     1      50.260   5.747  18.068  1.00  0.00     0.073 A 
HETATM   11  C8  UNK     1      46.029   3.021  17.634  1.00  0.00     0.116 A 
HETATM   12  C9  UNK     1      45.654   4.669  15.790  1.00  0.00     0.051 C 
HETATM   13  C10 UNK     1      46.801   2.429  18.754  1.00  0.00     0.310 A 
ENDROOT
BRANCH   7  14
HETATM   14  O2  UNK     1      47.713   6.435  15.582  1.00  0.00    -0.355 OA
HETATM   15  C11 UNK     1      48.567   6.973  14.576  1.00  0.00     0.210 C 
ENDBRANCH   7  14
BRANCH  10  16
HETATM   16  O3  UNK     1      51.463   6.260  18.442  1.00  0.00    -0.356 OA
HETATM   17  C12 UNK     1      51.453   7.261  19.460  1.00  0.00     0.210 C 
ENDBRANCH  10  16
TORSDOF 2
ENDMDL
