MODEL 1
REMARK VINA RESULT:      -8.6      0.000      0.000
REMARK  4 active torsions:
REMARK  status: ('A' for Active; 'I' for Inactive)
REMARK    1  A    between atoms: C5_10  and  O2_2 
REMARK    2  A    between atoms: C9_14  and  O3_3 
REMARK    3  A    between atoms: C15_20  and  O5_5 
REMARK    4  A    between atoms: C3_8  and  C4_9 
ROOT
HETATM    1  O1  UNK     1      19.490   1.377  31.303  1.00  0.00    -0.306 OA
HETATM    2  O4  UNK     1      18.868  -0.070  27.544  1.00  0.00    -0.284 OA
HETATM    3  C1  UNK     1      19.629  -0.475  29.739  1.00  0.00     0.051 A 
HETATM    4  C2  UNK     1      19.819   0.080  31.003  1.00  0.00     0.093 A 
HETATM    5  C3  UNK     1      18.936   2.166  30.307  1.00  0.00     0.123 A 
HETATM    6  C5  UNK     1      18.711   1.756  29.045  1.00  0.00     0.152 A 
HETATM    7  C6  UNK     1      19.053   0.362  28.675  1.00  0.00     0.220 A 
HETATM    8  C7  UNK     1      20.366  -0.691  32.029  1.00  0.00     0.075 A 
HETATM    9  C8  UNK     1      19.984  -1.803  29.492  1.00  0.00     0.021 A 
HETATM   10  C9  UNK     1      20.721  -2.018  31.785  1.00  0.00     0.070 A 
HETATM   11  C10 UNK     1      20.530  -2.573  30.519  1.00  0.00     0.038 A 
ENDROOT
BRANCH   5  12
HETATM   12  C4  UNK     1      18.632   3.535  30.761  1.00  0.00     0.001 A 
HETATM   13  C11 UNK     1      17.894   3.735  31.929  1.00  0.00     0.017 A 
HETATM   14  C13 UNK     1      17.605   5.031  32.358  1.00  0.00     0.037 A 
HETATM   15  C15 UNK     1      18.054   6.126  31.621  1.00  0.00     0.068 A 
HETATM   16  C14 UNK     1      18.792   5.926  30.453  1.00  0.00     0.037 A 
HETATM   17  C12 UNK     1      19.080   4.631  30.024  1.00  0.00     0.017 A 
BRANCH  15  18
HETATM   18  O5  UNK     1      17.772   7.389  32.039  1.00  0.00    -0.356 OA
HETATM   19  C17 UNK     1      16.536   7.957  31.607  1.00  0.00     0.210 C 
ENDBRANCH  15  18
ENDBRANCH   5  12
BRANCH   6  20
HETATM   20  O2  UNK     1      18.188   2.576  28.069  1.00  0.00    -0.355 OA
HETATM   21  H8  UNK     1      17.421   2.149  27.656  1.00  0.00     0.218 HD
ENDBRANCH   6  20
BRANCH  10  22
HETATM   22  O3  UNK     1      21.255  -2.774  32.784  1.00  0.00    -0.356 OA
HETATM   23  C16 UNK     1      20.570  -2.774  34.035  1.00  0.00     0.210 C 
ENDBRANCH  10  22
TORSDOF 4
ENDMDL
MODEL 2
REMARK VINA RESULT:      -8.1      3.190      9.376
REMARK  4 active torsions:
REMARK  status: ('A' for Active; 'I' for Inactive)
REMARK    1  A    between atoms: C5_10  and  O2_2 
REMARK    2  A    between atoms: C9_14  and  O3_3 
REMARK    3  A    between atoms: C15_20  and  O5_5 
REMARK    4  A    between atoms: C3_8  and  C4_9 
ROOT
HETATM    1  O1  UNK     1      16.876   7.370  32.193  1.00  0.00    -0.306 OA
HETATM    2  O4  UNK     1      19.634   9.277  34.508  1.00  0.00    -0.284 OA
HETATM    3  C1  UNK     1      17.451   9.250  33.617  1.00  0.00     0.051 A 
HETATM    4  C2  UNK     1      16.554   8.551  32.812  1.00  0.00     0.093 A 
HETATM    5  C3  UNK     1      18.144   6.846  32.386  1.00  0.00     0.123 A 
HETATM    6  C5  UNK     1      19.104   7.426  33.130  1.00  0.00     0.152 A 
HETATM    7  C6  UNK     1      18.802   8.705  33.816  1.00  0.00     0.220 A 
HETATM    8  C7  UNK     1      15.268   9.048  32.605  1.00  0.00     0.075 A 
HETATM    9  C8  UNK     1      17.067  10.449  34.222  1.00  0.00     0.021 A 
HETATM   10  C9  UNK     1      14.882  10.245  33.208  1.00  0.00     0.070 A 
HETATM   11  C10 UNK     1      15.780  10.944  34.015  1.00  0.00     0.038 A 
ENDROOT
BRANCH   5  12
HETATM   12  C4  UNK     1      18.357   5.578  31.665  1.00  0.00     0.001 A 
HETATM   13  C11 UNK     1      18.032   4.366  32.274  1.00  0.00     0.017 A 
HETATM   14  C13 UNK     1      18.235   3.166  31.592  1.00  0.00     0.037 A 
HETATM   15  C15 UNK     1      18.763   3.178  30.302  1.00  0.00     0.068 A 
HETATM   16  C14 UNK     1      19.089   4.390  29.692  1.00  0.00     0.037 A 
HETATM   17  C12 UNK     1      18.887   5.589  30.375  1.00  0.00     0.017 A 
BRANCH  15  18
HETATM   18  O5  UNK     1      18.961   2.008  29.637  1.00  0.00    -0.356 OA
HETATM   19  C17 UNK     1      17.999   1.652  28.644  1.00  0.00     0.210 C 
ENDBRANCH  15  18
ENDBRANCH   5  12
BRANCH   6  20
HETATM   20  O2  UNK     1      20.368   6.894  33.276  1.00  0.00    -0.355 OA
HETATM   21  H8  UNK     1      20.942   7.529  33.733  1.00  0.00     0.218 HD
ENDBRANCH   6  20
BRANCH  10  22
HETATM   22  O3  UNK     1      13.626  10.733  33.009  1.00  0.00    -0.356 OA
HETATM   23  C16 UNK     1      13.518  12.088  32.573  1.00  0.00     0.210 C 
ENDBRANCH  10  22
TORSDOF 4
ENDMDL
MODEL 3
REMARK VINA RESULT:      -8.0      3.138      4.216
REMARK  4 active torsions:
REMARK  status: ('A' for Active; 'I' for Inactive)
REMARK    1  A    between atoms: C5_10  and  O2_2 
REMARK    2  A    between atoms: C9_14  and  O3_3 
REMARK    3  A    between atoms: C15_20  and  O5_5 
REMARK    4  A    between atoms: C3_8  and  C4_9 
ROOT
HETATM    1  O1  UNK     1      18.193   3.670  34.551  1.00  0.00    -0.306 OA
HETATM    2  O4  UNK     1      18.478   1.356  31.208  1.00  0.00    -0.284 OA
HETATM    3  C1  UNK     1      18.326   1.458  33.560  1.00  0.00     0.051 A 
HETATM    4  C2  UNK     1      18.231   2.304  34.663  1.00  0.00     0.093 A 
HETATM    5  C3  UNK     1      18.240   4.232  33.285  1.00  0.00     0.123 A 
HETATM    6  C5  UNK     1      18.341   3.529  32.141  1.00  0.00     0.152 A 
HETATM    7  C6  UNK     1      18.389   2.049  32.214  1.00  0.00     0.220 A 
HETATM    8  C7  UNK     1      18.173   1.769  35.950  1.00  0.00     0.075 A 
HETATM    9  C8  UNK     1      18.362   0.072  33.735  1.00  0.00     0.021 A 
HETATM   10  C9  UNK     1      18.209   0.386  36.128  1.00  0.00     0.070 A 
HETATM   11  C10 UNK     1      18.303  -0.460  35.023  1.00  0.00     0.038 A 
ENDROOT
BRANCH   5  12
HETATM   12  C4  UNK     1      18.192   5.705  33.308  1.00  0.00     0.001 A 
HETATM   13  C11 UNK     1      19.332   6.435  33.644  1.00  0.00     0.017 A 
HETATM   14  C13 UNK     1      19.285   7.829  33.667  1.00  0.00     0.037 A 
HETATM   15  C15 UNK     1      18.100   8.493  33.352  1.00  0.00     0.068 A 
HETATM   16  C14 UNK     1      16.959   7.763  33.016  1.00  0.00     0.037 A 
HETATM   17  C12 UNK     1      17.006   6.369  32.994  1.00  0.00     0.017 A 
BRANCH  15  18
HETATM   18  O5  UNK     1      18.054   9.852  33.375  1.00  0.00    -0.356 OA
HETATM   19  C17 UNK     1      16.983  10.456  34.099  1.00  0.00     0.210 C 
ENDBRANCH  15  18
ENDBRANCH   5  12
BRANCH   6  20
HETATM   20  O2  UNK     1      18.419   4.120  30.899  1.00  0.00    -0.355 OA
HETATM   21  H8  UNK     1      18.081   3.511  30.223  1.00  0.00     0.218 HD
ENDBRANCH   6  20
BRANCH  10  22
HETATM   22  O3  UNK     1      18.151  -0.140  37.383  1.00  0.00    -0.356 OA
HETATM   23  C16 UNK     1      17.865  -1.534  37.490  1.00  0.00     0.210 C 
ENDBRANCH  10  22
TORSDOF 4
ENDMDL
MODEL 4
REMARK VINA RESULT:      -7.7      3.109      7.320
REMARK  4 active torsions:
REMARK  status: ('A' for Active; 'I' for Inactive)
REMARK    1  A    between atoms: C5_10  and  O2_2 
REMARK    2  A    between atoms: C9_14  and  O3_3 
REMARK    3  A    between atoms: C15_20  and  O5_5 
REMARK    4  A    between atoms: C3_8  and  C4_9 
ROOT
HETATM    1  O1  UNK     1      17.877   3.714  33.562  1.00  0.00    -0.306 OA
HETATM    2  O4  UNK     1      19.009   2.673  29.787  1.00  0.00    -0.284 OA
HETATM    3  C1  UNK     1      18.428   4.390  31.296  1.00  0.00     0.051 A 
HETATM    4  C2  UNK     1      18.041   4.681  32.603  1.00  0.00     0.093 A 
HETATM    5  C3  UNK     1      18.116   2.393  33.217  1.00  0.00     0.123 A 
HETATM    6  C5  UNK     1      18.485   1.979  31.990  1.00  0.00     0.152 A 
HETATM    7  C6  UNK     1      18.672   2.989  30.922  1.00  0.00     0.220 A 
HETATM    8  C7  UNK     1      17.801   6.001  32.983  1.00  0.00     0.075 A 
HETATM    9  C8  UNK     1      18.580   5.417  30.361  1.00  0.00     0.021 A 
HETATM   10  C9  UNK     1      17.951   7.029  32.051  1.00  0.00     0.070 A 
HETATM   11  C10 UNK     1      18.339   6.737  30.743  1.00  0.00     0.038 A 
ENDROOT
BRANCH   5  12
HETATM   12  C4  UNK     1      17.903   1.459  34.337  1.00  0.00     0.001 A 
HETATM   13  C11 UNK     1      18.840   1.378  35.367  1.00  0.00     0.017 A 
HETATM   14  C13 UNK     1      18.638   0.494  36.427  1.00  0.00     0.037 A 
HETATM   15  C15 UNK     1      17.499  -0.309  36.457  1.00  0.00     0.068 A 
HETATM   16  C14 UNK     1      16.560  -0.229  35.427  1.00  0.00     0.037 A 
HETATM   17  C12 UNK     1      16.763   0.655  34.367  1.00  0.00     0.017 A 
BRANCH  15  18
HETATM   18  O5  UNK     1      17.301  -1.172  37.490  1.00  0.00    -0.356 OA
HETATM   19  C17 UNK     1      18.463  -1.732  38.102  1.00  0.00     0.210 C 
ENDBRANCH  15  18
ENDBRANCH   5  12
BRANCH   6  20
HETATM   20  O2  UNK     1      18.684   0.653  31.672  1.00  0.00    -0.355 OA
HETATM   21  H8  UNK     1      18.617   0.108  32.472  1.00  0.00     0.218 HD
ENDBRANCH   6  20
BRANCH  10  22
HETATM   22  O3  UNK     1      17.718   8.319  32.419  1.00  0.00    -0.356 OA
HETATM   23  C16 UNK     1      18.204   8.728  33.697  1.00  0.00     0.210 C 
ENDBRANCH  10  22
TORSDOF 4
ENDMDL
MODEL 5
REMARK VINA RESULT:      -7.6      4.434      9.933
REMARK  4 active torsions:
REMARK  status: ('A' for Active; 'I' for Inactive)
REMARK    1  A    between atoms: C5_10  and  O2_2 
REMARK    2  A    between atoms: C9_14  and  O3_3 
REMARK    3  A    between atoms: C15_20  and  O5_5 
REMARK    4  A    between atoms: C3_8  and  C4_9 
ROOT
HETATM    1  O1  UNK     1      20.310  -3.431  34.865  1.00  0.00    -0.306 OA
HETATM    2  O4  UNK     1      17.892  -0.423  36.175  1.00  0.00    -0.284 OA
HETATM    3  C1  UNK     1      19.095  -1.384  34.388  1.00  0.00     0.051 A 
HETATM    4  C2  UNK     1      19.921  -2.438  34.003  1.00  0.00     0.093 A 
HETATM    5  C3  UNK     1      19.852  -3.389  36.172  1.00  0.00     0.123 A 
HETATM    6  C5  UNK     1      19.058  -2.423  36.672  1.00  0.00     0.152 A 
HETATM    7  C6  UNK     1      18.615  -1.328  35.778  1.00  0.00     0.220 A 
HETATM    8  C7  UNK     1      20.392  -2.513  32.692  1.00  0.00     0.075 A 
HETATM    9  C8  UNK     1      18.732  -0.400  33.466  1.00  0.00     0.021 A 
HETATM   10  C9  UNK     1      20.031  -1.531  31.769  1.00  0.00     0.070 A 
HETATM   11  C10 UNK     1      19.203  -0.477  32.155  1.00  0.00     0.038 A 
ENDROOT
BRANCH   5  12
HETATM   12  C4  UNK     1      20.344  -4.512  36.990  1.00  0.00     0.001 A 
HETATM   13  C11 UNK     1      21.567  -4.409  37.654  1.00  0.00     0.017 A 
HETATM   14  C13 UNK     1      22.032  -5.473  38.427  1.00  0.00     0.037 A 
HETATM   15  C15 UNK     1      21.276  -6.640  38.536  1.00  0.00     0.068 A 
HETATM   16  C14 UNK     1      20.054  -6.744  37.872  1.00  0.00     0.037 A 
HETATM   17  C12 UNK     1      19.588  -5.680  37.098  1.00  0.00     0.017 A 
BRANCH  15  18
HETATM   18  O5  UNK     1      21.731  -7.677  39.289  1.00  0.00    -0.356 OA
HETATM   19  C17 UNK     1      20.956  -8.876  39.280  1.00  0.00     0.210 C 
ENDBRANCH  15  18
ENDBRANCH   5  12
BRANCH   6  20
HETATM   20  O2  UNK     1      18.647  -2.394  37.988  1.00  0.00    -0.355 OA
HETATM   21  H8  UNK     1      19.207  -2.979  38.521  1.00  0.00     0.218 HD
ENDBRANCH   6  20
BRANCH  10  22
HETATM   22  O3  UNK     1      20.488  -1.601  30.488  1.00  0.00    -0.356 OA
HETATM   23  C16 UNK     1      20.551  -0.380  29.754  1.00  0.00     0.210 C 
ENDBRANCH  10  22
TORSDOF 4
ENDMDL
MODEL 6
REMARK VINA RESULT:      -7.6     22.092     24.200
REMARK  4 active torsions:
REMARK  status: ('A' for Active; 'I' for Inactive)
REMARK    1  A    between atoms: C5_10  and  O2_2 
REMARK    2  A    between atoms: C9_14  and  O3_3 
REMARK    3  A    between atoms: C15_20  and  O5_5 
REMARK    4  A    between atoms: C3_8  and  C4_9 
ROOT
HETATM    1  O1  UNK     1      10.185   5.336   9.699  1.00  0.00    -0.306 OA
HETATM    2  O4  UNK     1      10.254   6.971   5.966  1.00  0.00    -0.284 OA
HETATM    3  C1  UNK     1      11.473   6.111   7.793  1.00  0.00     0.051 A 
HETATM    4  C2  UNK     1      11.382   5.558   9.068  1.00  0.00     0.093 A 
HETATM    5  C3  UNK     1       9.015   5.667   9.033  1.00  0.00     0.123 A 
HETATM    6  C5  UNK     1       8.966   6.216   7.805  1.00  0.00     0.152 A 
HETATM    7  C6  UNK     1      10.236   6.477   7.086  1.00  0.00     0.220 A 
HETATM    8  C7  UNK     1      12.541   5.206   9.761  1.00  0.00     0.075 A 
HETATM    9  C8  UNK     1      12.722   6.315   7.201  1.00  0.00     0.021 A 
HETATM   10  C9  UNK     1      13.789   5.408   9.172  1.00  0.00     0.070 A 
HETATM   11  C10 UNK     1      13.879   5.962   7.894  1.00  0.00     0.038 A 
ENDROOT
BRANCH   5  12
HETATM   12  C4  UNK     1       7.804   5.379   9.821  1.00  0.00     0.001 A 
HETATM   13  C11 UNK     1       7.232   6.376  10.613  1.00  0.00     0.017 A 
HETATM   14  C13 UNK     1       6.086   6.102  11.360  1.00  0.00     0.037 A 
HETATM   15  C15 UNK     1       5.512   4.833  11.315  1.00  0.00     0.068 A 
HETATM   16  C14 UNK     1       6.083   3.835  10.524  1.00  0.00     0.037 A 
HETATM   17  C12 UNK     1       7.229   4.109   9.778  1.00  0.00     0.017 A 
BRANCH  15  18
HETATM   18  O5  UNK     1       4.394   4.565  12.044  1.00  0.00    -0.356 OA
HETATM   19  C17 UNK     1       4.242   3.234  12.537  1.00  0.00     0.210 C 
ENDBRANCH  15  18
ENDBRANCH   5  12
BRANCH   6  20
HETATM   20  O2  UNK     1       7.786   6.564   7.183  1.00  0.00    -0.355 OA
HETATM   21  H8  UNK     1       7.826   6.327   6.243  1.00  0.00     0.218 HD
ENDBRANCH   6  20
BRANCH  10  22
HETATM   22  O3  UNK     1      14.922   5.065   9.844  1.00  0.00    -0.356 OA
HETATM   23  C16 UNK     1      16.004   5.994   9.810  1.00  0.00     0.210 C 
ENDBRANCH  10  22
TORSDOF 4
ENDMDL
MODEL 7
REMARK VINA RESULT:      -7.6     10.725     13.366
REMARK  4 active torsions:
REMARK  status: ('A' for Active; 'I' for Inactive)
REMARK    1  A    between atoms: C5_10  and  O2_2 
REMARK    2  A    between atoms: C9_14  and  O3_3 
REMARK    3  A    between atoms: C15_20  and  O5_5 
REMARK    4  A    between atoms: C3_8  and  C4_9 
ROOT
HETATM    1  O1  UNK     1      23.254  -8.625  37.031  1.00  0.00    -0.306 OA
HETATM    2  O4  UNK     1      24.314 -12.139  35.260  1.00  0.00    -0.284 OA
HETATM    3  C1  UNK     1      24.943 -10.320  36.623  1.00  0.00     0.051 A 
HETATM    4  C2  UNK     1      24.520  -9.125  37.199  1.00  0.00     0.093 A 
HETATM    5  C3  UNK     1      22.355  -9.348  36.263  1.00  0.00     0.123 A 
HETATM    6  C5  UNK     1      22.640 -10.509  35.645  1.00  0.00     0.152 A 
HETATM    7  C6  UNK     1      23.997 -11.085  35.796  1.00  0.00     0.220 A 
HETATM    8  C7  UNK     1      25.399  -8.379  37.985  1.00  0.00     0.075 A 
HETATM    9  C8  UNK     1      26.247 -10.780  36.829  1.00  0.00     0.021 A 
HETATM   10  C9  UNK     1      26.701  -8.835  38.192  1.00  0.00     0.070 A 
HETATM   11  C10 UNK     1      27.124 -10.033  37.615  1.00  0.00     0.038 A 
ENDROOT
BRANCH   5  12
HETATM   12  C4  UNK     1      21.035  -8.700  36.163  1.00  0.00     0.001 A 
HETATM   13  C11 UNK     1      20.049  -8.974  37.113  1.00  0.00     0.017 A 
HETATM   14  C13 UNK     1      18.800  -8.362  37.017  1.00  0.00     0.037 A 
HETATM   15  C15 UNK     1      18.535  -7.476  35.974  1.00  0.00     0.068 A 
HETATM   16  C14 UNK     1      19.519  -7.201  35.024  1.00  0.00     0.037 A 
HETATM   17  C12 UNK     1      20.769  -7.815  35.119  1.00  0.00     0.017 A 
BRANCH  15  18
HETATM   18  O5  UNK     1      17.316  -6.879  35.881  1.00  0.00    -0.356 OA
HETATM   19  C17 UNK     1      16.396  -7.421  34.934  1.00  0.00     0.210 C 
ENDBRANCH  15  18
ENDBRANCH   5  12
BRANCH   6  20
HETATM   20  O2  UNK     1      21.731 -11.187  34.860  1.00  0.00    -0.355 OA
HETATM   21  H8  UNK     1      22.193 -11.838  34.309  1.00  0.00     0.218 HD
ENDBRANCH   6  20
BRANCH  10  22
HETATM   22  O3  UNK     1      27.562  -8.110  38.959  1.00  0.00    -0.356 OA
HETATM   23  C16 UNK     1      27.505  -6.690  38.833  1.00  0.00     0.210 C 
ENDBRANCH  10  22
TORSDOF 4
ENDMDL
MODEL 8
REMARK VINA RESULT:      -7.5     22.342     24.557
REMARK  4 active torsions:
REMARK  status: ('A' for Active; 'I' for Inactive)
REMARK    1  A    between atoms: C5_10  and  O2_2 
REMARK    2  A    between atoms: C9_14  and  O3_3 
REMARK    3  A    between atoms: C15_20  and  O5_5 
REMARK    4  A    between atoms: C3_8  and  C4_9 
ROOT
HETATM    1  O1  UNK     1      11.763   8.088   9.005  1.00  0.00    -0.306 OA
HETATM    2  O4  UNK     1      11.231   5.801   5.673  1.00  0.00    -0.284 OA
HETATM    3  C1  UNK     1      10.257   6.892   7.524  1.00  0.00     0.051 A 
HETATM    4  C2  UNK     1      10.505   7.672   8.651  1.00  0.00     0.093 A 
HETATM    5  C3  UNK     1      12.831   7.723   8.200  1.00  0.00     0.123 A 
HETATM    6  C5  UNK     1      12.728   6.965   7.093  1.00  0.00     0.152 A 
HETATM    7  C6  UNK     1      11.388   6.491   6.673  1.00  0.00     0.220 A 
HETATM    8  C7  UNK     1       9.450   8.063   9.476  1.00  0.00     0.075 A 
HETATM    9  C8  UNK     1       8.953   6.497   7.213  1.00  0.00     0.021 A 
HETATM   10  C9  UNK     1       8.148   7.671   9.168  1.00  0.00     0.070 A 
HETATM   11  C10 UNK     1       7.900   6.890   8.039  1.00  0.00     0.038 A 
ENDROOT
BRANCH   5  12
HETATM   12  C4  UNK     1      14.123   8.233   8.694  1.00  0.00     0.001 A 
HETATM   13  C11 UNK     1      14.539   9.522   8.357  1.00  0.00     0.017 A 
HETATM   14  C13 UNK     1      15.762  10.004   8.824  1.00  0.00     0.037 A 
HETATM   15  C15 UNK     1      16.568   9.199   9.627  1.00  0.00     0.068 A 
HETATM   16  C14 UNK     1      16.153   7.910   9.965  1.00  0.00     0.037 A 
HETATM   17  C12 UNK     1      14.930   7.428   9.498  1.00  0.00     0.017 A 
BRANCH  15  18
HETATM   18  O5  UNK     1      17.761   9.669  10.082  1.00  0.00    -0.356 OA
HETATM   19  C17 UNK     1      18.075  11.032   9.798  1.00  0.00     0.210 C 
ENDBRANCH  15  18
ENDBRANCH   5  12
BRANCH   6  20
HETATM   20  O2  UNK     1      13.816   6.593   6.332  1.00  0.00    -0.355 OA
HETATM   21  H8  UNK     1      13.644   6.785   5.396  1.00  0.00     0.218 HD
ENDBRANCH   6  20
BRANCH  10  22
HETATM   22  O3  UNK     1       7.115   8.051   9.970  1.00  0.00    -0.356 OA
HETATM   23  C16 UNK     1       6.760   7.168  11.033  1.00  0.00     0.210 C 
ENDBRANCH  10  22
TORSDOF 4
ENDMDL
MODEL 9
REMARK VINA RESULT:      -7.5     22.090     24.575
REMARK  4 active torsions:
REMARK  status: ('A' for Active; 'I' for Inactive)
REMARK    1  A    between atoms: C5_10  and  O2_2 
REMARK    2  A    between atoms: C9_14  and  O3_3 
REMARK    3  A    between atoms: C15_20  and  O5_5 
REMARK    4  A    between atoms: C3_8  and  C4_9 
ROOT
HETATM    1  O1  UNK     1      14.285   9.251   8.236  1.00  0.00    -0.306 OA
HETATM    2  O4  UNK     1      16.696   7.727  11.147  1.00  0.00    -0.284 OA
HETATM    3  C1  UNK     1      16.284   9.457   9.597  1.00  0.00     0.051 A 
HETATM    4  C2  UNK     1      15.420   9.923   8.609  1.00  0.00     0.093 A 
HETATM    5  C3  UNK     1      13.979   8.061   8.879  1.00  0.00     0.123 A 
HETATM    6  C5  UNK     1      14.733   7.498   9.841  1.00  0.00     0.152 A 
HETATM    7  C6  UNK     1      15.971   8.189  10.274  1.00  0.00     0.220 A 
HETATM    8  C7  UNK     1      15.695  11.121   7.949  1.00  0.00     0.075 A 
HETATM    9  C8  UNK     1      17.427  10.185   9.935  1.00  0.00     0.021 A 
HETATM   10  C9  UNK     1      16.836  11.850   8.284  1.00  0.00     0.070 A 
HETATM   11  C10 UNK     1      17.700  11.383   9.275  1.00  0.00     0.038 A 
ENDROOT
BRANCH   5  12
HETATM   12  C4  UNK     1      12.737   7.443   8.383  1.00  0.00     0.001 A 
HETATM   13  C11 UNK     1      11.510   7.789   8.951  1.00  0.00     0.017 A 
HETATM   14  C13 UNK     1      10.334   7.203   8.482  1.00  0.00     0.037 A 
HETATM   15  C15 UNK     1      10.384   6.272   7.446  1.00  0.00     0.068 A 
HETATM   16  C14 UNK     1      11.610   5.925   6.877  1.00  0.00     0.037 A 
HETATM   17  C12 UNK     1      12.786   6.511   7.347  1.00  0.00     0.017 A 
BRANCH  15  18
HETATM   18  O5  UNK     1       9.237   5.700   6.988  1.00  0.00    -0.356 OA
HETATM   19  C17 UNK     1       8.102   5.737   7.852  1.00  0.00     0.210 C 
ENDBRANCH  15  18
ENDBRANCH   5  12
BRANCH   6  20
HETATM   20  O2  UNK     1      14.418   6.297  10.438  1.00  0.00    -0.355 OA
HETATM   21  H8  UNK     1      14.459   6.387  11.404  1.00  0.00     0.218 HD
ENDBRANCH   6  20
BRANCH  10  22
HETATM   22  O3  UNK     1      17.108  13.021   7.644  1.00  0.00    -0.356 OA
HETATM   23  C16 UNK     1      17.983  12.957   6.518  1.00  0.00     0.210 C 
ENDBRANCH  10  22
TORSDOF 4
ENDMDL
MODEL 10
REMARK VINA RESULT:      -7.5     13.931     16.510
REMARK  4 active torsions:
REMARK  status: ('A' for Active; 'I' for Inactive)
REMARK    1  A    between atoms: C5_10  and  O2_2 
REMARK    2  A    between atoms: C9_14  and  O3_3 
REMARK    3  A    between atoms: C15_20  and  O5_5 
REMARK    4  A    between atoms: C3_8  and  C4_9 
ROOT
HETATM    1  O1  UNK     1      19.763  -0.789  14.558  1.00  0.00    -0.306 OA
HETATM    2  O4  UNK     1      17.531  -4.198  14.470  1.00  0.00    -0.284 OA
HETATM    3  C1  UNK     1      19.063  -2.784  13.366  1.00  0.00     0.051 A 
HETATM    4  C2  UNK     1      19.800  -1.606  13.457  1.00  0.00     0.093 A 
HETATM    5  C3  UNK     1      18.965  -1.159  15.630  1.00  0.00     0.123 A 
HETATM    6  C5  UNK     1      18.199  -2.265  15.665  1.00  0.00     0.152 A 
HETATM    7  C6  UNK     1      18.206  -3.176  14.495  1.00  0.00     0.220 A 
HETATM    8  C7  UNK     1      20.619  -1.210  12.399  1.00  0.00     0.075 A 
HETATM    9  C8  UNK     1      19.140  -3.577  12.218  1.00  0.00     0.021 A 
HETATM   10  C9  UNK     1      20.698  -1.999  11.252  1.00  0.00     0.070 A 
HETATM   11  C10 UNK     1      19.960  -3.180  11.161  1.00  0.00     0.038 A 
ENDROOT
BRANCH   5  12
HETATM   12  C4  UNK     1      19.017  -0.195  16.744  1.00  0.00     0.001 A 
HETATM   13  C11 UNK     1      19.058   1.175  16.481  1.00  0.00     0.017 A 
HETATM   14  C13 UNK     1      19.107   2.086  17.536  1.00  0.00     0.037 A 
HETATM   15  C15 UNK     1      19.116   1.629  18.853  1.00  0.00     0.068 A 
HETATM   16  C14 UNK     1      19.075   0.259  19.117  1.00  0.00     0.037 A 
HETATM   17  C12 UNK     1      19.027  -0.652  18.062  1.00  0.00     0.017 A 
BRANCH  15  18
HETATM   18  O5  UNK     1      19.165   2.518  19.882  1.00  0.00    -0.356 OA
HETATM   19  C17 UNK     1      19.444   1.996  21.180  1.00  0.00     0.210 C 
ENDBRANCH  15  18
ENDBRANCH   5  12
BRANCH   6  20
HETATM   20  O2  UNK     1      17.391  -2.587  16.734  1.00  0.00    -0.355 OA
HETATM   21  H8  UNK     1      16.516  -2.860  16.415  1.00  0.00     0.218 HD
ENDBRANCH   6  20
BRANCH  10  22
HETATM   22  O3  UNK     1      21.496  -1.617  10.217  1.00  0.00    -0.356 OA
HETATM   23  C16 UNK     1      21.682  -2.557   9.159  1.00  0.00     0.210 C 
ENDBRANCH  10  22
TORSDOF 4
ENDMDL
