MODEL 1
REMARK VINA RESULT:      -8.7      0.000      0.000
REMARK  1 active torsions:
REMARK  status: ('A' for Active; 'I' for Inactive)
REMARK    1  A    between atoms: C2_5  and  C4_7 
ROOT
HETATM    1  O1  UNK     1      19.027  -0.121  32.710  1.00  0.00    -0.309 OA
HETATM    2  O2  UNK     1      18.667   2.912  30.014  1.00  0.00    -0.287 OA
HETATM    3  C1  UNK     1      19.353   0.692  30.444  1.00  0.00     0.048 A 
HETATM    4  C2  UNK     1      18.476   1.102  33.059  1.00  0.00     0.090 A 
HETATM    5  C3  UNK     1      19.449  -0.302  31.416  1.00  0.00     0.090 A 
HETATM    6  C5  UNK     1      18.777   1.993  30.814  1.00  0.00     0.187 A 
HETATM    7  C6  UNK     1      18.337   2.137  32.217  1.00  0.00     0.093 A 
HETATM    8  C7  UNK     1      19.799   0.452  29.143  1.00  0.00     0.018 A 
HETATM    9  C8  UNK     1      19.993  -1.545  31.092  1.00  0.00     0.038 A 
HETATM   10  C11 UNK     1      20.342  -0.793  28.820  1.00  0.00     0.001 A 
HETATM   11  C12 UNK     1      20.439  -1.789  29.793  1.00  0.00     0.003 A 
ENDROOT
BRANCH   4  12
HETATM   12  C4  UNK     1      18.061   1.190  34.473  1.00  0.00    -0.002 A 
HETATM   13  C10 UNK     1      18.823   1.927  35.384  1.00  0.00     0.017 A 
HETATM   14  C14 UNK     1      18.432   2.009  36.721  1.00  0.00     0.043 A 
HETATM   15  C15 UNK     1      17.277   1.355  37.151  1.00  0.00     0.116 A 
HETATM   16  C13 UNK     1      16.515   0.619  36.245  1.00  0.00     0.043 A 
HETATM   17  F1  UNK     1      16.902   1.433  38.434  1.00  0.00    -0.206 F 
HETATM   18  C9  UNK     1      16.906   0.535  34.909  1.00  0.00     0.017 A 
ENDBRANCH   4  12
TORSDOF 1
ENDMDL
MODEL 2
REMARK VINA RESULT:      -8.3      1.316      2.817
REMARK  1 active torsions:
REMARK  status: ('A' for Active; 'I' for Inactive)
REMARK    1  A    between atoms: C2_5  and  C4_7 
ROOT
HETATM    1  O1  UNK     1      18.719   0.333  32.523  1.00  0.00    -0.309 OA
HETATM    2  O2  UNK     1      20.810  -3.157  32.729  1.00  0.00    -0.287 OA
HETATM    3  C1  UNK     1      20.104  -1.326  31.413  1.00  0.00     0.048 A 
HETATM    4  C2  UNK     1      18.803  -0.396  33.698  1.00  0.00     0.090 A 
HETATM    5  C3  UNK     1      19.370  -0.141  31.411  1.00  0.00     0.090 A 
HETATM    6  C5  UNK     1      20.188  -2.107  32.657  1.00  0.00     0.187 A 
HETATM    7  C6  UNK     1      19.472  -1.553  33.824  1.00  0.00     0.093 A 
HETATM    8  C7  UNK     1      20.746  -1.760  30.252  1.00  0.00     0.018 A 
HETATM    9  C8  UNK     1      19.274   0.618  30.245  1.00  0.00     0.038 A 
HETATM   10  C11 UNK     1      20.649  -0.999  29.086  1.00  0.00     0.001 A 
HETATM   11  C12 UNK     1      19.914   0.188  29.083  1.00  0.00     0.003 A 
ENDROOT
BRANCH   4  12
HETATM   12  C4  UNK     1      18.063   0.200  34.828  1.00  0.00    -0.002 A 
HETATM   13  C10 UNK     1      16.712  -0.101  35.020  1.00  0.00     0.017 A 
HETATM   14  C14 UNK     1      16.013   0.463  36.087  1.00  0.00     0.043 A 
HETATM   15  C15 UNK     1      16.662   1.331  36.966  1.00  0.00     0.116 A 
HETATM   16  C13 UNK     1      18.010   1.633  36.778  1.00  0.00     0.043 A 
HETATM   17  F1  UNK     1      15.991   1.873  37.990  1.00  0.00    -0.206 F 
HETATM   18  C9  UNK     1      18.710   1.070  35.711  1.00  0.00     0.017 A 
ENDBRANCH   4  12
TORSDOF 1
ENDMDL
MODEL 3
REMARK VINA RESULT:      -8.2      3.290      4.059
REMARK  1 active torsions:
REMARK  status: ('A' for Active; 'I' for Inactive)
REMARK    1  A    between atoms: C2_5  and  C4_7 
ROOT
HETATM    1  O1  UNK     1      19.452   2.118  31.177  1.00  0.00    -0.309 OA
HETATM    2  O2  UNK     1      17.640   2.021  27.530  1.00  0.00    -0.287 OA
HETATM    3  C1  UNK     1      18.995   0.914  29.117  1.00  0.00     0.048 A 
HETATM    4  C2  UNK     1      18.682   3.176  30.718  1.00  0.00     0.090 A 
HETATM    5  C3  UNK     1      19.590   1.014  30.375  1.00  0.00     0.090 A 
HETATM    6  C5  UNK     1      18.186   2.038  28.624  1.00  0.00     0.187 A 
HETATM    7  C6  UNK     1      18.067   3.202  29.526  1.00  0.00     0.093 A 
HETATM    8  C7  UNK     1      19.170  -0.235  28.343  1.00  0.00     0.018 A 
HETATM    9  C8  UNK     1      20.363  -0.038  30.866  1.00  0.00     0.038 A 
HETATM   10  C11 UNK     1      19.944  -1.286  28.837  1.00  0.00     0.001 A 
HETATM   11  C12 UNK     1      20.540  -1.188  30.096  1.00  0.00     0.003 A 
ENDROOT
BRANCH   4  12
HETATM   12  C4  UNK     1      18.605   4.313  31.657  1.00  0.00    -0.002 A 
HETATM   13  C10 UNK     1      18.115   4.123  32.952  1.00  0.00     0.017 A 
HETATM   14  C14 UNK     1      18.041   5.197  33.838  1.00  0.00     0.043 A 
HETATM   15  C15 UNK     1      18.459   6.466  33.433  1.00  0.00     0.116 A 
HETATM   16  C13 UNK     1      18.949   6.659  32.143  1.00  0.00     0.043 A 
HETATM   17  F1  UNK     1      18.388   7.497  34.284  1.00  0.00    -0.206 F 
HETATM   18  C9  UNK     1      19.022   5.585  31.256  1.00  0.00     0.017 A 
ENDBRANCH   4  12
TORSDOF 1
ENDMDL
MODEL 4
REMARK VINA RESULT:      -8.2      3.600      6.989
REMARK  1 active torsions:
REMARK  status: ('A' for Active; 'I' for Inactive)
REMARK    1  A    between atoms: C2_5  and  C4_7 
ROOT
HETATM    1  O1  UNK     1      18.752  -0.682  33.977  1.00  0.00    -0.309 OA
HETATM    2  O2  UNK     1      20.650  -3.628  36.053  1.00  0.00    -0.287 OA
HETATM    3  C1  UNK     1      19.136  -1.816  36.092  1.00  0.00     0.048 A 
HETATM    4  C2  UNK     1      19.627  -1.560  33.358  1.00  0.00     0.090 A 
HETATM    5  C3  UNK     1      18.522  -0.828  35.322  1.00  0.00     0.090 A 
HETATM    6  C5  UNK     1      20.072  -2.743  35.440  1.00  0.00     0.187 A 
HETATM    7  C6  UNK     1      20.284  -2.545  33.991  1.00  0.00     0.093 A 
HETATM    8  C7  UNK     1      18.864  -1.917  37.457  1.00  0.00     0.018 A 
HETATM    9  C8  UNK     1      17.629   0.065  35.917  1.00  0.00     0.038 A 
HETATM   10  C11 UNK     1      17.971  -1.023  38.049  1.00  0.00     0.001 A 
HETATM   11  C12 UNK     1      17.355  -0.034  37.281  1.00  0.00     0.003 A 
ENDROOT
BRANCH   4  12
HETATM   12  C4  UNK     1      19.806  -1.310  31.914  1.00  0.00    -0.002 A 
HETATM   13  C10 UNK     1      19.488  -0.062  31.373  1.00  0.00     0.017 A 
HETATM   14  C14 UNK     1      19.656   0.174  30.008  1.00  0.00     0.043 A 
HETATM   15  C15 UNK     1      20.142  -0.838  29.180  1.00  0.00     0.116 A 
HETATM   16  C13 UNK     1      20.460  -2.085  29.717  1.00  0.00     0.043 A 
HETATM   17  F1  UNK     1      20.302  -0.612  27.870  1.00  0.00    -0.206 F 
HETATM   18  C9  UNK     1      20.292  -2.321  31.081  1.00  0.00     0.017 A 
ENDBRANCH   4  12
TORSDOF 1
ENDMDL
MODEL 5
REMARK VINA RESULT:      -8.0      3.104      4.679
REMARK  1 active torsions:
REMARK  status: ('A' for Active; 'I' for Inactive)
REMARK    1  A    between atoms: C2_5  and  C4_7 
ROOT
HETATM    1  O1  UNK     1      19.264   1.950  30.448  1.00  0.00    -0.309 OA
HETATM    2  O2  UNK     1      18.622  -0.357  33.743  1.00  0.00    -0.287 OA
HETATM    3  C1  UNK     1      19.385  -0.231  31.511  1.00  0.00     0.048 A 
HETATM    4  C2  UNK     1      18.742   2.481  31.617  1.00  0.00     0.090 A 
HETATM    5  C3  UNK     1      19.577   0.614  30.419  1.00  0.00     0.090 A 
HETATM    6  C5  UNK     1      18.822   0.327  32.749  1.00  0.00     0.187 A 
HETATM    7  C6  UNK     1      18.505   1.769  32.730  1.00  0.00     0.093 A 
HETATM    8  C7  UNK     1      19.721  -1.583  31.424  1.00  0.00     0.018 A 
HETATM    9  C8  UNK     1      20.108   0.110  29.231  1.00  0.00     0.038 A 
HETATM   10  C11 UNK     1      20.253  -2.085  30.235  1.00  0.00     0.001 A 
HETATM   11  C12 UNK     1      20.446  -1.240  29.141  1.00  0.00     0.003 A 
ENDROOT
BRANCH   4  12
HETATM   12  C4  UNK     1      18.437   3.923  31.537  1.00  0.00    -0.002 A 
HETATM   13  C10 UNK     1      18.903   4.681  30.460  1.00  0.00     0.017 A 
HETATM   14  C14 UNK     1      18.616   6.044  30.385  1.00  0.00     0.043 A 
HETATM   15  C15 UNK     1      17.860   6.654  31.387  1.00  0.00     0.116 A 
HETATM   16  C13 UNK     1      17.393   5.901  32.462  1.00  0.00     0.043 A 
HETATM   17  F1  UNK     1      17.584   7.962  31.315  1.00  0.00    -0.206 F 
HETATM   18  C9  UNK     1      17.680   4.538  32.539  1.00  0.00     0.017 A 
ENDBRANCH   4  12
TORSDOF 1
ENDMDL
MODEL 6
REMARK VINA RESULT:      -8.0     24.239     26.250
REMARK  1 active torsions:
REMARK  status: ('A' for Active; 'I' for Inactive)
REMARK    1  A    between atoms: C2_5  and  C4_7 
ROOT
HETATM    1  O1  UNK     1      13.555   7.672   8.666  1.00  0.00    -0.309 OA
HETATM    2  O2  UNK     1      15.494   4.233   9.670  1.00  0.00    -0.287 OA
HETATM    3  C1  UNK     1      15.523   6.595   9.598  1.00  0.00     0.048 A 
HETATM    4  C2  UNK     1      12.981   6.427   8.463  1.00  0.00     0.090 A 
HETATM    5  C3  UNK     1      14.805   7.731   9.229  1.00  0.00     0.090 A 
HETATM    6  C5  UNK     1      14.920   5.272   9.375  1.00  0.00     0.187 A 
HETATM    7  C6  UNK     1      13.573   5.262   8.769  1.00  0.00     0.093 A 
HETATM    8  C7  UNK     1      16.792   6.715  10.166  1.00  0.00     0.018 A 
HETATM    9  C8  UNK     1      15.354   8.998   9.428  1.00  0.00     0.038 A 
HETATM   10  C11 UNK     1      17.339   7.984  10.365  1.00  0.00     0.001 A 
HETATM   11  C12 UNK     1      16.622   9.123   9.996  1.00  0.00     0.003 A 
ENDROOT
BRANCH   4  12
HETATM   12  C4  UNK     1      11.639   6.478   7.848  1.00  0.00    -0.002 A 
HETATM   13  C10 UNK     1      11.474   6.168   6.496  1.00  0.00     0.017 A 
HETATM   14  C14 UNK     1      10.207   6.218   5.915  1.00  0.00     0.043 A 
HETATM   15  C15 UNK     1       9.100   6.578   6.684  1.00  0.00     0.116 A 
HETATM   16  C13 UNK     1       9.261   6.888   8.034  1.00  0.00     0.043 A 
HETATM   17  F1  UNK     1       7.884   6.626   6.127  1.00  0.00    -0.206 F 
HETATM   18  C9  UNK     1      10.528   6.839   8.616  1.00  0.00     0.017 A 
ENDBRANCH   4  12
TORSDOF 1
ENDMDL
MODEL 7
REMARK VINA RESULT:      -8.0     24.241     26.251
REMARK  1 active torsions:
REMARK  status: ('A' for Active; 'I' for Inactive)
REMARK    1  A    between atoms: C2_5  and  C4_7 
ROOT
HETATM    1  O1  UNK     1      13.554   7.672   8.665  1.00  0.00    -0.309 OA
HETATM    2  O2  UNK     1      15.494   4.233   9.667  1.00  0.00    -0.287 OA
HETATM    3  C1  UNK     1      15.522   6.594   9.596  1.00  0.00     0.048 A 
HETATM    4  C2  UNK     1      12.980   6.427   8.462  1.00  0.00     0.090 A 
HETATM    5  C3  UNK     1      14.804   7.731   9.228  1.00  0.00     0.090 A 
HETATM    6  C5  UNK     1      14.919   5.272   9.373  1.00  0.00     0.187 A 
HETATM    7  C6  UNK     1      13.572   5.262   8.767  1.00  0.00     0.093 A 
HETATM    8  C7  UNK     1      16.791   6.714  10.165  1.00  0.00     0.018 A 
HETATM    9  C8  UNK     1      15.353   8.998   9.428  1.00  0.00     0.038 A 
HETATM   10  C11 UNK     1      17.338   7.983  10.365  1.00  0.00     0.001 A 
HETATM   11  C12 UNK     1      16.620   9.123   9.997  1.00  0.00     0.003 A 
ENDROOT
BRANCH   4  12
HETATM   12  C4  UNK     1      11.639   6.478   7.846  1.00  0.00    -0.002 A 
HETATM   13  C10 UNK     1      10.528   6.842   8.613  1.00  0.00     0.017 A 
HETATM   14  C14 UNK     1       9.260   6.889   8.031  1.00  0.00     0.043 A 
HETATM   15  C15 UNK     1       9.099   6.574   6.682  1.00  0.00     0.116 A 
HETATM   16  C13 UNK     1      10.205   6.212   5.914  1.00  0.00     0.043 A 
HETATM   17  F1  UNK     1       7.883   6.620   6.124  1.00  0.00    -0.206 F 
HETATM   18  C9  UNK     1      11.473   6.163   6.495  1.00  0.00     0.017 A 
ENDBRANCH   4  12
TORSDOF 1
ENDMDL
MODEL 8
REMARK VINA RESULT:      -7.9     14.933     17.922
REMARK  1 active torsions:
REMARK  status: ('A' for Active; 'I' for Inactive)
REMARK    1  A    between atoms: C2_5  and  C4_7 
ROOT
HETATM    1  O1  UNK     1      19.179   0.332  15.870  1.00  0.00    -0.309 OA
HETATM    2  O2  UNK     1      18.640  -0.582  19.803  1.00  0.00    -0.287 OA
HETATM    3  C1  UNK     1      19.073   1.079  18.179  1.00  0.00     0.048 A 
HETATM    4  C2  UNK     1      18.913  -0.963  16.286  1.00  0.00     0.090 A 
HETATM    5  C3  UNK     1      19.250   1.322  16.818  1.00  0.00     0.090 A 
HETATM    6  C5  UNK     1      18.800  -0.295  18.625  1.00  0.00     0.187 A 
HETATM    7  C6  UNK     1      18.732  -1.323  17.566  1.00  0.00     0.093 A 
HETATM    8  C7  UNK     1      19.156   2.125  19.100  1.00  0.00     0.018 A 
HETATM    9  C8  UNK     1      19.510   2.617  16.369  1.00  0.00     0.038 A 
HETATM   10  C11 UNK     1      19.417   3.420  18.648  1.00  0.00     0.001 A 
HETATM   11  C12 UNK     1      19.594   3.665  17.285  1.00  0.00     0.003 A 
ENDROOT
BRANCH   4  12
HETATM   12  C4  UNK     1      18.865  -1.948  15.188  1.00  0.00    -0.002 A 
HETATM   13  C10 UNK     1      18.327  -3.219  15.406  1.00  0.00     0.017 A 
HETATM   14  C14 UNK     1      18.282  -4.150  14.368  1.00  0.00     0.043 A 
HETATM   15  C15 UNK     1      18.775  -3.812  13.107  1.00  0.00     0.116 A 
HETATM   16  C13 UNK     1      19.311  -2.545  12.885  1.00  0.00     0.043 A 
HETATM   17  F1  UNK     1      18.732  -4.705  12.111  1.00  0.00    -0.206 F 
HETATM   18  C9  UNK     1      19.357  -1.614  13.923  1.00  0.00     0.017 A 
ENDBRANCH   4  12
TORSDOF 1
ENDMDL
MODEL 9
REMARK VINA RESULT:      -7.8      6.897      9.260
REMARK  1 active torsions:
REMARK  status: ('A' for Active; 'I' for Inactive)
REMARK    1  A    between atoms: C2_5  and  C4_7 
ROOT
HETATM    1  O1  UNK     1      17.430   8.651  32.948  1.00  0.00    -0.309 OA
HETATM    2  O2  UNK     1      13.970   6.773  31.903  1.00  0.00    -0.287 OA
HETATM    3  C1  UNK     1      15.001   8.642  32.914  1.00  0.00     0.048 A 
HETATM    4  C2  UNK     1      17.434   7.434  32.284  1.00  0.00     0.090 A 
HETATM    5  C3  UNK     1      16.222   9.229  33.245  1.00  0.00     0.090 A 
HETATM    6  C5  UNK     1      15.002   7.347  32.218  1.00  0.00     0.187 A 
HETATM    7  C6  UNK     1      16.328   6.768  31.920  1.00  0.00     0.093 A 
HETATM    8  C7  UNK     1      13.801   9.277  33.242  1.00  0.00     0.018 A 
HETATM    9  C8  UNK     1      16.249  10.457  33.906  1.00  0.00     0.038 A 
HETATM   10  C11 UNK     1      13.831  10.506  33.903  1.00  0.00     0.001 A 
HETATM   11  C12 UNK     1      15.053  11.094  34.235  1.00  0.00     0.003 A 
ENDROOT
BRANCH   4  12
HETATM   12  C4  UNK     1      18.785   6.900  32.020  1.00  0.00    -0.002 A 
HETATM   13  C10 UNK     1      19.779   6.988  32.998  1.00  0.00     0.017 A 
HETATM   14  C14 UNK     1      21.056   6.485  32.748  1.00  0.00     0.043 A 
HETATM   15  C15 UNK     1      21.343   5.890  31.518  1.00  0.00     0.116 A 
HETATM   16  C13 UNK     1      20.353   5.800  30.540  1.00  0.00     0.043 A 
HETATM   17  F1  UNK     1      22.568   5.407  31.278  1.00  0.00    -0.206 F 
HETATM   18  C9  UNK     1      19.077   6.304  30.790  1.00  0.00     0.017 A 
ENDBRANCH   4  12
TORSDOF 1
ENDMDL
MODEL 10
REMARK VINA RESULT:      -7.8      2.242      3.844
REMARK  1 active torsions:
REMARK  status: ('A' for Active; 'I' for Inactive)
REMARK    1  A    between atoms: C2_5  and  C4_7 
ROOT
HETATM    1  O1  UNK     1      18.087   3.513  33.332  1.00  0.00    -0.309 OA
HETATM    2  O2  UNK     1      19.091   1.813  29.770  1.00  0.00    -0.287 OA
HETATM    3  C1  UNK     1      18.677   3.791  30.992  1.00  0.00     0.048 A 
HETATM    4  C2  UNK     1      18.205   2.140  33.189  1.00  0.00     0.090 A 
HETATM    5  C3  UNK     1      18.327   4.308  32.239  1.00  0.00     0.090 A 
HETATM    6  C5  UNK     1      18.794   2.334  30.835  1.00  0.00     0.187 A 
HETATM    7  C6  UNK     1      18.527   1.524  32.041  1.00  0.00     0.093 A 
HETATM    8  C7  UNK     1      18.910   4.647  29.914  1.00  0.00     0.018 A 
HETATM    9  C8  UNK     1      18.209   5.686  32.415  1.00  0.00     0.038 A 
HETATM   10  C11 UNK     1      18.791   6.027  30.093  1.00  0.00     0.001 A 
HETATM   11  C12 UNK     1      18.441   6.545  31.341  1.00  0.00     0.003 A 
ENDROOT
BRANCH   4  12
HETATM   12  C4  UNK     1      17.920   1.382  34.424  1.00  0.00    -0.002 A 
HETATM   13  C10 UNK     1      18.120   1.974  35.674  1.00  0.00     0.017 A 
HETATM   14  C14 UNK     1      17.852   1.258  36.840  1.00  0.00     0.043 A 
HETATM   15  C15 UNK     1      17.382  -0.053  36.761  1.00  0.00     0.116 A 
HETATM   16  C13 UNK     1      17.181  -0.647  35.516  1.00  0.00     0.043 A 
HETATM   17  F1  UNK     1      17.125  -0.741  37.881  1.00  0.00    -0.206 F 
HETATM   18  C9  UNK     1      17.450   0.068  34.349  1.00  0.00     0.017 A 
ENDBRANCH   4  12
TORSDOF 1
ENDMDL
