MODEL 1
REMARK VINA RESULT:     -10.6      0.000      0.000
REMARK  3 active torsions:
REMARK  status: ('A' for Active; 'I' for Inactive)
REMARK       I    between atoms: C15_19  and  N1_4 
REMARK    1  A    between atoms: C6_10  and  N1_4 
REMARK    2  A    between atoms: C1_5  and  C2_6 
REMARK    3  A    between atoms: C15_19  and  C3_7 
ROOT
HETATM    1  C1  UNK     1      18.655   3.790  30.923  1.00  0.00    -0.020 A 
HETATM    2  C6  UNK     1      18.135   6.338  31.932  1.00  0.00     0.035 A 
HETATM    3  C9  UNK     1      17.885   3.939  32.076  1.00  0.00     0.014 A 
HETATM    4  C10 UNK     1      19.166   4.914  30.274  1.00  0.00     0.014 A 
HETATM    5  C12 UNK     1      17.624   5.213  32.580  1.00  0.00     0.030 A 
HETATM    6  C13 UNK     1      18.907   6.188  30.780  1.00  0.00     0.030 A 
ENDROOT
BRANCH   2   7
HETATM    7  N1  UNK     1      17.876   7.612  32.439  1.00  0.00    -0.323 N 
HETATM    8  C15 UNK     1      18.161   8.106  33.717  1.00  0.00     0.256 C 
HETATM    9  O2  UNK     1      18.697   7.499  34.638  1.00  0.00    -0.267 OA
HETATM   10  H7  UNK     1      17.422   8.254  31.791  1.00  0.00     0.169 HD
BRANCH   8  11
HETATM   11  C3  UNK     1      17.735   9.508  33.968  1.00  0.00     0.038 A 
HETATM   12  C16 UNK     1      18.699  10.494  33.906  1.00  0.00     0.018 A 
HETATM   13  C18 UNK     1      18.326  11.817  34.137  1.00  0.00     0.008 A 
HETATM   14  C11 UNK     1      16.996  12.128  34.426  1.00  0.00    -0.061 A 
HETATM   15  C14 UNK     1      16.041  11.113  34.484  1.00  0.00     0.014 A 
HETATM   16  C22 UNK     1      16.598  13.543  34.674  1.00  0.00     0.048 C 
HETATM   17  C4  UNK     1      16.414   9.789  34.253  1.00  0.00    -0.046 A 
HETATM   18  C20 UNK     1      15.371   8.722  34.320  1.00  0.00     0.049 C 
ENDBRANCH   8  11
ENDBRANCH   2   7
BRANCH   1  19
HETATM   19  C2  UNK     1      18.929   2.443  30.389  1.00  0.00     0.051 A 
HETATM   20  C17 UNK     1      18.573   2.104  28.983  1.00  0.00     0.299 A 
HETATM   21  O1  UNK     1      18.890   0.821  28.544  1.00  0.00    -0.274 OA
HETATM   22  O3  UNK     1      18.021   2.907  28.240  1.00  0.00    -0.259 OA
HETATM   23  C8  UNK     1      19.502  -0.127  29.386  1.00  0.00     0.089 A 
HETATM   24  C21 UNK     1      19.768  -1.388  28.856  1.00  0.00     0.038 A 
HETATM   25  C5  UNK     1      19.821   0.199  30.698  1.00  0.00    -0.001 A 
HETATM   26  C24 UNK     1      20.371  -2.347  29.668  1.00  0.00     0.003 A 
HETATM   27  C23 UNK     1      20.700  -2.038  30.989  1.00  0.00     0.001 A 
HETATM   28  C19 UNK     1      20.426  -0.768  31.504  1.00  0.00     0.014 A 
HETATM   29  C7  UNK     1      19.517   1.535  31.183  1.00  0.00     0.032 A 
ENDBRANCH   1  19
TORSDOF 3
ENDMDL
MODEL 2
REMARK VINA RESULT:     -10.2      1.781     10.262
REMARK  3 active torsions:
REMARK  status: ('A' for Active; 'I' for Inactive)
REMARK       I    between atoms: C15_19  and  N1_4 
REMARK    1  A    between atoms: C6_10  and  N1_4 
REMARK    2  A    between atoms: C1_5  and  C2_6 
REMARK    3  A    between atoms: C15_19  and  C3_7 
ROOT
HETATM    1  C1  UNK     1      17.743   7.085  32.647  1.00  0.00    -0.020 A 
HETATM    2  C6  UNK     1      18.593   4.547  31.861  1.00  0.00     0.035 A 
HETATM    3  C9  UNK     1      17.679   6.019  33.545  1.00  0.00     0.014 A 
HETATM    4  C10 UNK     1      18.232   6.882  31.357  1.00  0.00     0.014 A 
HETATM    5  C12 UNK     1      18.105   4.750  33.151  1.00  0.00     0.030 A 
HETATM    6  C13 UNK     1      18.656   5.613  30.963  1.00  0.00     0.030 A 
ENDROOT
BRANCH   2   7
HETATM    7  N1  UNK     1      19.017   3.277  31.467  1.00  0.00    -0.323 N 
HETATM    8  C15 UNK     1      18.301   2.315  30.744  1.00  0.00     0.256 C 
HETATM    9  O2  UNK     1      17.154   2.416  30.321  1.00  0.00    -0.267 OA
HETATM   10  H7  UNK     1      19.964   3.028  31.746  1.00  0.00     0.169 HD
BRANCH   8  11
HETATM   11  C3  UNK     1      19.018   1.036  30.501  1.00  0.00     0.038 A 
HETATM   12  C16 UNK     1      19.506   0.803  29.230  1.00  0.00     0.018 A 
HETATM   13  C18 UNK     1      20.183  -0.388  28.975  1.00  0.00     0.008 A 
HETATM   14  C11 UNK     1      20.359  -1.323  29.996  1.00  0.00    -0.061 A 
HETATM   15  C14 UNK     1      19.858  -1.065  31.271  1.00  0.00     0.014 A 
HETATM   16  C22 UNK     1      21.083  -2.597  29.723  1.00  0.00     0.048 C 
HETATM   17  C4  UNK     1      19.180   0.127  31.527  1.00  0.00    -0.046 A 
HETATM   18  C20 UNK     1      18.653   0.379  32.902  1.00  0.00     0.049 C 
ENDBRANCH   8  11
ENDBRANCH   2   7
BRANCH   1  19
HETATM   19  C2  UNK     1      17.294   8.426  33.064  1.00  0.00     0.051 A 
HETATM   20  C17 UNK     1      15.862   8.812  32.939  1.00  0.00     0.299 A 
HETATM   21  O1  UNK     1      15.510  10.085  33.381  1.00  0.00    -0.274 OA
HETATM   22  O3  UNK     1      15.022   8.055  32.464  1.00  0.00    -0.259 OA
HETATM   23  C8  UNK     1      16.459  10.982  33.906  1.00  0.00     0.089 A 
HETATM   24  C21 UNK     1      16.011  12.237  34.310  1.00  0.00     0.038 A 
HETATM   25  C5  UNK     1      17.795  10.612  34.010  1.00  0.00    -0.001 A 
HETATM   26  C24 UNK     1      16.929  13.146  34.833  1.00  0.00     0.003 A 
HETATM   27  C23 UNK     1      18.275  12.792  34.946  1.00  0.00     0.001 A 
HETATM   28  C19 UNK     1      18.708  11.529  34.536  1.00  0.00     0.014 A 
HETATM   29  C7  UNK     1      18.192   9.284  33.572  1.00  0.00     0.032 A 
ENDBRANCH   1  19
TORSDOF 3
ENDMDL
MODEL 3
REMARK VINA RESULT:     -10.1      1.694     10.334
REMARK  3 active torsions:
REMARK  status: ('A' for Active; 'I' for Inactive)
REMARK       I    between atoms: C15_19  and  N1_4 
REMARK    1  A    between atoms: C6_10  and  N1_4 
REMARK    2  A    between atoms: C1_5  and  C2_6 
REMARK    3  A    between atoms: C15_19  and  C3_7 
ROOT
HETATM    1  C1  UNK     1      17.807   7.099  32.802  1.00  0.00    -0.020 A 
HETATM    2  C6  UNK     1      18.631   4.558  32.002  1.00  0.00     0.035 A 
HETATM    3  C9  UNK     1      17.765   6.037  33.705  1.00  0.00     0.014 A 
HETATM    4  C10 UNK     1      18.260   6.892  31.500  1.00  0.00     0.014 A 
HETATM    5  C12 UNK     1      18.178   4.766  33.304  1.00  0.00     0.030 A 
HETATM    6  C13 UNK     1      18.671   5.620  31.099  1.00  0.00     0.030 A 
ENDROOT
BRANCH   2   7
HETATM    7  N1  UNK     1      19.041   3.286  31.601  1.00  0.00    -0.323 N 
HETATM    8  C15 UNK     1      18.318   2.338  30.864  1.00  0.00     0.256 C 
HETATM    9  O2  UNK     1      17.177   2.458  30.432  1.00  0.00    -0.267 OA
HETATM   10  H7  UNK     1      19.982   3.021  31.886  1.00  0.00     0.169 HD
BRANCH   8  11
HETATM   11  C3  UNK     1      19.021   1.053  30.616  1.00  0.00     0.038 A 
HETATM   12  C16 UNK     1      19.527   0.829  29.351  1.00  0.00     0.018 A 
HETATM   13  C18 UNK     1      20.191  -0.369  29.092  1.00  0.00     0.008 A 
HETATM   14  C11 UNK     1      20.336  -1.319  30.103  1.00  0.00    -0.061 A 
HETATM   15  C14 UNK     1      19.816  -1.071  31.373  1.00  0.00     0.014 A 
HETATM   16  C22 UNK     1      21.046  -2.601  29.826  1.00  0.00     0.048 C 
HETATM   17  C4  UNK     1      19.152   0.128  31.633  1.00  0.00    -0.046 A 
HETATM   18  C20 UNK     1      18.605   0.370  33.002  1.00  0.00     0.049 C 
ENDBRANCH   8  11
ENDBRANCH   2   7
BRANCH   1  19
HETATM   19  C2  UNK     1      17.372   8.443  33.227  1.00  0.00     0.051 A 
HETATM   20  C17 UNK     1      18.328   9.365  33.900  1.00  0.00     0.299 A 
HETATM   21  O1  UNK     1      17.851  10.627  34.245  1.00  0.00    -0.274 OA
HETATM   22  O3  UNK     1      19.483   9.037  34.151  1.00  0.00    -0.259 OA
HETATM   23  C8  UNK     1      16.523  11.019  33.990  1.00  0.00     0.089 A 
HETATM   24  C21 UNK     1      16.138  12.299  34.383  1.00  0.00     0.038 A 
HETATM   25  C5  UNK     1      15.639  10.146  33.368  1.00  0.00    -0.001 A 
HETATM   26  C24 UNK     1      14.829  12.713  34.144  1.00  0.00     0.003 A 
HETATM   27  C23 UNK     1      13.926  11.850  33.520  1.00  0.00     0.001 A 
HETATM   28  C19 UNK     1      14.329  10.569  33.132  1.00  0.00     0.014 A 
HETATM   29  C7  UNK     1      16.110   8.826  32.982  1.00  0.00     0.032 A 
ENDBRANCH   1  19
TORSDOF 3
ENDMDL
MODEL 4
REMARK VINA RESULT:     -10.0      6.810     12.750
REMARK  3 active torsions:
REMARK  status: ('A' for Active; 'I' for Inactive)
REMARK       I    between atoms: C15_19  and  N1_4 
REMARK    1  A    between atoms: C6_10  and  N1_4 
REMARK    2  A    between atoms: C1_5  and  C2_6 
REMARK    3  A    between atoms: C15_19  and  C3_7 
ROOT
HETATM    1  C1  UNK     1      18.639  -0.599  35.421  1.00  0.00    -0.020 A 
HETATM    2  C6  UNK     1      18.876  -3.220  36.345  1.00  0.00     0.035 A 
HETATM    3  C9  UNK     1      17.733  -1.092  36.360  1.00  0.00     0.014 A 
HETATM    4  C10 UNK     1      19.664  -1.416  34.944  1.00  0.00     0.014 A 
HETATM    5  C12 UNK     1      17.852  -2.403  36.822  1.00  0.00     0.030 A 
HETATM    6  C13 UNK     1      19.782  -2.727  35.405  1.00  0.00     0.030 A 
ENDROOT
BRANCH   2   7
HETATM    7  N1  UNK     1      18.994  -4.532  36.805  1.00  0.00    -0.323 N 
HETATM    8  C15 UNK     1      20.155  -5.205  37.206  1.00  0.00     0.256 C 
HETATM    9  O2  UNK     1      21.295  -4.755  37.226  1.00  0.00    -0.267 OA
HETATM   10  H7  UNK     1      18.123  -5.058  36.848  1.00  0.00     0.169 HD
BRANCH   8  11
HETATM   11  C3  UNK     1      19.960  -6.618  37.623  1.00  0.00     0.038 A 
HETATM   12  C16 UNK     1      19.917  -6.891  38.976  1.00  0.00     0.018 A 
HETATM   13  C18 UNK     1      19.735  -8.208  39.393  1.00  0.00     0.008 A 
HETATM   14  C11 UNK     1      19.601  -9.227  38.450  1.00  0.00    -0.061 A 
HETATM   15  C14 UNK     1      19.649  -8.927  37.088  1.00  0.00     0.014 A 
HETATM   16  C22 UNK     1      19.407 -10.637  38.897  1.00  0.00     0.048 C 
HETATM   17  C4  UNK     1      19.831  -7.609  36.670  1.00  0.00    -0.046 A 
HETATM   18  C20 UNK     1      19.877  -7.314  35.206  1.00  0.00     0.049 C 
ENDBRANCH   8  11
ENDBRANCH   2   7
BRANCH   1  19
HETATM   19  C2  UNK     1      18.513   0.787  34.934  1.00  0.00     0.051 A 
HETATM   20  C17 UNK     1      18.503   1.924  35.896  1.00  0.00     0.299 A 
HETATM   21  O1  UNK     1      18.411   3.205  35.357  1.00  0.00    -0.274 OA
HETATM   22  O3  UNK     1      18.567   1.752  37.109  1.00  0.00    -0.259 OA
HETATM   23  C8  UNK     1      18.312   3.427  33.971  1.00  0.00     0.089 A 
HETATM   24  C21 UNK     1      18.212   4.745  33.531  1.00  0.00     0.038 A 
HETATM   25  C5  UNK     1      18.314   2.357  33.085  1.00  0.00    -0.001 A 
HETATM   26  C24 UNK     1      18.112   4.995  32.164  1.00  0.00     0.003 A 
HETATM   27  C23 UNK     1      18.113   3.932  31.257  1.00  0.00     0.001 A 
HETATM   28  C19 UNK     1      18.214   2.616  31.716  1.00  0.00     0.014 A 
HETATM   29  C7  UNK     1      18.425   1.008  33.614  1.00  0.00     0.032 A 
ENDBRANCH   1  19
TORSDOF 3
ENDMDL
MODEL 5
REMARK VINA RESULT:      -9.9     22.219     24.147
REMARK  3 active torsions:
REMARK  status: ('A' for Active; 'I' for Inactive)
REMARK       I    between atoms: C15_19  and  N1_4 
REMARK    1  A    between atoms: C6_10  and  N1_4 
REMARK    2  A    between atoms: C1_5  and  C2_6 
REMARK    3  A    between atoms: C15_19  and  C3_7 
ROOT
HETATM    1  C1  UNK     1      14.629   8.670   9.046  1.00  0.00    -0.020 A 
HETATM    2  C6  UNK     1      17.161   9.764   9.460  1.00  0.00     0.035 A 
HETATM    3  C9  UNK     1      14.949   9.914   8.501  1.00  0.00     0.014 A 
HETATM    4  C10 UNK     1      15.575   7.973   9.797  1.00  0.00     0.014 A 
HETATM    5  C12 UNK     1      16.215  10.460   8.708  1.00  0.00     0.030 A 
HETATM    6  C13 UNK     1      16.841   8.521  10.006  1.00  0.00     0.030 A 
ENDROOT
BRANCH   2   7
HETATM    7  N1  UNK     1      18.427  10.313   9.669  1.00  0.00    -0.323 N 
HETATM    8  C15 UNK     1      18.746  11.593  10.138  1.00  0.00     0.256 C 
HETATM    9  O2  UNK     1      17.958  12.477  10.455  1.00  0.00    -0.267 OA
HETATM   10  H7  UNK     1      19.209   9.699   9.448  1.00  0.00     0.169 HD
BRANCH   8  11
HETATM   11  C3  UNK     1      20.198  11.896  10.228  1.00  0.00     0.038 A 
HETATM   12  C16 UNK     1      20.795  11.823  11.470  1.00  0.00     0.018 A 
HETATM   13  C18 UNK     1      22.156  12.102  11.582  1.00  0.00     0.008 A 
HETATM   14  C11 UNK     1      22.894  12.448  10.449  1.00  0.00    -0.061 A 
HETATM   15  C14 UNK     1      22.268  12.515   9.204  1.00  0.00     0.014 A 
HETATM   16  C22 UNK     1      24.350  12.746  10.569  1.00  0.00     0.048 C 
HETATM   17  C4  UNK     1      20.905  12.236   9.092  1.00  0.00    -0.046 A 
HETATM   18  C20 UNK     1      20.259  12.314   7.747  1.00  0.00     0.049 C 
ENDBRANCH   8  11
ENDBRANCH   2   7
BRANCH   1  19
HETATM   19  C2  UNK     1      13.291   8.092   8.825  1.00  0.00     0.051 A 
HETATM   20  C17 UNK     1      12.322   7.987   9.952  1.00  0.00     0.299 A 
HETATM   21  O1  UNK     1      11.068   7.456   9.659  1.00  0.00    -0.274 OA
HETATM   22  O3  UNK     1      12.607   8.341  11.091  1.00  0.00    -0.259 OA
HETATM   23  C8  UNK     1      10.726   7.020   8.365  1.00  0.00     0.089 A 
HETATM   24  C21 UNK     1       9.450   6.493   8.175  1.00  0.00     0.038 A 
HETATM   25  C5  UNK     1      11.642   7.116   7.325  1.00  0.00    -0.001 A 
HETATM   26  C24 UNK     1       9.085   6.051   6.905  1.00  0.00     0.003 A 
HETATM   27  C23 UNK     1       9.991   6.141   5.846  1.00  0.00     0.001 A 
HETATM   28  C19 UNK     1      11.267   6.671   6.054  1.00  0.00     0.014 A 
HETATM   29  C7  UNK     1      12.954   7.679   7.594  1.00  0.00     0.032 A 
ENDBRANCH   1  19
TORSDOF 3
ENDMDL
MODEL 6
REMARK VINA RESULT:      -9.5      6.965      9.820
REMARK  3 active torsions:
REMARK  status: ('A' for Active; 'I' for Inactive)
REMARK       I    between atoms: C15_19  and  N1_4 
REMARK    1  A    between atoms: C6_10  and  N1_4 
REMARK    2  A    between atoms: C1_5  and  C2_6 
REMARK    3  A    between atoms: C15_19  and  C3_7 
ROOT
HETATM    1  C1  UNK     1      19.997  -4.234  36.327  1.00  0.00    -0.020 A 
HETATM    2  C6  UNK     1      19.509  -1.676  35.326  1.00  0.00     0.035 A 
HETATM    3  C9  UNK     1      19.400  -3.269  37.139  1.00  0.00     0.014 A 
HETATM    4  C10 UNK     1      20.350  -3.920  35.015  1.00  0.00     0.014 A 
HETATM    5  C12 UNK     1      19.156  -1.991  36.638  1.00  0.00     0.030 A 
HETATM    6  C13 UNK     1      20.106  -2.641  34.514  1.00  0.00     0.030 A 
ENDROOT
BRANCH   2   7
HETATM    7  N1  UNK     1      19.267  -0.396  34.826  1.00  0.00    -0.323 N 
HETATM    8  C15 UNK     1      18.178   0.039  34.061  1.00  0.00     0.256 C 
HETATM    9  O2  UNK     1      17.225  -0.636  33.687  1.00  0.00    -0.267 OA
HETATM   10  H7  UNK     1      19.977   0.299  35.047  1.00  0.00     0.169 HD
BRANCH   8  11
HETATM   11  C3  UNK     1      18.218   1.467  33.651  1.00  0.00     0.038 A 
HETATM   12  C16 UNK     1      18.262   1.748  32.300  1.00  0.00     0.018 A 
HETATM   13  C18 UNK     1      18.299   3.079  31.888  1.00  0.00     0.008 A 
HETATM   14  C11 UNK     1      18.293   4.103  32.836  1.00  0.00    -0.061 A 
HETATM   15  C14 UNK     1      18.248   3.795  34.195  1.00  0.00     0.014 A 
HETATM   16  C22 UNK     1      18.333   5.528  32.396  1.00  0.00     0.048 C 
HETATM   17  C4  UNK     1      18.211   2.462  34.607  1.00  0.00    -0.046 A 
HETATM   18  C20 UNK     1      18.163   2.158  36.070  1.00  0.00     0.049 C 
ENDBRANCH   8  11
ENDBRANCH   2   7
BRANCH   1  19
HETATM   19  C2  UNK     1      20.253  -5.586  36.857  1.00  0.00     0.051 A 
HETATM   20  C17 UNK     1      21.472  -5.856  37.669  1.00  0.00     0.299 A 
HETATM   21  O1  UNK     1      21.629  -7.151  38.159  1.00  0.00    -0.274 OA
HETATM   22  O3  UNK     1      22.308  -4.989  37.899  1.00  0.00    -0.259 OA
HETATM   23  C8  UNK     1      20.697  -8.170  37.889  1.00  0.00     0.089 A 
HETATM   24  C21 UNK     1      20.949  -9.435  38.414  1.00  0.00     0.038 A 
HETATM   25  C5  UNK     1      19.568  -7.906  37.122  1.00  0.00    -0.001 A 
HETATM   26  C24 UNK     1      20.044 -10.464  38.161  1.00  0.00     0.003 A 
HETATM   27  C23 UNK     1      18.903 -10.218  37.394  1.00  0.00     0.001 A 
HETATM   28  C19 UNK     1      18.665  -8.943  36.874  1.00  0.00     0.014 A 
HETATM   29  C7  UNK     1      19.366  -6.561  36.609  1.00  0.00     0.032 A 
ENDBRANCH   1  19
TORSDOF 3
ENDMDL
MODEL 7
REMARK VINA RESULT:      -9.5      6.796      9.566
REMARK  3 active torsions:
REMARK  status: ('A' for Active; 'I' for Inactive)
REMARK       I    between atoms: C15_19  and  N1_4 
REMARK    1  A    between atoms: C6_10  and  N1_4 
REMARK    2  A    between atoms: C1_5  and  C2_6 
REMARK    3  A    between atoms: C15_19  and  C3_7 
ROOT
HETATM    1  C1  UNK     1      19.629  -3.614  36.501  1.00  0.00    -0.020 A 
HETATM    2  C6  UNK     1      19.330  -1.143  35.242  1.00  0.00     0.035 A 
HETATM    3  C9  UNK     1      20.157  -3.413  35.226  1.00  0.00     0.014 A 
HETATM    4  C10 UNK     1      18.952  -2.580  37.148  1.00  0.00     0.014 A 
HETATM    5  C12 UNK     1      20.007  -2.177  34.597  1.00  0.00     0.030 A 
HETATM    6  C13 UNK     1      18.802  -1.344  36.518  1.00  0.00     0.030 A 
ENDROOT
BRANCH   2   7
HETATM    7  N1  UNK     1      19.179   0.093  34.612  1.00  0.00    -0.323 N 
HETATM    8  C15 UNK     1      18.008   0.658  34.092  1.00  0.00     0.256 C 
HETATM    9  O2  UNK     1      16.886   0.162  34.097  1.00  0.00    -0.267 OA
HETATM   10  H7  UNK     1      20.031   0.642  34.521  1.00  0.00     0.169 HD
BRANCH   8  11
HETATM   11  C3  UNK     1      18.173   1.988  33.449  1.00  0.00     0.038 A 
HETATM   12  C16 UNK     1      18.014   3.109  34.239  1.00  0.00     0.018 A 
HETATM   13  C18 UNK     1      18.164   4.368  33.660  1.00  0.00     0.008 A 
HETATM   14  C11 UNK     1      18.470   4.482  32.304  1.00  0.00    -0.061 A 
HETATM   15  C14 UNK     1      18.626   3.334  31.526  1.00  0.00     0.014 A 
HETATM   16  C22 UNK     1      18.630   5.829  31.685  1.00  0.00     0.048 C 
HETATM   17  C4  UNK     1      18.476   2.074  32.105  1.00  0.00    -0.046 A 
HETATM   18  C20 UNK     1      18.648   0.860  31.250  1.00  0.00     0.049 C 
ENDBRANCH   8  11
ENDBRANCH   2   7
BRANCH   1  19
HETATM   19  C2  UNK     1      19.788  -4.920  37.166  1.00  0.00     0.051 A 
HETATM   20  C17 UNK     1      18.713  -5.946  37.075  1.00  0.00     0.299 A 
HETATM   21  O1  UNK     1      18.949  -7.166  37.706  1.00  0.00    -0.274 OA
HETATM   22  O3  UNK     1      17.661  -5.737  36.481  1.00  0.00    -0.259 OA
HETATM   23  C8  UNK     1      20.138  -7.422  38.414  1.00  0.00     0.089 A 
HETATM   24  C21 UNK     1      20.276  -8.669  39.020  1.00  0.00     0.038 A 
HETATM   25  C5  UNK     1      21.130  -6.452  38.499  1.00  0.00    -0.001 A 
HETATM   26  C24 UNK     1      21.441  -8.950  39.730  1.00  0.00     0.003 A 
HETATM   27  C23 UNK     1      22.450  -7.989  39.825  1.00  0.00     0.001 A 
HETATM   28  C19 UNK     1      22.296  -6.743  39.212  1.00  0.00     0.014 A 
HETATM   29  C7  UNK     1      20.921  -5.175  37.839  1.00  0.00     0.032 A 
ENDBRANCH   1  19
TORSDOF 3
ENDMDL
MODEL 8
REMARK VINA RESULT:      -8.9      1.880      2.867
REMARK  3 active torsions:
REMARK  status: ('A' for Active; 'I' for Inactive)
REMARK       I    between atoms: C15_19  and  N1_4 
REMARK    1  A    between atoms: C6_10  and  N1_4 
REMARK    2  A    between atoms: C1_5  and  C2_6 
REMARK    3  A    between atoms: C15_19  and  C3_7 
ROOT
HETATM    1  C1  UNK     1      18.009   5.452  32.596  1.00  0.00    -0.020 A 
HETATM    2  C6  UNK     1      17.518   8.154  33.088  1.00  0.00     0.035 A 
HETATM    3  C9  UNK     1      19.001   6.248  33.169  1.00  0.00     0.014 A 
HETATM    4  C10 UNK     1      16.772   6.006  32.269  1.00  0.00     0.014 A 
HETATM    5  C12 UNK     1      18.755   7.599  33.415  1.00  0.00     0.030 A 
HETATM    6  C13 UNK     1      16.526   7.358  32.514  1.00  0.00     0.030 A 
ENDROOT
BRANCH   2   7
HETATM    7  N1  UNK     1      17.273   9.505  33.332  1.00  0.00    -0.323 N 
HETATM    8  C15 UNK     1      16.509  10.072  34.360  1.00  0.00     0.256 C 
HETATM    9  O2  UNK     1      15.908   9.473  35.245  1.00  0.00    -0.267 OA
HETATM   10  H7  UNK     1      17.705  10.152  32.674  1.00  0.00     0.169 HD
BRANCH   8  11
HETATM   11  C3  UNK     1      16.411  11.555  34.338  1.00  0.00     0.038 A 
HETATM   12  C16 UNK     1      17.461  12.277  34.870  1.00  0.00     0.018 A 
HETATM   13  C18 UNK     1      17.394  13.669  34.862  1.00  0.00     0.008 A 
HETATM   14  C11 UNK     1      16.279  14.312  34.322  1.00  0.00    -0.061 A 
HETATM   15  C14 UNK     1      15.231  13.560  33.791  1.00  0.00     0.014 A 
HETATM   16  C22 UNK     1      16.208  15.801  34.314  1.00  0.00     0.048 C 
HETATM   17  C4  UNK     1      15.298  12.167  33.799  1.00  0.00    -0.046 A 
HETATM   18  C20 UNK     1      14.162  11.385  33.222  1.00  0.00     0.049 C 
ENDBRANCH   8  11
ENDBRANCH   2   7
BRANCH   1  19
HETATM   19  C2  UNK     1      18.269   4.024  32.337  1.00  0.00     0.051 A 
HETATM   20  C17 UNK     1      18.736   3.576  30.996  1.00  0.00     0.299 A 
HETATM   21  O1  UNK     1      18.988   2.215  30.838  1.00  0.00    -0.274 OA
HETATM   22  O3  UNK     1      18.889   4.358  30.064  1.00  0.00    -0.259 OA
HETATM   23  C8  UNK     1      18.796   1.293  31.884  1.00  0.00     0.089 A 
HETATM   24  C21 UNK     1      19.064  -0.048  31.623  1.00  0.00     0.038 A 
HETATM   25  C5  UNK     1      18.351   1.724  33.128  1.00  0.00    -0.001 A 
HETATM   26  C24 UNK     1      18.882  -0.983  32.640  1.00  0.00     0.003 A 
HETATM   27  C23 UNK     1      18.437  -0.570  33.898  1.00  0.00     0.001 A 
HETATM   28  C19 UNK     1      18.172   0.780  34.142  1.00  0.00     0.014 A 
HETATM   29  C7  UNK     1      18.095   3.140  33.331  1.00  0.00     0.032 A 
ENDBRANCH   1  19
TORSDOF 3
ENDMDL
MODEL 9
REMARK VINA RESULT:      -8.9      1.812      2.302
REMARK  3 active torsions:
REMARK  status: ('A' for Active; 'I' for Inactive)
REMARK       I    between atoms: C15_19  and  N1_4 
REMARK    1  A    between atoms: C6_10  and  N1_4 
REMARK    2  A    between atoms: C1_5  and  C2_6 
REMARK    3  A    between atoms: C15_19  and  C3_7 
ROOT
HETATM    1  C1  UNK     1      18.255   4.067  32.498  1.00  0.00    -0.020 A 
HETATM    2  C6  UNK     1      17.651   6.757  32.924  1.00  0.00     0.035 A 
HETATM    3  C9  UNK     1      18.748   4.722  33.627  1.00  0.00     0.014 A 
HETATM    4  C10 UNK     1      17.461   4.756  31.583  1.00  0.00     0.014 A 
HETATM    5  C12 UNK     1      18.445   6.067  33.839  1.00  0.00     0.030 A 
HETATM    6  C13 UNK     1      17.159   6.102  31.795  1.00  0.00     0.030 A 
ENDROOT
BRANCH   2   7
HETATM    7  N1  UNK     1      17.351   8.103  33.136  1.00  0.00    -0.323 N 
HETATM    8  C15 UNK     1      16.985   8.727  34.334  1.00  0.00     0.256 C 
HETATM    9  O2  UNK     1      16.859   8.194  35.432  1.00  0.00    -0.267 OA
HETATM   10  H7  UNK     1      17.405   8.696  32.310  1.00  0.00     0.169 HD
BRANCH   8  11
HETATM   11  C3  UNK     1      16.698  10.182  34.234  1.00  0.00     0.038 A 
HETATM   12  C16 UNK     1      17.772  11.048  34.192  1.00  0.00     0.018 A 
HETATM   13  C18 UNK     1      17.530  12.418  34.098  1.00  0.00     0.008 A 
HETATM   14  C11 UNK     1      16.220  12.894  34.048  1.00  0.00    -0.061 A 
HETATM   15  C14 UNK     1      15.151  11.999  34.092  1.00  0.00     0.014 A 
HETATM   16  C22 UNK     1      15.961  14.359  33.947  1.00  0.00     0.048 C 
HETATM   17  C4  UNK     1      15.393  10.628  34.186  1.00  0.00    -0.046 A 
HETATM   18  C20 UNK     1      14.230   9.690  34.231  1.00  0.00     0.049 C 
ENDBRANCH   8  11
ENDBRANCH   2   7
BRANCH   1  19
HETATM   19  C2  UNK     1      18.574   2.645  32.275  1.00  0.00     0.051 A 
HETATM   20  C17 UNK     1      18.327   1.641  33.347  1.00  0.00     0.299 A 
HETATM   21  O1  UNK     1      18.627   0.314  33.050  1.00  0.00    -0.274 OA
HETATM   22  O3  UNK     1      17.887   1.958  34.447  1.00  0.00    -0.259 OA
HETATM   23  C8  UNK     1      19.156  -0.072  31.804  1.00  0.00     0.089 A 
HETATM   24  C21 UNK     1      19.433  -1.422  31.607  1.00  0.00     0.038 A 
HETATM   25  C5  UNK     1      19.389   0.877  30.815  1.00  0.00    -0.001 A 
HETATM   26  C24 UNK     1      19.959  -1.832  30.383  1.00  0.00     0.003 A 
HETATM   27  C23 UNK     1      20.200  -0.895  29.377  1.00  0.00     0.001 A 
HETATM   28  C19 UNK     1      19.916   0.457  29.591  1.00  0.00     0.014 A 
HETATM   29  C7  UNK     1      19.073   2.268  31.088  1.00  0.00     0.032 A 
ENDBRANCH   1  19
TORSDOF 3
ENDMDL
MODEL 10
REMARK VINA RESULT:      -8.6     22.283     24.007
REMARK  3 active torsions:
REMARK  status: ('A' for Active; 'I' for Inactive)
REMARK       I    between atoms: C15_19  and  N1_4 
REMARK    1  A    between atoms: C6_10  and  N1_4 
REMARK    2  A    between atoms: C1_5  and  C2_6 
REMARK    3  A    between atoms: C15_19  and  C3_7 
ROOT
HETATM    1  C1  UNK     1      14.548   8.632   9.045  1.00  0.00    -0.020 A 
HETATM    2  C6  UNK     1      17.073   9.737   9.470  1.00  0.00     0.035 A 
HETATM    3  C9  UNK     1      15.452   7.997   9.897  1.00  0.00     0.014 A 
HETATM    4  C10 UNK     1      14.905   9.818   8.406  1.00  0.00     0.014 A 
HETATM    5  C12 UNK     1      16.715   8.551  10.109  1.00  0.00     0.030 A 
HETATM    6  C13 UNK     1      16.169  10.371   8.618  1.00  0.00     0.030 A 
ENDROOT
BRANCH   2   7
HETATM    7  N1  UNK     1      18.337  10.289   9.681  1.00  0.00    -0.323 N 
HETATM    8  C15 UNK     1      18.652  11.563  10.170  1.00  0.00     0.256 C 
HETATM    9  O2  UNK     1      17.860  12.437  10.507  1.00  0.00    -0.267 OA
HETATM   10  H7  UNK     1      19.122   9.685   9.443  1.00  0.00     0.169 HD
BRANCH   8  11
HETATM   11  C3  UNK     1      20.103  11.873  10.256  1.00  0.00     0.038 A 
HETATM   12  C16 UNK     1      20.695  11.840  11.502  1.00  0.00     0.018 A 
HETATM   13  C18 UNK     1      22.055  12.126  11.610  1.00  0.00     0.008 A 
HETATM   14  C11 UNK     1      22.796  12.440  10.470  1.00  0.00    -0.061 A 
HETATM   15  C14 UNK     1      22.175  12.467   9.221  1.00  0.00     0.014 A 
HETATM   16  C22 UNK     1      24.250  12.746  10.586  1.00  0.00     0.048 C 
HETATM   17  C4  UNK     1      20.813  12.180   9.113  1.00  0.00    -0.046 A 
HETATM   18  C20 UNK     1      20.172  12.215   7.764  1.00  0.00     0.049 C 
ENDBRANCH   8  11
ENDBRANCH   2   7
BRANCH   1  19
HETATM   19  C2  UNK     1      13.213   8.047   8.822  1.00  0.00     0.051 A 
HETATM   20  C17 UNK     1      13.069   6.757   8.092  1.00  0.00     0.299 A 
HETATM   21  O1  UNK     1      11.778   6.254   7.947  1.00  0.00    -0.274 OA
HETATM   22  O3  UNK     1      14.035   6.159   7.630  1.00  0.00    -0.259 OA
HETATM   23  C8  UNK     1      10.652   6.934   8.446  1.00  0.00     0.089 A 
HETATM   24  C21 UNK     1       9.401   6.355   8.240  1.00  0.00     0.038 A 
HETATM   25  C5  UNK     1      10.799   8.141   9.118  1.00  0.00    -0.001 A 
HETATM   26  C24 UNK     1       8.268   7.007   8.722  1.00  0.00     0.003 A 
HETATM   27  C23 UNK     1       8.395   8.221   9.401  1.00  0.00     0.001 A 
HETATM   28  C19 UNK     1       9.657   8.788   9.599  1.00  0.00     0.014 A 
HETATM   29  C7  UNK     1      12.134   8.685   9.300  1.00  0.00     0.032 A 
ENDBRANCH   1  19
TORSDOF 3
ENDMDL
