MODEL 1
REMARK VINA RESULT:      -6.9      0.000      0.000
REMARK  5 active torsions:
REMARK  status: ('A' for Active; 'I' for Inactive)
REMARK    1  A    between atoms: C6_12  and  O2_2 
REMARK    2  A    between atoms: C8_14  and  O3_3 
REMARK    3  A    between atoms: C11_17  and  O5_5 
REMARK    4  A    between atoms: C2_8  and  C5_11 
REMARK    5  A    between atoms: C11_17  and  C5_11 
ROOT
HETATM    1  O1  UNK     1      19.661   0.847  29.435  1.00  0.00    -0.275 OA
HETATM    2  O4  UNK     1      20.630  -0.747  28.112  1.00  0.00    -0.260 OA
HETATM    3  C1  UNK     1      19.179   0.327  31.773  1.00  0.00     0.008 A 
HETATM    4  C2  UNK     1      19.735  -1.017  31.562  1.00  0.00    -0.029 A 
HETATM    5  C3  UNK     1      19.159   1.218  30.698  1.00  0.00     0.093 A 
HETATM    6  C4  UNK     1      18.662   0.773  32.996  1.00  0.00     0.054 A 
HETATM    7  C6  UNK     1      18.148   2.069  33.126  1.00  0.00     0.102 A 
HETATM    8  C7  UNK     1      18.650   2.513  30.813  1.00  0.00     0.077 A 
HETATM    9  C8  UNK     1      18.141   2.937  32.036  1.00  0.00     0.104 A 
HETATM   10  C9  UNK     1      20.204  -1.342  30.350  1.00  0.00     0.091 A 
HETATM   11  C10 UNK     1      20.192  -0.413  29.207  1.00  0.00     0.288 A 
ENDROOT
BRANCH   4  12
HETATM   12  C5  UNK     1      19.770  -1.998  32.697  1.00  0.00     0.149 C 
BRANCH  12  13
HETATM   13  C11 UNK     1      21.076  -2.744  32.693  1.00  0.00     0.143 C 
HETATM   14  O6  UNK     1      21.296  -3.842  32.205  1.00  0.00    -0.650 OA
BRANCH  13  15
HETATM   15  O5  UNK     1      22.018  -2.005  33.336  1.00  0.00    -0.776 OA
HETATM   16  H12 UNK     1      22.876  -2.475  33.390  1.00  0.00     0.167 HD
ENDBRANCH  13  15
ENDBRANCH  12  13
ENDBRANCH   4  12
BRANCH   7  17
HETATM   17  O2  UNK     1      17.653   2.471  34.331  1.00  0.00    -0.353 OA
HETATM   18  C12 UNK     1      18.388   2.089  35.492  1.00  0.00     0.210 C 
ENDBRANCH   7  17
BRANCH   9  19
HETATM   19  O3  UNK     1      17.642   4.198  32.155  1.00  0.00    -0.353 OA
HETATM   20  C13 UNK     1      18.584   5.268  32.197  1.00  0.00     0.210 C 
ENDBRANCH   9  19
TORSDOF 5
ENDMDL
MODEL 2
REMARK VINA RESULT:      -6.9     13.041     16.417
REMARK  5 active torsions:
REMARK  status: ('A' for Active; 'I' for Inactive)
REMARK    1  A    between atoms: C6_12  and  O2_2 
REMARK    2  A    between atoms: C8_14  and  O3_3 
REMARK    3  A    between atoms: C11_17  and  O5_5 
REMARK    4  A    between atoms: C2_8  and  C5_11 
REMARK    5  A    between atoms: C11_17  and  C5_11 
ROOT
HETATM    1  O1  UNK     1      19.331   1.331  15.140  1.00  0.00    -0.275 OA
HETATM    2  O4  UNK     1      19.451   3.354  16.199  1.00  0.00    -0.260 OA
HETATM    3  C1  UNK     1      19.043  -0.698  16.469  1.00  0.00     0.008 A 
HETATM    4  C2  UNK     1      19.038   0.129  17.684  1.00  0.00    -0.029 A 
HETATM    5  C3  UNK     1      19.191  -0.068  15.232  1.00  0.00     0.093 A 
HETATM    6  C4  UNK     1      18.909  -2.093  16.476  1.00  0.00     0.054 A 
HETATM    7  C6  UNK     1      18.922  -2.818  15.279  1.00  0.00     0.102 A 
HETATM    8  C7  UNK     1      19.205  -0.779  14.031  1.00  0.00     0.077 A 
HETATM    9  C8  UNK     1      19.071  -2.163  14.059  1.00  0.00     0.104 A 
HETATM   10  C9  UNK     1      19.174   1.457  17.565  1.00  0.00     0.091 A 
HETATM   11  C10 UNK     1      19.329   2.137  16.268  1.00  0.00     0.288 A 
ENDROOT
BRANCH   4  12
HETATM   12  C5  UNK     1      18.882  -0.518  19.029  1.00  0.00     0.149 C 
BRANCH  12  13
HETATM   13  C11 UNK     1      18.827   0.533  20.103  1.00  0.00     0.143 C 
HETATM   14  O6  UNK     1      19.751   1.220  20.511  1.00  0.00    -0.650 OA
BRANCH  13  15
HETATM   15  O5  UNK     1      17.558   0.618  20.584  1.00  0.00    -0.776 OA
HETATM   16  H12 UNK     1      17.429   1.421  21.132  1.00  0.00     0.167 HD
ENDBRANCH  13  15
ENDBRANCH  12  13
ENDBRANCH   4  12
BRANCH   7  17
HETATM   17  O2  UNK     1      18.788  -4.174  15.322  1.00  0.00    -0.353 OA
HETATM   18  C12 UNK     1      19.967  -4.934  15.587  1.00  0.00     0.210 C 
ENDBRANCH   7  17
BRANCH   9  19
HETATM   19  O3  UNK     1      19.085  -2.863  12.891  1.00  0.00    -0.353 OA
HETATM   20  C13 UNK     1      19.414  -2.142  11.705  1.00  0.00     0.210 C 
ENDBRANCH   9  19
TORSDOF 5
ENDMDL
MODEL 3
REMARK VINA RESULT:      -6.8      1.848      3.906
REMARK  5 active torsions:
REMARK  status: ('A' for Active; 'I' for Inactive)
REMARK    1  A    between atoms: C6_12  and  O2_2 
REMARK    2  A    between atoms: C8_14  and  O3_3 
REMARK    3  A    between atoms: C11_17  and  O5_5 
REMARK    4  A    between atoms: C2_8  and  C5_11 
REMARK    5  A    between atoms: C11_17  and  C5_11 
ROOT
HETATM    1  O1  UNK     1      18.615   0.782  33.364  1.00  0.00    -0.275 OA
HETATM    2  O4  UNK     1      18.976  -1.475  33.289  1.00  0.00    -0.260 OA
HETATM    3  C1  UNK     1      18.797   2.090  31.308  1.00  0.00     0.008 A 
HETATM    4  C2  UNK     1      19.122   0.855  30.582  1.00  0.00    -0.029 A 
HETATM    5  C3  UNK     1      18.554   2.013  32.681  1.00  0.00     0.093 A 
HETATM    6  C4  UNK     1      18.715   3.350  30.704  1.00  0.00     0.054 A 
HETATM    7  C6  UNK     1      18.400   4.487  31.458  1.00  0.00     0.102 A 
HETATM    8  C7  UNK     1      18.237   3.137  33.446  1.00  0.00     0.077 A 
HETATM    9  C8  UNK     1      18.162   4.381  32.826  1.00  0.00     0.104 A 
HETATM   10  C9  UNK     1      19.174  -0.302  31.258  1.00  0.00     0.091 A 
HETATM   11  C10 UNK     1      18.919  -0.399  32.705  1.00  0.00     0.288 A 
ENDROOT
BRANCH   4  12
HETATM   12  C5  UNK     1      19.389   0.903  29.106  1.00  0.00     0.149 C 
BRANCH  12  13
HETATM   13  C11 UNK     1      19.948  -0.413  28.640  1.00  0.00     0.143 C 
HETATM   14  O6  UNK     1      21.045  -0.882  28.899  1.00  0.00    -0.650 OA
BRANCH  13  15
HETATM   15  O5  UNK     1      19.031  -1.037  27.853  1.00  0.00    -0.776 OA
HETATM   16  H12 UNK     1      18.955  -0.610  26.974  1.00  0.00     0.167 HD
ENDBRANCH  13  15
ENDBRANCH  12  13
ENDBRANCH   4  12
BRANCH   7  17
HETATM   17  O2  UNK     1      18.329   5.698  30.837  1.00  0.00    -0.353 OA
HETATM   18  C12 UNK     1      19.441   6.078  30.029  1.00  0.00     0.210 C 
ENDBRANCH   7  17
BRANCH   9  19
HETATM   19  O3  UNK     1      17.855   5.482  33.566  1.00  0.00    -0.353 OA
HETATM   20  C13 UNK     1      18.946   6.262  34.052  1.00  0.00     0.210 C 
ENDBRANCH   9  19
TORSDOF 5
ENDMDL
MODEL 4
REMARK VINA RESULT:      -6.8      1.902      4.471
REMARK  5 active torsions:
REMARK  status: ('A' for Active; 'I' for Inactive)
REMARK    1  A    between atoms: C6_12  and  O2_2 
REMARK    2  A    between atoms: C8_14  and  O3_3 
REMARK    3  A    between atoms: C11_17  and  O5_5 
REMARK    4  A    between atoms: C2_8  and  C5_11 
REMARK    5  A    between atoms: C11_17  and  C5_11 
ROOT
HETATM    1  O1  UNK     1      19.906  -2.008  31.390  1.00  0.00    -0.275 OA
HETATM    2  O4  UNK     1      20.813  -2.387  29.325  1.00  0.00    -0.260 OA
HETATM    3  C1  UNK     1      19.133   0.238  31.960  1.00  0.00     0.008 A 
HETATM    4  C2  UNK     1      19.549   0.692  30.626  1.00  0.00    -0.029 A 
HETATM    5  C3  UNK     1      19.327  -1.102  32.301  1.00  0.00     0.093 A 
HETATM    6  C4  UNK     1      18.550   1.074  32.921  1.00  0.00     0.054 A 
HETATM    7  C6  UNK     1      18.177   0.574  34.174  1.00  0.00     0.102 A 
HETATM    8  C7  UNK     1      18.960  -1.615  33.546  1.00  0.00     0.077 A 
HETATM    9  C8  UNK     1      18.382  -0.768  34.486  1.00  0.00     0.104 A 
HETATM   10  C9  UNK     1      20.098  -0.192  29.782  1.00  0.00     0.091 A 
HETATM   11  C10 UNK     1      20.308  -1.608  30.125  1.00  0.00     0.288 A 
ENDROOT
BRANCH   4  12
HETATM   12  C5  UNK     1      19.355   2.127  30.230  1.00  0.00     0.149 C 
BRANCH  12  13
HETATM   13  C11 UNK     1      18.082   2.276  29.443  1.00  0.00     0.143 C 
HETATM   14  O6  UNK     1      17.953   2.213  28.230  1.00  0.00    -0.650 OA
BRANCH  13  15
HETATM   15  O5  UNK     1      17.049   2.506  30.297  1.00  0.00    -0.776 OA
HETATM   16  H12 UNK     1      17.161   3.348  30.786  1.00  0.00     0.167 HD
ENDBRANCH  13  15
ENDBRANCH  12  13
ENDBRANCH   4  12
BRANCH   7  17
HETATM   17  O2  UNK     1      17.612   1.415  35.085  1.00  0.00    -0.353 OA
HETATM   18  C12 UNK     1      18.499   2.130  35.945  1.00  0.00     0.210 C 
ENDBRANCH   7  17
BRANCH   9  19
HETATM   19  O3  UNK     1      18.023  -1.262  35.703  1.00  0.00    -0.353 OA
HETATM   20  C13 UNK     1      19.048  -1.872  36.485  1.00  0.00     0.210 C 
ENDBRANCH   9  19
TORSDOF 5
ENDMDL
MODEL 5
REMARK VINA RESULT:      -6.8      1.851      3.260
REMARK  5 active torsions:
REMARK  status: ('A' for Active; 'I' for Inactive)
REMARK    1  A    between atoms: C6_12  and  O2_2 
REMARK    2  A    between atoms: C8_14  and  O3_3 
REMARK    3  A    between atoms: C11_17  and  O5_5 
REMARK    4  A    between atoms: C2_8  and  C5_11 
REMARK    5  A    between atoms: C11_17  and  C5_11 
ROOT
HETATM    1  O1  UNK     1      19.544   0.020  30.522  1.00  0.00    -0.275 OA
HETATM    2  O4  UNK     1      19.985  -2.214  30.734  1.00  0.00    -0.260 OA
HETATM    3  C1  UNK     1      18.584   1.233  32.413  1.00  0.00     0.008 A 
HETATM    4  C2  UNK     1      18.594  -0.016  33.186  1.00  0.00    -0.029 A 
HETATM    5  C3  UNK     1      19.060   1.210  31.100  1.00  0.00     0.093 A 
HETATM    6  C4  UNK     1      18.120   2.456  32.914  1.00  0.00     0.054 A 
HETATM    7  C6  UNK     1      18.139   3.609  32.120  1.00  0.00     0.102 A 
HETATM    8  C7  UNK     1      19.086   2.352  30.297  1.00  0.00     0.077 A 
HETATM    9  C8  UNK     1      18.620   3.556  30.814  1.00  0.00     0.104 A 
HETATM   10  C9  UNK     1      19.060  -1.133  32.610  1.00  0.00     0.091 A 
HETATM   11  C10 UNK     1      19.567  -1.173  31.227  1.00  0.00     0.288 A 
ENDROOT
BRANCH   4  12
HETATM   12  C5  UNK     1      18.089  -0.025  34.599  1.00  0.00     0.149 C 
BRANCH  12  13
HETATM   13  C11 UNK     1      16.606  -0.280  34.615  1.00  0.00     0.143 C 
HETATM   14  O6  UNK     1      15.716   0.533  34.422  1.00  0.00    -0.650 OA
BRANCH  13  15
HETATM   15  O5  UNK     1      16.380  -1.592  34.889  1.00  0.00    -0.776 OA
HETATM   16  H12 UNK     1      15.458  -1.749  35.184  1.00  0.00     0.167 HD
ENDBRANCH  13  15
ENDBRANCH  12  13
ENDBRANCH   4  12
BRANCH   7  17
HETATM   17  O2  UNK     1      17.681   4.783  32.640  1.00  0.00    -0.353 OA
HETATM   18  C12 UNK     1      18.454   5.374  33.683  1.00  0.00     0.210 C 
ENDBRANCH   7  17
BRANCH   9  19
HETATM   19  O3  UNK     1      18.641   4.673  30.036  1.00  0.00    -0.353 OA
HETATM   20  C13 UNK     1      19.774   5.531  30.161  1.00  0.00     0.210 C 
ENDBRANCH   9  19
TORSDOF 5
ENDMDL
MODEL 6
REMARK VINA RESULT:      -6.6      3.984      6.691
REMARK  5 active torsions:
REMARK  status: ('A' for Active; 'I' for Inactive)
REMARK    1  A    between atoms: C6_12  and  O2_2 
REMARK    2  A    between atoms: C8_14  and  O3_3 
REMARK    3  A    between atoms: C11_17  and  O5_5 
REMARK    4  A    between atoms: C2_8  and  C5_11 
REMARK    5  A    between atoms: C11_17  and  C5_11 
ROOT
HETATM    1  O1  UNK     1      20.268   7.208  33.436  1.00  0.00    -0.275 OA
HETATM    2  O4  UNK     1      22.247   6.390  32.632  1.00  0.00    -0.260 OA
HETATM    3  C1  UNK     1      18.167   6.358  32.524  1.00  0.00     0.008 A 
HETATM    4  C2  UNK     1      18.938   5.479  31.634  1.00  0.00    -0.029 A 
HETATM    5  C3  UNK     1      18.860   7.198  33.399  1.00  0.00     0.093 A 
HETATM    6  C4  UNK     1      16.767   6.407  32.548  1.00  0.00     0.054 A 
HETATM    7  C6  UNK     1      16.097   7.270  33.424  1.00  0.00     0.102 A 
HETATM    8  C7  UNK     1      18.204   8.063  34.277  1.00  0.00     0.077 A 
HETATM    9  C8  UNK     1      16.814   8.097  34.286  1.00  0.00     0.104 A 
HETATM   10  C9  UNK     1      20.277   5.511  31.692  1.00  0.00     0.091 A 
HETATM   11  C10 UNK     1      21.022   6.390  32.609  1.00  0.00     0.288 A 
ENDROOT
BRANCH   4  12
HETATM   12  C5  UNK     1      18.223   4.566  30.682  1.00  0.00     0.149 C 
BRANCH  12  13
HETATM   13  C11 UNK     1      18.340   3.141  31.150  1.00  0.00     0.143 C 
HETATM   14  O6  UNK     1      17.759   2.623  32.091  1.00  0.00    -0.650 OA
BRANCH  13  15
HETATM   15  O5  UNK     1      19.220   2.477  30.353  1.00  0.00    -0.776 OA
HETATM   16  H12 UNK     1      20.084   2.937  30.302  1.00  0.00     0.167 HD
ENDBRANCH  13  15
ENDBRANCH  12  13
ENDBRANCH   4  12
BRANCH   7  17
HETATM   17  O2  UNK     1      14.734   7.292  33.422  1.00  0.00    -0.353 OA
HETATM   18  C12 UNK     1      14.086   7.189  32.155  1.00  0.00     0.210 C 
ENDBRANCH   7  17
BRANCH   9  19
HETATM   19  O3  UNK     1      16.168   8.938  35.139  1.00  0.00    -0.353 OA
HETATM   20  C13 UNK     1      15.935  10.270  34.685  1.00  0.00     0.210 C 
ENDBRANCH   9  19
TORSDOF 5
ENDMDL
MODEL 7
REMARK VINA RESULT:      -6.6      7.520     10.430
REMARK  5 active torsions:
REMARK  status: ('A' for Active; 'I' for Inactive)
REMARK    1  A    between atoms: C6_12  and  O2_2 
REMARK    2  A    between atoms: C8_14  and  O3_3 
REMARK    3  A    between atoms: C11_17  and  O5_5 
REMARK    4  A    between atoms: C2_8  and  C5_11 
REMARK    5  A    between atoms: C11_17  and  C5_11 
ROOT
HETATM    1  O1  UNK     1      22.491  -6.678  38.221  1.00  0.00    -0.275 OA
HETATM    2  O4  UNK     1      24.116  -7.936  39.223  1.00  0.00    -0.260 OA
HETATM    3  C1  UNK     1      20.195  -7.513  38.171  1.00  0.00     0.008 A 
HETATM    4  C2  UNK     1      20.643  -8.713  38.892  1.00  0.00    -0.029 A 
HETATM    5  C3  UNK     1      21.137  -6.532  37.857  1.00  0.00     0.093 A 
HETATM    6  C4  UNK     1      18.870  -7.292  37.774  1.00  0.00     0.054 A 
HETATM    7  C6  UNK     1      18.514  -6.125  37.089  1.00  0.00     0.102 A 
HETATM    8  C7  UNK     1      20.796  -5.363  37.175  1.00  0.00     0.077 A 
HETATM    9  C8  UNK     1      19.475  -5.162  36.789  1.00  0.00     0.104 A 
HETATM   10  C9  UNK     1      21.936  -8.825  39.225  1.00  0.00     0.091 A 
HETATM   11  C10 UNK     1      22.942  -7.798  38.902  1.00  0.00     0.288 A 
ENDROOT
BRANCH   4  12
HETATM   12  C5  UNK     1      19.655  -9.786  39.244  1.00  0.00     0.149 C 
BRANCH  12  13
HETATM   13  C11 UNK     1      19.686 -10.875  38.207  1.00  0.00     0.143 C 
HETATM   14  O6  UNK     1      19.928 -10.754  37.016  1.00  0.00    -0.650 OA
BRANCH  13  15
HETATM   15  O5  UNK     1      19.391 -12.064  38.796  1.00  0.00    -0.776 OA
HETATM   16  H12 UNK     1      18.514 -12.047  39.233  1.00  0.00     0.167 HD
ENDBRANCH  13  15
ENDBRANCH  12  13
ENDBRANCH   4  12
BRANCH   7  17
HETATM   17  O2  UNK     1      17.215  -5.941  36.718  1.00  0.00    -0.353 OA
HETATM   18  C12 UNK     1      16.671  -6.870  35.781  1.00  0.00     0.210 C 
ENDBRANCH   7  17
BRANCH   9  19
HETATM   19  O3  UNK     1      19.135  -4.025  36.123  1.00  0.00    -0.353 OA
HETATM   20  C13 UNK     1      20.115  -2.991  36.061  1.00  0.00     0.210 C 
ENDBRANCH   9  19
TORSDOF 5
ENDMDL
MODEL 8
REMARK VINA RESULT:      -6.6      5.319      8.686
REMARK  5 active torsions:
REMARK  status: ('A' for Active; 'I' for Inactive)
REMARK    1  A    between atoms: C6_12  and  O2_2 
REMARK    2  A    between atoms: C8_14  and  O3_3 
REMARK    3  A    between atoms: C11_17  and  O5_5 
REMARK    4  A    between atoms: C2_8  and  C5_11 
REMARK    5  A    between atoms: C11_17  and  C5_11 
ROOT
HETATM    1  O1  UNK     1      14.695   8.555  32.792  1.00  0.00    -0.275 OA
HETATM    2  O4  UNK     1      13.439   6.883  31.867  1.00  0.00    -0.260 OA
HETATM    3  C1  UNK     1      17.109   8.254  33.012  1.00  0.00     0.008 A 
HETATM    4  C2  UNK     1      16.973   6.923  32.403  1.00  0.00    -0.029 A 
HETATM    5  C3  UNK     1      15.961   9.029  33.188  1.00  0.00     0.093 A 
HETATM    6  C4  UNK     1      18.330   8.797  33.432  1.00  0.00     0.054 A 
HETATM    7  C6  UNK     1      18.387  10.072  34.005  1.00  0.00     0.102 A 
HETATM    8  C7  UNK     1      16.002  10.303  33.758  1.00  0.00     0.077 A 
HETATM    9  C8  UNK     1      17.225  10.824  34.169  1.00  0.00     0.104 A 
HETATM   10  C9  UNK     1      15.755   6.499  32.036  1.00  0.00     0.091 A 
HETATM   11  C10 UNK     1      14.536   7.305  32.214  1.00  0.00     0.288 A 
ENDROOT
BRANCH   4  12
HETATM   12  C5  UNK     1      18.187   6.066  32.200  1.00  0.00     0.149 C 
BRANCH  12  13
HETATM   13  C11 UNK     1      18.066   4.802  33.007  1.00  0.00     0.143 C 
HETATM   14  O6  UNK     1      17.846   3.676  32.587  1.00  0.00    -0.650 OA
BRANCH  13  15
HETATM   15  O5  UNK     1      18.238   5.092  34.324  1.00  0.00    -0.776 OA
HETATM   16  H12 UNK     1      18.027   6.029  34.522  1.00  0.00     0.167 HD
ENDBRANCH  13  15
ENDBRANCH  12  13
ENDBRANCH   4  12
BRANCH   7  17
HETATM   17  O2  UNK     1      19.592  10.571  34.402  1.00  0.00    -0.353 OA
HETATM   18  C12 UNK     1      20.664   9.640  34.539  1.00  0.00     0.210 C 
ENDBRANCH   7  17
BRANCH   9  19
HETATM   19  O3  UNK     1      17.273  12.065  34.726  1.00  0.00    -0.353 OA
HETATM   20  C13 UNK     1      16.056  12.586  35.257  1.00  0.00     0.210 C 
ENDBRANCH   9  19
TORSDOF 5
ENDMDL
MODEL 9
REMARK VINA RESULT:      -6.6      2.610      5.365
REMARK  5 active torsions:
REMARK  status: ('A' for Active; 'I' for Inactive)
REMARK    1  A    between atoms: C6_12  and  O2_2 
REMARK    2  A    between atoms: C8_14  and  O3_3 
REMARK    3  A    between atoms: C11_17  and  O5_5 
REMARK    4  A    between atoms: C2_8  and  C5_11 
REMARK    5  A    between atoms: C11_17  and  C5_11 
ROOT
HETATM    1  O1  UNK     1      18.669   1.042  31.324  1.00  0.00    -0.275 OA
HETATM    2  O4  UNK     1      18.746   2.069  29.282  1.00  0.00    -0.260 OA
HETATM    3  C1  UNK     1      18.270   2.388  33.323  1.00  0.00     0.008 A 
HETATM    4  C2  UNK     1      18.196   3.584  32.473  1.00  0.00    -0.029 A 
HETATM    5  C3  UNK     1      18.506   1.151  32.719  1.00  0.00     0.093 A 
HETATM    6  C4  UNK     1      18.118   2.412  34.716  1.00  0.00     0.054 A 
HETATM    7  C6  UNK     1      18.200   1.232  35.465  1.00  0.00     0.102 A 
HETATM    8  C7  UNK     1      18.590  -0.033  33.453  1.00  0.00     0.077 A 
HETATM    9  C8  UNK     1      18.436   0.012  34.835  1.00  0.00     0.104 A 
HETATM   10  C9  UNK     1      18.356   3.449  31.149  1.00  0.00     0.091 A 
HETATM   11  C10 UNK     1      18.604   2.152  30.496  1.00  0.00     0.288 A 
ENDROOT
BRANCH   4  12
HETATM   12  C5  UNK     1      17.944   4.927  33.091  1.00  0.00     0.149 C 
BRANCH  12  13
HETATM   13  C11 UNK     1      19.240   5.675  33.246  1.00  0.00     0.143 C 
HETATM   14  O6  UNK     1      19.827   6.319  32.389  1.00  0.00    -0.650 OA
BRANCH  13  15
HETATM   15  O5  UNK     1      19.694   5.529  34.519  1.00  0.00    -0.776 OA
HETATM   16  H12 UNK     1      19.014   5.779  35.179  1.00  0.00     0.167 HD
ENDBRANCH  13  15
ENDBRANCH  12  13
ENDBRANCH   4  12
BRANCH   7  17
HETATM   17  O2  UNK     1      18.047   1.291  36.818  1.00  0.00    -0.353 OA
HETATM   18  C12 UNK     1      16.718   1.448  37.313  1.00  0.00     0.210 C 
ENDBRANCH   7  17
BRANCH   9  19
HETATM   19  O3  UNK     1      18.518  -1.138  35.558  1.00  0.00    -0.353 OA
HETATM   20  C13 UNK     1      19.709  -1.911  35.417  1.00  0.00     0.210 C 
ENDBRANCH   9  19
TORSDOF 5
ENDMDL
MODEL 10
REMARK VINA RESULT:      -6.6      2.006      5.350
REMARK  5 active torsions:
REMARK  status: ('A' for Active; 'I' for Inactive)
REMARK    1  A    between atoms: C6_12  and  O2_2 
REMARK    2  A    between atoms: C8_14  and  O3_3 
REMARK    3  A    between atoms: C11_17  and  O5_5 
REMARK    4  A    between atoms: C2_8  and  C5_11 
REMARK    5  A    between atoms: C11_17  and  C5_11 
ROOT
HETATM    1  O1  UNK     1      17.912   3.717  33.555  1.00  0.00    -0.275 OA
HETATM    2  O4  UNK     1      17.796   5.618  32.290  1.00  0.00    -0.260 OA
HETATM    3  C1  UNK     1      18.552   1.612  32.491  1.00  0.00     0.008 A 
HETATM    4  C2  UNK     1      18.675   2.325  31.213  1.00  0.00    -0.029 A 
HETATM    5  C3  UNK     1      18.172   2.333  33.625  1.00  0.00     0.093 A 
HETATM    6  C4  UNK     1      18.793   0.241  32.645  1.00  0.00     0.054 A 
HETATM    7  C6  UNK     1      18.656  -0.374  33.895  1.00  0.00     0.102 A 
HETATM    8  C7  UNK     1      18.032   1.733  34.878  1.00  0.00     0.077 A 
HETATM    9  C8  UNK     1      18.276   0.370  35.009  1.00  0.00     0.104 A 
HETATM   10  C9  UNK     1      18.421   3.641  31.176  1.00  0.00     0.091 A 
HETATM   11  C10 UNK     1      18.021   4.416  32.363  1.00  0.00     0.288 A 
ENDROOT
BRANCH   4  12
HETATM   12  C5  UNK     1      19.081   1.579  29.976  1.00  0.00     0.149 C 
BRANCH  12  13
HETATM   13  C11 UNK     1      18.077   1.812  28.880  1.00  0.00     0.143 C 
HETATM   14  O6  UNK     1      18.017   2.770  28.126  1.00  0.00    -0.650 OA
BRANCH  13  15
HETATM   15  O5  UNK     1      17.204   0.770  28.842  1.00  0.00    -0.776 OA
HETATM   16  H12 UNK     1      17.268   0.212  29.646  1.00  0.00     0.167 HD
ENDBRANCH  13  15
ENDBRANCH  12  13
ENDBRANCH   4  12
BRANCH   7  17
HETATM   17  O2  UNK     1      18.899  -1.711  34.009  1.00  0.00    -0.353 OA
HETATM   18  C12 UNK     1      20.154  -2.185  33.522  1.00  0.00     0.210 C 
ENDBRANCH   7  17
BRANCH   9  19
HETATM   19  O3  UNK     1      18.141  -0.222  36.227  1.00  0.00    -0.353 OA
HETATM   20  C13 UNK     1      17.557   0.559  37.268  1.00  0.00     0.210 C 
ENDBRANCH   9  19
TORSDOF 5
ENDMDL
