MODEL 1
REMARK VINA RESULT:      -6.7      0.000      0.000
REMARK  1 active torsions:
REMARK  status: ('A' for Active; 'I' for Inactive)
REMARK    1  A    between atoms: C2_5  and  O2_2 
ROOT
HETATM    1  O1  UNK     1      17.949   9.237  34.274  1.00  0.00    -0.274 OA
HETATM    2  O3  UNK     1      16.423  10.759  35.000  1.00  0.00    -0.259 OA
HETATM    3  C1  UNK     1      17.415   7.758  32.421  1.00  0.00     0.033 A 
HETATM    4  C2  UNK     1      16.100   8.396  32.332  1.00  0.00     0.093 A 
HETATM    5  C3  UNK     1      18.305   8.201  33.394  1.00  0.00     0.092 A 
HETATM    6  C4  UNK     1      15.756   9.392  33.170  1.00  0.00     0.048 A 
HETATM    7  C5  UNK     1      17.833   6.721  31.576  1.00  0.00     0.024 A 
HETATM    8  C6  UNK     1      19.105   6.156  31.715  1.00  0.00    -0.061 A 
HETATM    9  C7  UNK     1      19.578   7.648  33.546  1.00  0.00     0.039 A 
HETATM   10  C8  UNK     1      19.977   6.620  32.700  1.00  0.00     0.009 A 
HETATM   11  C9  UNK     1      16.710   9.861  34.215  1.00  0.00     0.297 A 
HETATM   12  C10 UNK     1      14.442  10.127  33.163  1.00  0.00     0.058 C 
HETATM   13  C11 UNK     1      19.531   5.053  30.805  1.00  0.00     0.048 C 
ENDROOT
BRANCH   4  14
HETATM   14  O2  UNK     1      15.285   7.888  31.343  1.00  0.00    -0.354 OA
HETATM   15  C12 UNK     1      14.297   7.037  31.891  1.00  0.00     0.210 C 
ENDBRANCH   4  14
TORSDOF 1
ENDMDL
MODEL 2
REMARK VINA RESULT:      -6.5      7.292      9.557
REMARK  1 active torsions:
REMARK  status: ('A' for Active; 'I' for Inactive)
REMARK    1  A    between atoms: C2_5  and  O2_2 
ROOT
HETATM    1  O1  UNK     1      20.584  -2.052  32.395  1.00  0.00    -0.274 OA
HETATM    2  O3  UNK     1      20.607  -3.140  34.392  1.00  0.00    -0.259 OA
HETATM    3  C1  UNK     1      19.107  -0.154  32.053  1.00  0.00     0.033 A 
HETATM    4  C2  UNK     1      18.628  -0.318  33.427  1.00  0.00     0.093 A 
HETATM    5  C3  UNK     1      20.076  -1.030  31.576  1.00  0.00     0.092 A 
HETATM    6  C4  UNK     1      19.116  -1.294  34.218  1.00  0.00     0.048 A 
HETATM    7  C5  UNK     1      18.642   0.844  31.185  1.00  0.00     0.024 A 
HETATM    8  C6  UNK     1      19.143   0.946  29.883  1.00  0.00    -0.061 A 
HETATM    9  C7  UNK     1      20.586  -0.942  30.280  1.00  0.00     0.039 A 
HETATM   10  C8  UNK     1      20.114   0.053  29.431  1.00  0.00     0.009 A 
HETATM   11  C9  UNK     1      20.151  -2.235  33.701  1.00  0.00     0.297 A 
HETATM   12  C10 UNK     1      18.710  -1.549  35.645  1.00  0.00     0.058 C 
HETATM   13  C11 UNK     1      18.635   2.015  28.974  1.00  0.00     0.048 C 
ENDROOT
BRANCH   4  14
HETATM   14  O2  UNK     1      17.666   0.591  33.810  1.00  0.00    -0.354 OA
HETATM   15  C12 UNK     1      18.249   1.687  34.488  1.00  0.00     0.210 C 
ENDBRANCH   4  14
TORSDOF 1
ENDMDL
MODEL 3
REMARK VINA RESULT:      -6.4      7.934      9.475
REMARK  1 active torsions:
REMARK  status: ('A' for Active; 'I' for Inactive)
REMARK    1  A    between atoms: C2_5  and  O2_2 
ROOT
HETATM    1  O1  UNK     1      19.177  -1.989  36.059  1.00  0.00    -0.274 OA
HETATM    2  O3  UNK     1      18.095  -1.327  37.948  1.00  0.00    -0.259 OA
HETATM    3  C1  UNK     1      18.733  -0.881  33.943  1.00  0.00     0.033 A 
HETATM    4  C2  UNK     1      17.781  -0.010  34.635  1.00  0.00     0.093 A 
HETATM    5  C3  UNK     1      19.406  -1.849  34.680  1.00  0.00     0.092 A 
HETATM    6  C4  UNK     1      17.561  -0.136  35.957  1.00  0.00     0.048 A 
HETATM    7  C5  UNK     1      19.008  -0.794  32.572  1.00  0.00     0.024 A 
HETATM    8  C6  UNK     1      19.930  -1.658  31.973  1.00  0.00    -0.061 A 
HETATM    9  C7  UNK     1      20.330  -2.719  34.098  1.00  0.00     0.039 A 
HETATM   10  C8  UNK     1      20.591  -2.620  32.736  1.00  0.00     0.009 A 
HETATM   11  C9  UNK     1      18.281  -1.180  36.744  1.00  0.00     0.297 A 
HETATM   12  C10 UNK     1      16.619   0.708  36.773  1.00  0.00     0.058 C 
HETATM   13  C11 UNK     1      20.209  -1.550  30.511  1.00  0.00     0.048 C 
ENDROOT
BRANCH   4  14
HETATM   14  O2  UNK     1      17.158   0.915  33.823  1.00  0.00    -0.354 OA
HETATM   15  C12 UNK     1      17.904   2.114  33.760  1.00  0.00     0.210 C 
ENDBRANCH   4  14
TORSDOF 1
ENDMDL
MODEL 4
REMARK VINA RESULT:      -6.4      5.794      8.852
REMARK  1 active torsions:
REMARK  status: ('A' for Active; 'I' for Inactive)
REMARK    1  A    between atoms: C2_5  and  O2_2 
ROOT
HETATM    1  O1  UNK     1      19.375   1.168  28.862  1.00  0.00    -0.274 OA
HETATM    2  O3  UNK     1      20.055  -0.845  28.048  1.00  0.00    -0.259 OA
HETATM    3  C1  UNK     1      19.051   1.475  31.251  1.00  0.00     0.033 A 
HETATM    4  C2  UNK     1      19.454   0.082  31.453  1.00  0.00     0.093 A 
HETATM    5  C3  UNK     1      19.024   1.979  29.954  1.00  0.00     0.092 A 
HETATM    6  C4  UNK     1      19.795  -0.698  30.410  1.00  0.00     0.048 A 
HETATM    7  C5  UNK     1      18.690   2.337  32.295  1.00  0.00     0.024 A 
HETATM    8  C6  UNK     1      18.315   3.659  32.032  1.00  0.00    -0.061 A 
HETATM    9  C7  UNK     1      18.653   3.295  29.674  1.00  0.00     0.039 A 
HETATM   10  C8  UNK     1      18.297   4.137  30.722  1.00  0.00     0.009 A 
HETATM   11  C9  UNK     1      19.760  -0.156  29.021  1.00  0.00     0.297 A 
HETATM   12  C10 UNK     1      20.236  -2.135  30.498  1.00  0.00     0.058 C 
HETATM   13  C11 UNK     1      17.934   4.561  33.157  1.00  0.00     0.048 C 
ENDROOT
BRANCH   4  14
HETATM   14  O2  UNK     1      19.445  -0.330  32.769  1.00  0.00    -0.354 OA
HETATM   15  C12 UNK     1      18.287  -1.091  33.051  1.00  0.00     0.210 C 
ENDBRANCH   4  14
TORSDOF 1
ENDMDL
MODEL 5
REMARK VINA RESULT:      -6.4     17.779     19.890
REMARK  1 active torsions:
REMARK  status: ('A' for Active; 'I' for Inactive)
REMARK    1  A    between atoms: C2_5  and  O2_2 
ROOT
HETATM    1  O1  UNK     1      28.031  -4.949  38.748  1.00  0.00    -0.274 OA
HETATM    2  O3  UNK     1      25.769  -5.094  38.935  1.00  0.00    -0.259 OA
HETATM    3  C1  UNK     1      29.360  -6.952  38.392  1.00  0.00     0.033 A 
HETATM    4  C2  UNK     1      28.123  -7.737  38.405  1.00  0.00     0.093 A 
HETATM    5  C3  UNK     1      29.276  -5.575  38.564  1.00  0.00     0.092 A 
HETATM    6  C4  UNK     1      26.928  -7.142  38.576  1.00  0.00     0.048 A 
HETATM    7  C5  UNK     1      30.631  -7.513  38.213  1.00  0.00     0.024 A 
HETATM    8  C6  UNK     1      31.774  -6.705  38.211  1.00  0.00    -0.061 A 
HETATM    9  C7  UNK     1      30.405  -4.754  38.565  1.00  0.00     0.039 A 
HETATM   10  C8  UNK     1      31.660  -5.326  38.386  1.00  0.00     0.009 A 
HETATM   11  C9  UNK     1      26.842  -5.665  38.766  1.00  0.00     0.297 A 
HETATM   12  C10 UNK     1      25.595  -7.842  38.594  1.00  0.00     0.058 C 
HETATM   13  C11 UNK     1      33.119  -7.321  38.019  1.00  0.00     0.048 C 
ENDROOT
BRANCH   4  14
HETATM   14  O2  UNK     1      28.305  -9.093  38.232  1.00  0.00    -0.354 OA
HETATM   15  C12 UNK     1      28.215  -9.775  39.467  1.00  0.00     0.210 C 
ENDBRANCH   4  14
TORSDOF 1
ENDMDL
MODEL 6
REMARK VINA RESULT:      -6.3      8.313     10.596
REMARK  1 active torsions:
REMARK  status: ('A' for Active; 'I' for Inactive)
REMARK    1  A    between atoms: C2_5  and  O2_2 
ROOT
HETATM    1  O1  UNK     1      20.463  -2.834  34.113  1.00  0.00    -0.274 OA
HETATM    2  O3  UNK     1      21.574  -3.715  32.334  1.00  0.00    -0.259 OA
HETATM    3  C1  UNK     1      18.877  -1.022  33.790  1.00  0.00     0.033 A 
HETATM    4  C2  UNK     1      19.164  -1.068  32.355  1.00  0.00     0.093 A 
HETATM    5  C3  UNK     1      19.539  -1.911  34.630  1.00  0.00     0.092 A 
HETATM    6  C4  UNK     1      20.046  -1.954  31.853  1.00  0.00     0.048 A 
HETATM    7  C5  UNK     1      17.968  -0.128  34.370  1.00  0.00     0.024 A 
HETATM    8  C6  UNK     1      17.740  -0.137  35.751  1.00  0.00    -0.061 A 
HETATM    9  C7  UNK     1      19.323  -1.934  36.009  1.00  0.00     0.039 A 
HETATM   10  C8  UNK     1      18.418  -1.040  36.569  1.00  0.00     0.009 A 
HETATM   11  C9  UNK     1      20.757  -2.903  32.758  1.00  0.00     0.297 A 
HETATM   12  C10 UNK     1      20.409  -2.101  30.400  1.00  0.00     0.058 C 
HETATM   13  C11 UNK     1      16.767   0.824  36.349  1.00  0.00     0.048 C 
ENDROOT
BRANCH   4  14
HETATM   14  O2  UNK     1      18.466  -0.147  31.603  1.00  0.00    -0.354 OA
HETATM   15  C12 UNK     1      19.307   0.918  31.203  1.00  0.00     0.210 C 
ENDBRANCH   4  14
TORSDOF 1
ENDMDL
MODEL 7
REMARK VINA RESULT:      -6.3      1.197      3.175
REMARK  1 active torsions:
REMARK  status: ('A' for Active; 'I' for Inactive)
REMARK    1  A    between atoms: C2_5  and  O2_2 
ROOT
HETATM    1  O1  UNK     1      15.981   6.212  31.639  1.00  0.00    -0.274 OA
HETATM    2  O3  UNK     1      13.835   6.875  32.000  1.00  0.00    -0.259 OA
HETATM    3  C1  UNK     1      17.798   7.202  32.913  1.00  0.00     0.033 A 
HETATM    4  C2  UNK     1      16.813   8.028  33.616  1.00  0.00     0.093 A 
HETATM    5  C3  UNK     1      17.349   6.314  31.941  1.00  0.00     0.092 A 
HETATM    6  C4  UNK     1      15.500   7.930  33.334  1.00  0.00     0.048 A 
HETATM    7  C5  UNK     1      19.175   7.256  33.164  1.00  0.00     0.024 A 
HETATM    8  C6  UNK     1      20.062   6.438  32.456  1.00  0.00    -0.061 A 
HETATM    9  C7  UNK     1      18.220   5.492  31.225  1.00  0.00     0.039 A 
HETATM   10  C8  UNK     1      19.584   5.557  31.487  1.00  0.00     0.009 A 
HETATM   11  C9  UNK     1      15.023   6.980  32.287  1.00  0.00     0.297 A 
HETATM   12  C10 UNK     1      14.401   8.714  33.999  1.00  0.00     0.058 C 
HETATM   13  C11 UNK     1      21.525   6.510  32.739  1.00  0.00     0.048 C 
ENDROOT
BRANCH   4  14
HETATM   14  O2  UNK     1      17.350   8.881  34.556  1.00  0.00    -0.354 OA
HETATM   15  C12 UNK     1      17.544  10.172  34.013  1.00  0.00     0.210 C 
ENDBRANCH   4  14
TORSDOF 1
ENDMDL
MODEL 8
REMARK VINA RESULT:      -6.2      7.946     10.005
REMARK  1 active torsions:
REMARK  status: ('A' for Active; 'I' for Inactive)
REMARK    1  A    between atoms: C2_5  and  O2_2 
ROOT
HETATM    1  O1  UNK     1      20.360  -2.764  34.104  1.00  0.00    -0.274 OA
HETATM    2  O3  UNK     1      19.841  -3.082  36.296  1.00  0.00    -0.259 OA
HETATM    3  C1  UNK     1      19.280  -0.996  32.835  1.00  0.00     0.033 A 
HETATM    4  C2  UNK     1      18.532  -0.631  34.040  1.00  0.00     0.093 A 
HETATM    5  C3  UNK     1      20.176  -2.057  32.904  1.00  0.00     0.092 A 
HETATM    6  C4  UNK     1      18.708  -1.302  35.193  1.00  0.00     0.048 A 
HETATM    7  C5  UNK     1      19.145  -0.333  31.608  1.00  0.00     0.024 A 
HETATM    8  C6  UNK     1      19.891  -0.733  30.494  1.00  0.00    -0.061 A 
HETATM    9  C7  UNK     1      20.928  -2.470  31.803  1.00  0.00     0.039 A 
HETATM   10  C8  UNK     1      20.782  -1.801  30.592  1.00  0.00     0.009 A 
HETATM   11  C9  UNK     1      19.666  -2.443  35.262  1.00  0.00     0.297 A 
HETATM   12  C10 UNK     1      18.007  -1.009  36.493  1.00  0.00     0.058 C 
HETATM   13  C11 UNK     1      19.732  -0.014  29.196  1.00  0.00     0.048 C 
ENDROOT
BRANCH   4  14
HETATM   14  O2  UNK     1      17.665   0.428  33.874  1.00  0.00    -0.354 OA
HETATM   15  C12 UNK     1      18.256   1.637  34.311  1.00  0.00     0.210 C 
ENDBRANCH   4  14
TORSDOF 1
ENDMDL
MODEL 9
REMARK VINA RESULT:      -6.2     18.616     19.478
REMARK  1 active torsions:
REMARK  status: ('A' for Active; 'I' for Inactive)
REMARK    1  A    between atoms: C2_5  and  O2_2 
ROOT
HETATM    1  O1  UNK     1      28.429  -5.667  39.595  1.00  0.00    -0.274 OA
HETATM    2  O3  UNK     1      29.583  -3.735  39.930  1.00  0.00    -0.259 OA
HETATM    3  C1  UNK     1      28.553  -6.812  37.456  1.00  0.00     0.033 A 
HETATM    4  C2  UNK     1      29.459  -5.763  36.983  1.00  0.00     0.093 A 
HETATM    5  C3  UNK     1      28.064  -6.731  38.755  1.00  0.00     0.092 A 
HETATM    6  C4  UNK     1      29.817  -4.743  37.786  1.00  0.00     0.048 A 
HETATM    7  C5  UNK     1      28.149  -7.899  36.670  1.00  0.00     0.024 A 
HETATM    8  C6  UNK     1      27.281  -8.868  37.184  1.00  0.00    -0.061 A 
HETATM    9  C7  UNK     1      27.196  -7.689  39.284  1.00  0.00     0.039 A 
HETATM   10  C8  UNK     1      26.805  -8.762  38.491  1.00  0.00     0.009 A 
HETATM   11  C9  UNK     1      29.285  -4.657  39.177  1.00  0.00     0.297 A 
HETATM   12  C10 UNK     1      30.748  -3.620  37.414  1.00  0.00     0.058 C 
HETATM   13  C11 UNK     1      26.863 -10.018  36.332  1.00  0.00     0.048 C 
ENDROOT
BRANCH   4  14
HETATM   14  O2  UNK     1      29.889  -5.923  35.682  1.00  0.00    -0.354 OA
HETATM   15  C12 UNK     1      31.158  -6.546  35.644  1.00  0.00     0.210 C 
ENDBRANCH   4  14
TORSDOF 1
ENDMDL
MODEL 10
REMARK VINA RESULT:      -6.2     22.735     24.497
REMARK  1 active torsions:
REMARK  status: ('A' for Active; 'I' for Inactive)
REMARK    1  A    between atoms: C2_5  and  O2_2 
ROOT
HETATM    1  O1  UNK     1      14.360   5.455   8.208  1.00  0.00    -0.274 OA
HETATM    2  O3  UNK     1      16.433   5.512   9.142  1.00  0.00    -0.259 OA
HETATM    3  C1  UNK     1      12.560   6.795   9.142  1.00  0.00     0.033 A 
HETATM    4  C2  UNK     1      13.498   7.294  10.150  1.00  0.00     0.093 A 
HETATM    5  C3  UNK     1      13.023   5.886   8.196  1.00  0.00     0.092 A 
HETATM    6  C4  UNK     1      14.781   6.889  10.164  1.00  0.00     0.048 A 
HETATM    7  C5  UNK     1      11.216   7.183   9.074  1.00  0.00     0.024 A 
HETATM    8  C6  UNK     1      10.373   6.667   8.083  1.00  0.00    -0.061 A 
HETATM    9  C7  UNK     1      12.196   5.362   7.201  1.00  0.00     0.039 A 
HETATM   10  C8  UNK     1      10.864   5.757   7.148  1.00  0.00     0.009 A 
HETATM   11  C9  UNK     1      15.272   5.909   9.151  1.00  0.00     0.297 A 
HETATM   12  C10 UNK     1      15.833   7.342  11.140  1.00  0.00     0.058 C 
HETATM   13  C11 UNK     1       8.944   7.093   8.028  1.00  0.00     0.048 C 
ENDROOT
BRANCH   4  14
HETATM   14  O2  UNK     1      12.949   8.186  11.048  1.00  0.00    -0.354 OA
HETATM   15  C12 UNK     1      13.188   9.520  10.644  1.00  0.00     0.210 C 
ENDBRANCH   4  14
TORSDOF 1
ENDMDL
