MODEL 1
REMARK VINA RESULT:     -10.6      0.000      0.000
REMARK  3 active torsions:
REMARK  status: ('A' for Active; 'I' for Inactive)
REMARK    1  A    between atoms: C8_14  and  O2_2 
REMARK       I    between atoms: C14_20  and  N1_6 
REMARK    2  A    between atoms: C5_11  and  N1_6 
REMARK    3  A    between atoms: C13_19  and  C14_20 
ROOT
HETATM    1  O1  UNK     1      14.935   8.294  32.756  1.00  0.00    -0.309 OA
HETATM    2  C1  UNK     1      17.039   8.550  33.545  1.00  0.00     0.014 A 
HETATM    3  C2  UNK     1      16.351   9.792  33.687  1.00  0.00     0.011 A 
HETATM    4  C3  UNK     1      16.127   7.670  32.971  1.00  0.00     0.089 A 
HETATM    5  C4  UNK     1      15.070   9.578  33.189  1.00  0.00     0.087 A 
HETATM    6  C5  UNK     1      17.699   5.892  32.968  1.00  0.00     0.071 A 
HETATM    7  C6  UNK     1      18.330   8.077  33.839  1.00  0.00     0.054 A 
HETATM    8  C7  UNK     1      16.410   6.340  32.667  1.00  0.00     0.070 A 
HETATM    9  C8  UNK     1      18.645   6.744  33.545  1.00  0.00     0.096 A 
HETATM   10  C9  UNK     1      16.672  11.069  34.181  1.00  0.00     0.015 A 
HETATM   11  C10 UNK     1      14.074  10.554  33.147  1.00  0.00     0.038 A 
HETATM   12  C11 UNK     1      15.693  12.071  34.153  1.00  0.00     0.001 A 
HETATM   13  C12 UNK     1      14.417  11.815  33.644  1.00  0.00     0.003 A 
ENDROOT
BRANCH   6  14
HETATM   14  N1  UNK     1      18.032   4.565  32.681  1.00  0.00    -0.320 N 
HETATM   15  C14 UNK     1      18.347   4.011  31.440  1.00  0.00     0.262 C 
HETATM   16  O4  UNK     1      18.395   4.570  30.350  1.00  0.00    -0.267 OA
HETATM   17  H5  UNK     1      18.062   3.958  33.496  1.00  0.00     0.169 HD
BRANCH  15  18
HETATM   18  C13 UNK     1      18.648   2.567  31.527  1.00  0.00     0.108 A 
HETATM   19  C16 UNK     1      19.200   2.011  30.442  1.00  0.00     0.037 A 
HETATM   20  C15 UNK     1      19.533   0.596  30.433  1.00  0.00    -0.001 A 
HETATM   21  C17 UNK     1      19.268  -0.165  31.566  1.00  0.00     0.089 A 
HETATM   22  C19 UNK     1      20.110  -0.026  29.323  1.00  0.00     0.014 A 
HETATM   23  O3  UNK     1      18.687   0.425  32.706  1.00  0.00    -0.274 OA
HETATM   24  C20 UNK     1      19.562  -1.526  31.622  1.00  0.00     0.038 A 
HETATM   25  C18 UNK     1      18.358   1.777  32.745  1.00  0.00     0.304 A 
HETATM   26  O5  UNK     1      17.852   2.283  33.741  1.00  0.00    -0.259 OA
HETATM   27  C23 UNK     1      20.137  -2.138  30.510  1.00  0.00     0.003 A 
HETATM   28  C21 UNK     1      20.410  -1.391  29.363  1.00  0.00     0.001 A 
ENDBRANCH  15  18
ENDBRANCH   6  14
BRANCH   9  29
HETATM   29  O2  UNK     1      19.901   6.292  33.833  1.00  0.00    -0.354 OA
HETATM   30  C22 UNK     1      20.905   6.505  32.846  1.00  0.00     0.210 C 
ENDBRANCH   9  29
TORSDOF 3
ENDMDL
MODEL 2
REMARK VINA RESULT:     -10.0      1.205      9.386
REMARK  3 active torsions:
REMARK  status: ('A' for Active; 'I' for Inactive)
REMARK    1  A    between atoms: C8_14  and  O2_2 
REMARK       I    between atoms: C14_20  and  N1_6 
REMARK    2  A    between atoms: C5_11  and  N1_6 
REMARK    3  A    between atoms: C13_19  and  C14_20 
ROOT
HETATM    1  O1  UNK     1      18.641   0.853  32.783  1.00  0.00    -0.309 OA
HETATM    2  C1  UNK     1      19.116   1.975  30.878  1.00  0.00     0.014 A 
HETATM    3  C2  UNK     1      19.447   0.602  30.685  1.00  0.00     0.011 A 
HETATM    4  C3  UNK     1      18.627   2.073  32.177  1.00  0.00     0.089 A 
HETATM    5  C4  UNK     1      19.137  -0.038  31.880  1.00  0.00     0.087 A 
HETATM    6  C5  UNK     1      18.258   4.408  31.965  1.00  0.00     0.071 A 
HETATM    7  C6  UNK     1      19.176   3.144  30.097  1.00  0.00     0.054 A 
HETATM    8  C7  UNK     1      18.189   3.260  32.761  1.00  0.00     0.070 A 
HETATM    9  C8  UNK     1      18.742   4.353  30.656  1.00  0.00     0.096 A 
HETATM   10  C9  UNK     1      19.974  -0.167  29.632  1.00  0.00     0.015 A 
HETATM   11  C10 UNK     1      19.315  -1.403  32.106  1.00  0.00     0.038 A 
HETATM   12  C11 UNK     1      20.165  -1.541  29.828  1.00  0.00     0.001 A 
HETATM   13  C12 UNK     1      19.840  -2.146  31.044  1.00  0.00     0.003 A 
ENDROOT
BRANCH   6  14
HETATM   14  N1  UNK     1      17.830   5.624  32.505  1.00  0.00    -0.320 N 
HETATM   15  C14 UNK     1      18.529   6.472  33.365  1.00  0.00     0.262 C 
HETATM   16  O4  UNK     1      19.657   6.327  33.822  1.00  0.00    -0.267 OA
HETATM   17  H5  UNK     1      16.903   5.912  32.202  1.00  0.00     0.169 HD
BRANCH  15  18
HETATM   18  C13 UNK     1      17.751   7.676  33.725  1.00  0.00     0.108 A 
HETATM   19  C16 UNK     1      18.417   8.836  33.711  1.00  0.00     0.037 A 
HETATM   20  C15 UNK     1      17.736  10.076  34.051  1.00  0.00    -0.001 A 
HETATM   21  C17 UNK     1      16.388  10.032  34.390  1.00  0.00     0.089 A 
HETATM   22  C19 UNK     1      18.391  11.309  34.050  1.00  0.00     0.014 A 
HETATM   23  O3  UNK     1      15.693   8.807  34.403  1.00  0.00    -0.274 OA
HETATM   24  C20 UNK     1      15.679  11.183  34.726  1.00  0.00     0.038 A 
HETATM   25  C18 UNK     1      16.317   7.605  34.082  1.00  0.00     0.304 A 
HETATM   26  O5  UNK     1      15.703   6.543  34.096  1.00  0.00    -0.259 OA
HETATM   27  C23 UNK     1      16.339  12.409  34.723  1.00  0.00     0.003 A 
HETATM   28  C21 UNK     1      17.693  12.473  34.386  1.00  0.00     0.001 A 
ENDBRANCH  15  18
ENDBRANCH   6  14
BRANCH   9  29
HETATM   29  O2  UNK     1      18.803   5.483  29.891  1.00  0.00    -0.354 OA
HETATM   30  C22 UNK     1      20.082   6.092  29.742  1.00  0.00     0.210 C 
ENDBRANCH   9  29
TORSDOF 3
ENDMDL
MODEL 3
REMARK VINA RESULT:      -9.8      5.589      8.692
REMARK  3 active torsions:
REMARK  status: ('A' for Active; 'I' for Inactive)
REMARK    1  A    between atoms: C8_14  and  O2_2 
REMARK       I    between atoms: C14_20  and  N1_6 
REMARK    2  A    between atoms: C5_11  and  N1_6 
REMARK    3  A    between atoms: C13_19  and  C14_20 
ROOT
HETATM    1  O1  UNK     1      18.884   0.454  31.893  1.00  0.00    -0.309 OA
HETATM    2  C1  UNK     1      18.427   1.303  33.939  1.00  0.00     0.014 A 
HETATM    3  C2  UNK     1      18.305   2.351  32.979  1.00  0.00     0.011 A 
HETATM    4  C3  UNK     1      18.782   0.166  33.221  1.00  0.00     0.089 A 
HETATM    5  C4  UNK     1      18.595   1.776  31.746  1.00  0.00     0.087 A 
HETATM    6  C5  UNK     1      18.842  -1.171  35.182  1.00  0.00     0.071 A 
HETATM    7  C6  UNK     1      18.275   1.193  35.333  1.00  0.00     0.054 A 
HETATM    8  C7  UNK     1      18.998  -1.086  33.795  1.00  0.00     0.070 A 
HETATM    9  C8  UNK     1      18.486  -0.052  35.940  1.00  0.00     0.096 A 
HETATM   10  C9  UNK     1      17.982   3.719  33.020  1.00  0.00     0.015 A 
HETATM   11  C10 UNK     1      18.586   2.472  30.538  1.00  0.00     0.038 A 
HETATM   12  C11 UNK     1      17.965   4.446  31.822  1.00  0.00     0.001 A 
HETATM   13  C12 UNK     1      18.262   3.831  30.604  1.00  0.00     0.003 A 
ENDROOT
BRANCH   6  14
HETATM   14  N1  UNK     1      19.048  -2.404  35.805  1.00  0.00    -0.320 N 
HETATM   15  C14 UNK     1      19.860  -3.455  35.376  1.00  0.00     0.262 C 
HETATM   16  O4  UNK     1      20.556  -3.513  34.369  1.00  0.00    -0.267 OA
HETATM   17  H5  UNK     1      18.553  -2.515  36.686  1.00  0.00     0.169 HD
BRANCH  15  18
HETATM   18  C13 UNK     1      19.828  -4.606  36.301  1.00  0.00     0.108 A 
HETATM   19  C16 UNK     1      19.338  -5.749  35.806  1.00  0.00     0.037 A 
HETATM   20  C15 UNK     1      19.266  -6.938  36.641  1.00  0.00    -0.001 A 
HETATM   21  C17 UNK     1      19.713  -6.866  37.955  1.00  0.00     0.089 A 
HETATM   22  C19 UNK     1      18.762  -8.151  36.166  1.00  0.00     0.014 A 
HETATM   23  O3  UNK     1      20.228  -5.660  38.471  1.00  0.00    -0.274 OA
HETATM   24  C20 UNK     1      19.670  -7.968  38.807  1.00  0.00     0.038 A 
HETATM   25  C18 UNK     1      20.310  -4.506  37.697  1.00  0.00     0.304 A 
HETATM   26  O5  UNK     1      20.759  -3.461  38.155  1.00  0.00    -0.259 OA
HETATM   27  C23 UNK     1      19.166  -9.174  38.326  1.00  0.00     0.003 A 
HETATM   28  C21 UNK     1      18.712  -9.266  37.008  1.00  0.00     0.001 A 
ENDBRANCH  15  18
ENDBRANCH   6  14
BRANCH   9  29
HETATM   29  O2  UNK     1      18.337  -0.150  37.294  1.00  0.00    -0.354 OA
HETATM   30  C22 UNK     1      17.607   0.889  37.939  1.00  0.00     0.210 C 
ENDBRANCH   9  29
TORSDOF 3
ENDMDL
MODEL 4
REMARK VINA RESULT:      -9.5      4.933     11.141
REMARK  3 active torsions:
REMARK  status: ('A' for Active; 'I' for Inactive)
REMARK    1  A    between atoms: C8_14  and  O2_2 
REMARK       I    between atoms: C14_20  and  N1_6 
REMARK    2  A    between atoms: C5_11  and  N1_6 
REMARK    3  A    between atoms: C13_19  and  C14_20 
ROOT
HETATM    1  O1  UNK     1      20.501  -5.482  35.289  1.00  0.00    -0.309 OA
HETATM    2  C1  UNK     1      19.857  -4.103  36.962  1.00  0.00     0.014 A 
HETATM    3  C2  UNK     1      20.124  -5.390  37.517  1.00  0.00     0.011 A 
HETATM    4  C3  UNK     1      20.104  -4.215  35.598  1.00  0.00     0.089 A 
HETATM    5  C4  UNK     1      20.514  -6.193  36.450  1.00  0.00     0.087 A 
HETATM    6  C5  UNK     1      19.542  -1.942  35.211  1.00  0.00     0.071 A 
HETATM    7  C6  UNK     1      19.435  -2.859  37.465  1.00  0.00     0.054 A 
HETATM    8  C7  UNK     1      19.962  -3.169  34.688  1.00  0.00     0.070 A 
HETATM    9  C8  UNK     1      19.283  -1.788  36.576  1.00  0.00     0.096 A 
HETATM   10  C9  UNK     1      20.077  -5.960  38.802  1.00  0.00     0.015 A 
HETATM   11  C10 UNK     1      20.865  -7.537  36.571  1.00  0.00     0.038 A 
HETATM   12  C11 UNK     1      20.424  -7.309  38.955  1.00  0.00     0.001 A 
HETATM   13  C12 UNK     1      20.811  -8.082  37.858  1.00  0.00     0.003 A 
ENDROOT
BRANCH   6  14
HETATM   14  N1  UNK     1      19.383  -0.861  34.339  1.00  0.00    -0.320 N 
HETATM   15  C14 UNK     1      18.192  -0.326  33.848  1.00  0.00     0.262 C 
HETATM   16  O4  UNK     1      17.045  -0.690  34.077  1.00  0.00    -0.267 OA
HETATM   17  H5  UNK     1      20.255  -0.417  34.063  1.00  0.00     0.169 HD
BRANCH  15  18
HETATM   18  C13 UNK     1      18.420   0.822  32.946  1.00  0.00     0.108 A 
HETATM   19  C16 UNK     1      18.098   2.028  33.429  1.00  0.00     0.037 A 
HETATM   20  C15 UNK     1      18.287   3.218  32.616  1.00  0.00    -0.001 A 
HETATM   21  C17 UNK     1      18.807   3.081  31.333  1.00  0.00     0.089 A 
HETATM   22  C19 UNK     1      17.964   4.496  33.079  1.00  0.00     0.014 A 
HETATM   23  O3  UNK     1      19.145   1.810  30.830  1.00  0.00    -0.274 OA
HETATM   24  C20 UNK     1      19.011   4.181  30.503  1.00  0.00     0.038 A 
HETATM   25  C18 UNK     1      18.975   0.652  31.584  1.00  0.00     0.304 A 
HETATM   26  O5  UNK     1      19.272  -0.451  31.138  1.00  0.00    -0.259 OA
HETATM   27  C23 UNK     1      18.687   5.451  30.972  1.00  0.00     0.003 A 
HETATM   28  C21 UNK     1      18.164   5.610  32.258  1.00  0.00     0.001 A 
ENDBRANCH  15  18
ENDBRANCH   6  14
BRANCH   9  29
HETATM   29  O2  UNK     1      18.873  -0.583  37.071  1.00  0.00    -0.354 OA
HETATM   30  C22 UNK     1      17.540  -0.511  37.570  1.00  0.00     0.210 C 
ENDBRANCH   9  29
TORSDOF 3
ENDMDL
MODEL 5
REMARK VINA RESULT:      -9.5     15.707     20.864
REMARK  3 active torsions:
REMARK  status: ('A' for Active; 'I' for Inactive)
REMARK    1  A    between atoms: C8_14  and  O2_2 
REMARK       I    between atoms: C14_20  and  N1_6 
REMARK    2  A    between atoms: C5_11  and  N1_6 
REMARK    3  A    between atoms: C13_19  and  C14_20 
ROOT
HETATM    1  O1  UNK     1      18.600  -3.264  10.721  1.00  0.00    -0.309 OA
HETATM    2  C1  UNK     1      19.660  -4.621  12.187  1.00  0.00     0.014 A 
HETATM    3  C2  UNK     1      19.500  -5.325  10.957  1.00  0.00     0.011 A 
HETATM    4  C3  UNK     1      19.092  -3.367  11.987  1.00  0.00     0.089 A 
HETATM    5  C4  UNK     1      18.847  -4.449  10.096  1.00  0.00     0.087 A 
HETATM    6  C5  UNK     1      19.608  -2.676  14.199  1.00  0.00     0.071 A 
HETATM    7  C6  UNK     1      20.221  -4.909  13.445  1.00  0.00     0.054 A 
HETATM    8  C7  UNK     1      19.044  -2.367  12.957  1.00  0.00     0.070 A 
HETATM    9  C8  UNK     1      20.187  -3.924  14.440  1.00  0.00     0.096 A 
HETATM   10  C9  UNK     1      19.836  -6.605  10.479  1.00  0.00     0.015 A 
HETATM   11  C10 UNK     1      18.501  -4.756   8.781  1.00  0.00     0.038 A 
HETATM   12  C11 UNK     1      19.502  -6.944   9.161  1.00  0.00     0.001 A 
HETATM   13  C12 UNK     1      18.846  -6.034   8.329  1.00  0.00     0.003 A 
ENDROOT
BRANCH   6  14
HETATM   14  N1  UNK     1      19.583  -1.706  15.205  1.00  0.00    -0.320 N 
HETATM   15  C14 UNK     1      18.581  -1.477  16.148  1.00  0.00     0.262 C 
HETATM   16  O4  UNK     1      17.520  -2.073  16.288  1.00  0.00    -0.267 OA
HETATM   17  H5  UNK     1      20.418  -1.127  15.247  1.00  0.00     0.169 HD
BRANCH  15  18
HETATM   18  C13 UNK     1      18.909  -0.360  17.059  1.00  0.00     0.108 A 
HETATM   19  C16 UNK     1      18.941  -0.651  18.364  1.00  0.00     0.037 A 
HETATM   20  C15 UNK     1      19.254   0.382  19.338  1.00  0.00    -0.001 A 
HETATM   21  C17 UNK     1      19.520   1.671  18.890  1.00  0.00     0.089 A 
HETATM   22  C19 UNK     1      19.298   0.123  20.710  1.00  0.00     0.014 A 
HETATM   23  O3  UNK     1      19.486   1.972  17.514  1.00  0.00    -0.274 OA
HETATM   24  C20 UNK     1      19.826   2.706  19.771  1.00  0.00     0.038 A 
HETATM   25  C18 UNK     1      19.188   1.005  16.559  1.00  0.00     0.304 A 
HETATM   26  O5  UNK     1      19.161   1.276  15.363  1.00  0.00    -0.259 OA
HETATM   27  C23 UNK     1      19.868   2.440  21.138  1.00  0.00     0.003 A 
HETATM   28  C21 UNK     1      19.604   1.151  21.607  1.00  0.00     0.001 A 
ENDBRANCH  15  18
ENDBRANCH   6  14
BRANCH   9  29
HETATM   29  O2  UNK     1      20.734  -4.211  15.658  1.00  0.00    -0.354 OA
HETATM   30  C22 UNK     1      22.140  -4.024  15.793  1.00  0.00     0.210 C 
ENDBRANCH   9  29
TORSDOF 3
ENDMDL
MODEL 6
REMARK VINA RESULT:      -9.2      4.869      7.859
REMARK  3 active torsions:
REMARK  status: ('A' for Active; 'I' for Inactive)
REMARK    1  A    between atoms: C8_14  and  O2_2 
REMARK       I    between atoms: C14_20  and  N1_6 
REMARK    2  A    between atoms: C5_11  and  N1_6 
REMARK    3  A    between atoms: C13_19  and  C14_20 
ROOT
HETATM    1  O1  UNK     1      18.288   2.912  34.795  1.00  0.00    -0.309 OA
HETATM    2  C1  UNK     1      18.504   1.707  32.894  1.00  0.00     0.014 A 
HETATM    3  C2  UNK     1      18.286   3.071  32.539  1.00  0.00     0.011 A 
HETATM    4  C3  UNK     1      18.497   1.666  34.284  1.00  0.00     0.089 A 
HETATM    5  C4  UNK     1      18.161   3.763  33.739  1.00  0.00     0.087 A 
HETATM    6  C5  UNK     1      18.879  -0.676  34.314  1.00  0.00     0.071 A 
HETATM    7  C6  UNK     1      18.707   0.505  32.192  1.00  0.00     0.054 A 
HETATM    8  C7  UNK     1      18.679   0.506  35.034  1.00  0.00     0.070 A 
HETATM    9  C8  UNK     1      18.893  -0.679  32.917  1.00  0.00     0.096 A 
HETATM   10  C9  UNK     1      18.181   3.793  31.337  1.00  0.00     0.015 A 
HETATM   11  C10 UNK     1      17.937   5.136  33.831  1.00  0.00     0.038 A 
HETATM   12  C11 UNK     1      17.955   5.175  31.396  1.00  0.00     0.001 A 
HETATM   13  C12 UNK     1      17.836   5.832  32.622  1.00  0.00     0.003 A 
ENDROOT
BRANCH   6  14
HETATM   14  N1  UNK     1      19.066  -1.867  35.021  1.00  0.00    -0.320 N 
HETATM   15  C14 UNK     1      20.237  -2.617  35.139  1.00  0.00     0.262 C 
HETATM   16  O4  UNK     1      21.337  -2.388  34.649  1.00  0.00    -0.267 OA
HETATM   17  H5  UNK     1      18.241  -2.192  35.517  1.00  0.00     0.169 HD
BRANCH  15  18
HETATM   18  C13 UNK     1      20.052  -3.823  35.973  1.00  0.00     0.108 A 
HETATM   19  C16 UNK     1      19.896  -4.978  35.315  1.00  0.00     0.037 A 
HETATM   20  C15 UNK     1      19.708  -6.219  36.049  1.00  0.00    -0.001 A 
HETATM   21  C17 UNK     1      19.694  -6.184  37.439  1.00  0.00     0.089 A 
HETATM   22  C19 UNK     1      19.541  -7.447  35.404  1.00  0.00     0.014 A 
HETATM   23  O3  UNK     1      19.860  -4.965  38.126  1.00  0.00    -0.274 OA
HETATM   24  C20 UNK     1      19.518  -7.337  38.201  1.00  0.00     0.038 A 
HETATM   25  C18 UNK     1      20.042  -3.761  37.451  1.00  0.00     0.304 A 
HETATM   26  O5  UNK     1      20.185  -2.705  38.057  1.00  0.00    -0.259 OA
HETATM   27  C23 UNK     1      19.351  -8.557  37.550  1.00  0.00     0.003 A 
HETATM   28  C21 UNK     1      19.363  -8.614  36.155  1.00  0.00     0.001 A 
ENDBRANCH  15  18
ENDBRANCH   6  14
BRANCH   9  29
HETATM   29  O2  UNK     1      19.089  -1.841  32.228  1.00  0.00    -0.354 OA
HETATM   30  C22 UNK     1      20.180  -1.871  31.312  1.00  0.00     0.210 C 
ENDBRANCH   9  29
TORSDOF 3
ENDMDL
MODEL 7
REMARK VINA RESULT:      -9.0      2.203      3.904
REMARK  3 active torsions:
REMARK  status: ('A' for Active; 'I' for Inactive)
REMARK    1  A    between atoms: C8_14  and  O2_2 
REMARK       I    between atoms: C14_20  and  N1_6 
REMARK    2  A    between atoms: C5_11  and  N1_6 
REMARK    3  A    between atoms: C13_19  and  C14_20 
ROOT
HETATM    1  O1  UNK     1      18.736  10.824  34.087  1.00  0.00    -0.309 OA
HETATM    2  C1  UNK     1      16.540  10.305  33.936  1.00  0.00     0.014 A 
HETATM    3  C2  UNK     1      16.662  11.723  34.028  1.00  0.00     0.011 A 
HETATM    4  C3  UNK     1      17.837   9.806  33.976  1.00  0.00     0.089 A 
HETATM    5  C4  UNK     1      18.025  11.985  34.118  1.00  0.00     0.087 A 
HETATM    6  C5  UNK     1      17.083   7.562  33.798  1.00  0.00     0.071 A 
HETATM    7  C6  UNK     1      15.476   9.392  33.823  1.00  0.00     0.054 A 
HETATM    8  C7  UNK     1      18.157   8.450  33.911  1.00  0.00     0.070 A 
HETATM    9  C8  UNK     1      15.764   8.023  33.755  1.00  0.00     0.096 A 
HETATM   10  C9  UNK     1      15.769  12.810  34.045  1.00  0.00     0.015 A 
HETATM   11  C10 UNK     1      18.570  13.264  34.225  1.00  0.00     0.038 A 
HETATM   12  C11 UNK     1      16.286  14.108  34.151  1.00  0.00     0.001 A 
HETATM   13  C12 UNK     1      17.662  14.328  34.240  1.00  0.00     0.003 A 
ENDROOT
BRANCH   6  14
HETATM   14  N1  UNK     1      17.351   6.192  33.729  1.00  0.00    -0.320 N 
HETATM   15  C14 UNK     1      18.252   5.538  32.889  1.00  0.00     0.262 C 
HETATM   16  O4  UNK     1      18.991   6.026  32.042  1.00  0.00    -0.267 OA
HETATM   17  H5  UNK     1      16.829   5.631  34.397  1.00  0.00     0.169 HD
BRANCH  15  18
HETATM   18  C13 UNK     1      18.264   4.076  33.104  1.00  0.00     0.108 A 
HETATM   19  C16 UNK     1      18.363   3.666  34.374  1.00  0.00     0.037 A 
HETATM   20  C15 UNK     1      18.382   2.246  34.686  1.00  0.00    -0.001 A 
HETATM   21  C17 UNK     1      18.295   1.327  33.646  1.00  0.00     0.089 A 
HETATM   22  C19 UNK     1      18.485   1.773  35.997  1.00  0.00     0.014 A 
HETATM   23  O3  UNK     1      18.191   1.764  32.311  1.00  0.00    -0.274 OA
HETATM   24  C20 UNK     1      18.309  -0.047  33.878  1.00  0.00     0.038 A 
HETATM   25  C18 UNK     1      18.170   3.117  31.981  1.00  0.00     0.304 A 
HETATM   26  O5  UNK     1      18.079   3.488  30.816  1.00  0.00    -0.259 OA
HETATM   27  C23 UNK     1      18.412  -0.510  35.187  1.00  0.00     0.003 A 
HETATM   28  C21 UNK     1      18.500   0.397  36.245  1.00  0.00     0.001 A 
ENDBRANCH  15  18
ENDBRANCH   6  14
BRANCH   9  29
HETATM   29  O2  UNK     1      14.726   7.143  33.645  1.00  0.00    -0.354 OA
HETATM   30  C22 UNK     1      13.862   7.303  32.523  1.00  0.00     0.210 C 
ENDBRANCH   9  29
TORSDOF 3
ENDMDL
MODEL 8
REMARK VINA RESULT:      -8.9     23.277     24.610
REMARK  3 active torsions:
REMARK  status: ('A' for Active; 'I' for Inactive)
REMARK    1  A    between atoms: C8_14  and  O2_2 
REMARK       I    between atoms: C14_20  and  N1_6 
REMARK    2  A    between atoms: C5_11  and  N1_6 
REMARK    3  A    between atoms: C13_19  and  C14_20 
ROOT
HETATM    1  O1  UNK     1      19.299  11.051   8.133  1.00  0.00    -0.309 OA
HETATM    2  C1  UNK     1      18.356  11.786  10.052  1.00  0.00     0.014 A 
HETATM    3  C2  UNK     1      19.676  12.321   9.966  1.00  0.00     0.011 A 
HETATM    4  C3  UNK     1      18.178  11.018   8.906  1.00  0.00     0.089 A 
HETATM    5  C4  UNK     1      20.206  11.840   8.773  1.00  0.00     0.087 A 
HETATM    6  C5  UNK     1      15.970  10.416   9.536  1.00  0.00     0.071 A 
HETATM    7  C6  UNK     1      17.296  11.868  10.973  1.00  0.00     0.054 A 
HETATM    8  C7  UNK     1      17.010  10.320   8.606  1.00  0.00     0.070 A 
HETATM    9  C8  UNK     1      16.109  11.177  10.700  1.00  0.00     0.096 A 
HETATM   10  C9  UNK     1      20.476  13.158  10.765  1.00  0.00     0.015 A 
HETATM   11  C10 UNK     1      21.489  12.135   8.313  1.00  0.00     0.038 A 
HETATM   12  C11 UNK     1      21.770  13.472  10.329  1.00  0.00     0.001 A 
HETATM   13  C12 UNK     1      22.265  12.968   9.124  1.00  0.00     0.003 A 
ENDROOT
BRANCH   6  14
HETATM   14  N1  UNK     1      14.778   9.734   9.281  1.00  0.00    -0.320 N 
HETATM   15  C14 UNK     1      14.564   8.355   9.281  1.00  0.00     0.262 C 
HETATM   16  O4  UNK     1      15.374   7.462   9.501  1.00  0.00    -0.267 OA
HETATM   17  H5  UNK     1      13.981  10.339   9.099  1.00  0.00     0.169 HD
BRANCH  15  18
HETATM   18  C13 UNK     1      13.164   8.002   8.967  1.00  0.00     0.108 A 
HETATM   19  C16 UNK     1      12.952   7.427   7.777  1.00  0.00     0.037 A 
HETATM   20  C15 UNK     1      11.607   7.043   7.378  1.00  0.00    -0.001 A 
HETATM   21  C17 UNK     1      10.552   7.282   8.252  1.00  0.00     0.089 A 
HETATM   22  C19 UNK     1      11.339   6.441   6.147  1.00  0.00     0.014 A 
HETATM   23  O3  UNK     1      10.781   7.887   9.503  1.00  0.00    -0.274 OA
HETATM   24  C20 UNK     1       9.240   6.939   7.930  1.00  0.00     0.038 A 
HETATM   25  C18 UNK     1      12.057   8.266   9.913  1.00  0.00     0.304 A 
HETATM   26  O5  UNK     1      12.248   8.792  11.004  1.00  0.00    -0.259 OA
HETATM   27  C23 UNK     1       8.982   6.340   6.700  1.00  0.00     0.003 A 
HETATM   28  C21 UNK     1      10.028   6.091   5.809  1.00  0.00     0.001 A 
ENDBRANCH  15  18
ENDBRANCH   6  14
BRANCH   9  29
HETATM   29  O2  UNK     1      15.084  11.262  11.599  1.00  0.00    -0.354 OA
HETATM   30  C22 UNK     1      14.754  12.562  12.080  1.00  0.00     0.210 C 
ENDBRANCH   9  29
TORSDOF 3
ENDMDL
MODEL 9
REMARK VINA RESULT:      -8.9      1.399      2.624
REMARK  3 active torsions:
REMARK  status: ('A' for Active; 'I' for Inactive)
REMARK    1  A    between atoms: C8_14  and  O2_2 
REMARK       I    between atoms: C14_20  and  N1_6 
REMARK    2  A    between atoms: C5_11  and  N1_6 
REMARK    3  A    between atoms: C13_19  and  C14_20 
ROOT
HETATM    1  O1  UNK     1      18.721  10.060  34.217  1.00  0.00    -0.309 OA
HETATM    2  C1  UNK     1      16.633   9.552  33.513  1.00  0.00     0.014 A 
HETATM    3  C2  UNK     1      16.650  10.919  33.922  1.00  0.00     0.011 A 
HETATM    4  C3  UNK     1      17.924   9.076  33.714  1.00  0.00     0.089 A 
HETATM    5  C4  UNK     1      17.951  11.176  34.343  1.00  0.00     0.087 A 
HETATM    6  C5  UNK     1      17.353   6.913  32.921  1.00  0.00     0.071 A 
HETATM    7  C6  UNK     1      15.667   8.669  32.996  1.00  0.00     0.054 A 
HETATM    8  C7  UNK     1      18.329   7.772  33.434  1.00  0.00     0.070 A 
HETATM    9  C8  UNK     1      16.044   7.352  32.704  1.00  0.00     0.096 A 
HETATM   10  C9  UNK     1      15.709  11.962  33.982  1.00  0.00     0.015 A 
HETATM   11  C10 UNK     1      18.388  12.409  34.824  1.00  0.00     0.038 A 
HETATM   12  C11 UNK     1      16.118  13.214  34.461  1.00  0.00     0.001 A 
HETATM   13  C12 UNK     1      17.434  13.431  34.874  1.00  0.00     0.003 A 
ENDROOT
BRANCH   6  14
HETATM   14  N1  UNK     1      17.709   5.595  32.624  1.00  0.00    -0.320 N 
HETATM   15  C14 UNK     1      18.221   5.096  31.426  1.00  0.00     0.262 C 
HETATM   16  O4  UNK     1      18.461   5.706  30.391  1.00  0.00    -0.267 OA
HETATM   17  H5  UNK     1      17.593   4.946  33.399  1.00  0.00     0.169 HD
BRANCH  15  18
HETATM   18  C13 UNK     1      18.482   3.642  31.486  1.00  0.00     0.108 A 
HETATM   19  C16 UNK     1      18.913   3.071  30.355  1.00  0.00     0.037 A 
HETATM   20  C15 UNK     1      19.197   1.646  30.316  1.00  0.00    -0.001 A 
HETATM   21  C17 UNK     1      19.013   0.891  31.469  1.00  0.00     0.089 A 
HETATM   22  C19 UNK     1      19.648   1.008  29.158  1.00  0.00     0.014 A 
HETATM   23  O3  UNK     1      18.559   1.497  32.657  1.00  0.00    -0.274 OA
HETATM   24  C20 UNK     1      19.266  -0.479  31.498  1.00  0.00     0.038 A 
HETATM   25  C18 UNK     1      18.279   2.859  32.725  1.00  0.00     0.304 A 
HETATM   26  O5  UNK     1      17.884   3.379  33.764  1.00  0.00    -0.259 OA
HETATM   27  C23 UNK     1      19.716  -1.107  30.338  1.00  0.00     0.003 A 
HETATM   28  C21 UNK     1      19.906  -0.366  29.170  1.00  0.00     0.001 A 
ENDBRANCH  15  18
ENDBRANCH   6  14
BRANCH   9  29
HETATM   29  O2  UNK     1      15.101   6.501  32.203  1.00  0.00    -0.354 OA
HETATM   30  C22 UNK     1      13.750   6.952  32.223  1.00  0.00     0.210 C 
ENDBRANCH   9  29
TORSDOF 3
ENDMDL
MODEL 10
REMARK VINA RESULT:      -8.9     23.575     24.956
REMARK  3 active torsions:
REMARK  status: ('A' for Active; 'I' for Inactive)
REMARK    1  A    between atoms: C8_14  and  O2_2 
REMARK       I    between atoms: C14_20  and  N1_6 
REMARK    2  A    between atoms: C5_11  and  N1_6 
REMARK    3  A    between atoms: C13_19  and  C14_20 
ROOT
HETATM    1  O1  UNK     1      16.355  12.013   7.705  1.00  0.00    -0.309 OA
HETATM    2  C1  UNK     1      17.209  10.409   9.051  1.00  0.00     0.014 A 
HETATM    3  C2  UNK     1      18.217  11.392   8.827  1.00  0.00     0.011 A 
HETATM    4  C3  UNK     1      16.091  10.838   8.342  1.00  0.00     0.089 A 
HETATM    5  C4  UNK     1      17.642  12.350   7.999  1.00  0.00     0.087 A 
HETATM    6  C5  UNK     1      14.815   8.958   9.027  1.00  0.00     0.071 A 
HETATM    7  C6  UNK     1      17.120   9.205   9.774  1.00  0.00     0.054 A 
HETATM    8  C7  UNK     1      14.879  10.151   8.301  1.00  0.00     0.070 A 
HETATM    9  C8  UNK     1      15.915   8.492   9.752  1.00  0.00     0.096 A 
HETATM   10  C9  UNK     1      19.551  11.576   9.235  1.00  0.00     0.015 A 
HETATM   11  C10 UNK     1      18.303  13.489   7.542  1.00  0.00     0.038 A 
HETATM   12  C11 UNK     1      20.243  12.711   8.793  1.00  0.00     0.001 A 
HETATM   13  C12 UNK     1      19.628  13.649   7.961  1.00  0.00     0.003 A 
ENDROOT
BRANCH   6  14
HETATM   14  N1  UNK     1      13.621   8.231   9.017  1.00  0.00    -0.320 N 
HETATM   15  C14 UNK     1      13.120   7.423   7.997  1.00  0.00     0.262 C 
HETATM   16  O4  UNK     1      13.619   7.185   6.903  1.00  0.00    -0.267 OA
HETATM   17  H5  UNK     1      13.084   8.300   9.878  1.00  0.00     0.169 HD
BRANCH  15  18
HETATM   18  C13 UNK     1      11.822   6.810   8.349  1.00  0.00     0.108 A 
HETATM   19  C16 UNK     1      10.827   7.658   8.637  1.00  0.00     0.037 A 
HETATM   20  C15 UNK     1       9.512   7.149   8.995  1.00  0.00    -0.001 A 
HETATM   21  C17 UNK     1       9.310   5.774   9.032  1.00  0.00     0.089 A 
HETATM   22  C19 UNK     1       8.445   7.997   9.303  1.00  0.00     0.014 A 
HETATM   23  O3  UNK     1      10.360   4.887   8.728  1.00  0.00    -0.274 OA
HETATM   24  C20 UNK     1       8.075   5.223   9.368  1.00  0.00     0.038 A 
HETATM   25  C18 UNK     1      11.629   5.343   8.382  1.00  0.00     0.304 A 
HETATM   26  O5  UNK     1      12.538   4.563   8.118  1.00  0.00    -0.259 OA
HETATM   27  C23 UNK     1       7.016   6.075   9.674  1.00  0.00     0.003 A 
HETATM   28  C21 UNK     1       7.200   7.459   9.643  1.00  0.00     0.001 A 
ENDBRANCH  15  18
ENDBRANCH   6  14
BRANCH   9  29
HETATM   29  O2  UNK     1      15.837   7.324  10.456  1.00  0.00    -0.354 OA
HETATM   30  C22 UNK     1      16.285   6.143   9.798  1.00  0.00     0.210 C 
ENDBRANCH   9  29
TORSDOF 3
ENDMDL
