MODEL 1
REMARK VINA RESULT:      -8.2      0.000      0.000
REMARK  1 active torsions:
REMARK  status: ('A' for Active; 'I' for Inactive)
REMARK    1  A    between atoms: C3_5  and  C8_10 
ROOT
HETATM    1  O1  UNK     1      30.849  -7.739  38.120  1.00  0.00    -0.340 OA
HETATM    2  O2  UNK     1      28.231  -8.190  35.631  1.00  0.00    -0.340 OA
HETATM    3  C1  UNK     1      29.408  -6.297  36.698  1.00  0.00     0.058 C 
HETATM    4  C2  UNK     1      29.574  -7.089  38.003  1.00  0.00     0.172 C 
HETATM    5  C3  UNK     1      29.361  -7.302  35.521  1.00  0.00     0.169 C 
HETATM    6  C4  UNK     1      30.522  -5.250  36.616  1.00  0.00     0.051 C 
HETATM    7  C5  UNK     1      28.543  -8.184  38.056  1.00  0.00     0.005 A 
HETATM    8  C6  UNK     1      31.855  -5.825  36.994  1.00  0.00    -0.024 A 
HETATM    9  C7  UNK     1      27.954  -8.673  36.883  1.00  0.00     0.078 A 
HETATM   10  C9  UNK     1      31.939  -7.008  37.733  1.00  0.00     0.076 A 
HETATM   11  C10 UNK     1      28.179  -8.747  39.287  1.00  0.00     0.012 A 
HETATM   12  C11 UNK     1      33.033  -5.155  36.638  1.00  0.00     0.010 A 
HETATM   13  C12 UNK     1      26.997  -9.689  36.947  1.00  0.00     0.037 A 
HETATM   14  C13 UNK     1      33.187  -7.533  38.081  1.00  0.00     0.037 A 
HETATM   15  C16 UNK     1      27.230  -9.768  39.347  1.00  0.00     0.001 A 
HETATM   16  C17 UNK     1      26.638 -10.237  38.177  1.00  0.00     0.003 A 
HETATM   17  C18 UNK     1      34.277  -5.674  36.995  1.00  0.00     0.001 A 
HETATM   18  C19 UNK     1      34.354  -6.866  37.713  1.00  0.00     0.003 A 
ENDROOT
BRANCH   5  19
HETATM   19  C8  UNK     1      29.245  -6.635  34.164  1.00  0.00    -0.029 A 
HETATM   20  C14 UNK     1      30.395  -6.234  33.486  1.00  0.00     0.010 A 
HETATM   21  C20 UNK     1      30.288  -5.620  32.239  1.00  0.00     0.001 A 
HETATM   22  C22 UNK     1      29.032  -5.407  31.672  1.00  0.00     0.000 A 
HETATM   23  C21 UNK     1      27.882  -5.810  32.352  1.00  0.00     0.001 A 
HETATM   24  C15 UNK     1      27.988  -6.424  33.599  1.00  0.00     0.010 A 
ENDBRANCH   5  19
TORSDOF 1
ENDMDL
MODEL 2
REMARK VINA RESULT:      -8.1      2.207      3.087
REMARK  1 active torsions:
REMARK  status: ('A' for Active; 'I' for Inactive)
REMARK    1  A    between atoms: C3_5  and  C8_10 
ROOT
HETATM    1  O1  UNK     1      31.628  -7.073  35.936  1.00  0.00    -0.340 OA
HETATM    2  O2  UNK     1      28.061  -7.283  35.240  1.00  0.00    -0.340 OA
HETATM    3  C1  UNK     1      30.007  -6.040  34.361  1.00  0.00     0.058 C 
HETATM    4  C2  UNK     1      30.668  -6.023  35.746  1.00  0.00     0.172 C 
HETATM    5  C3  UNK     1      29.118  -7.304  34.261  1.00  0.00     0.169 C 
HETATM    6  C4  UNK     1      31.101  -5.927  33.296  1.00  0.00     0.051 C 
HETATM    7  C5  UNK     1      29.615  -6.226  36.803  1.00  0.00     0.005 A 
HETATM    8  C6  UNK     1      32.264  -6.825  33.596  1.00  0.00    -0.024 A 
HETATM    9  C7  UNK     1      28.399  -6.849  36.495  1.00  0.00     0.078 A 
HETATM   10  C9  UNK     1      32.470  -7.321  34.887  1.00  0.00     0.076 A 
HETATM   11  C10 UNK     1      29.854  -5.813  38.121  1.00  0.00     0.012 A 
HETATM   12  C11 UNK     1      33.182  -7.145  32.586  1.00  0.00     0.010 A 
HETATM   13  C12 UNK     1      27.431  -7.030  37.485  1.00  0.00     0.037 A 
HETATM   14  C13 UNK     1      33.559  -8.155  35.155  1.00  0.00     0.037 A 
HETATM   15  C16 UNK     1      28.889  -6.003  39.110  1.00  0.00     0.001 A 
HETATM   16  C17 UNK     1      27.677  -6.609  38.791  1.00  0.00     0.003 A 
HETATM   17  C18 UNK     1      34.274  -7.969  32.858  1.00  0.00     0.001 A 
HETATM   18  C19 UNK     1      34.460  -8.477  34.142  1.00  0.00     0.003 A 
ENDROOT
BRANCH   5  19
HETATM   19  C8  UNK     1      28.443  -7.459  32.912  1.00  0.00    -0.029 A 
HETATM   20  C14 UNK     1      28.658  -8.610  32.156  1.00  0.00     0.010 A 
HETATM   21  C20 UNK     1      28.037  -8.753  30.915  1.00  0.00     0.001 A 
HETATM   22  C22 UNK     1      27.203  -7.745  30.433  1.00  0.00     0.000 A 
HETATM   23  C21 UNK     1      26.989  -6.594  31.191  1.00  0.00     0.001 A 
HETATM   24  C15 UNK     1      27.609  -6.451  32.432  1.00  0.00     0.010 A 
ENDBRANCH   5  19
TORSDOF 1
ENDMDL
MODEL 3
REMARK VINA RESULT:      -8.1      1.715      5.099
REMARK  1 active torsions:
REMARK  status: ('A' for Active; 'I' for Inactive)
REMARK    1  A    between atoms: C3_5  and  C8_10 
ROOT
HETATM    1  O1  UNK     1      32.066  -6.169  33.709  1.00  0.00    -0.340 OA
HETATM    2  O2  UNK     1      28.550  -6.409  34.622  1.00  0.00    -0.340 OA
HETATM    3  C1  UNK     1      30.625  -7.676  35.063  1.00  0.00     0.058 C 
HETATM    4  C2  UNK     1      31.187  -7.304  33.683  1.00  0.00     0.172 C 
HETATM    5  C3  UNK     1      29.669  -6.546  35.519  1.00  0.00     0.169 C 
HETATM    6  C4  UNK     1      31.796  -7.960  36.007  1.00  0.00     0.051 C 
HETATM    7  C5  UNK     1      30.053  -6.932  32.767  1.00  0.00     0.005 A 
HETATM    8  C6  UNK     1      32.878  -6.930  35.878  1.00  0.00    -0.024 A 
HETATM    9  C7  UNK     1      28.825  -6.497  33.283  1.00  0.00     0.078 A 
HETATM   10  C9  UNK     1      32.962  -6.120  34.742  1.00  0.00     0.076 A 
HETATM   11  C10 UNK     1      30.224  -6.992  31.376  1.00  0.00     0.012 A 
HETATM   12  C11 UNK     1      33.842  -6.796  36.886  1.00  0.00     0.010 A 
HETATM   13  C12 UNK     1      27.781  -6.156  32.421  1.00  0.00     0.037 A 
HETATM   14  C13 UNK     1      33.976  -5.165  34.631  1.00  0.00     0.037 A 
HETATM   15  C16 UNK     1      29.182  -6.641  30.517  1.00  0.00     0.001 A 
HETATM   16  C17 UNK     1      27.960  -6.226  31.040  1.00  0.00     0.003 A 
HETATM   17  C18 UNK     1      34.860  -5.849  36.770  1.00  0.00     0.001 A 
HETATM   18  C19 UNK     1      34.924  -5.031  35.644  1.00  0.00     0.003 A 
ENDROOT
BRANCH   5  19
HETATM   19  C8  UNK     1      29.082  -6.776  36.898  1.00  0.00    -0.029 A 
HETATM   20  C14 UNK     1      29.305  -5.847  37.912  1.00  0.00     0.010 A 
HETATM   21  C20 UNK     1      28.765  -6.058  39.180  1.00  0.00     0.001 A 
HETATM   22  C22 UNK     1      28.003  -7.198  39.432  1.00  0.00     0.000 A 
HETATM   23  C21 UNK     1      27.780  -8.127  38.416  1.00  0.00     0.001 A 
HETATM   24  C15 UNK     1      28.320  -7.916  37.147  1.00  0.00     0.010 A 
ENDBRANCH   5  19
TORSDOF 1
ENDMDL
MODEL 4
REMARK VINA RESULT:      -8.0      1.440      5.037
REMARK  1 active torsions:
REMARK  status: ('A' for Active; 'I' for Inactive)
REMARK    1  A    between atoms: C3_5  and  C8_10 
ROOT
HETATM    1  O1  UNK     1      28.364  -6.817  34.587  1.00  0.00    -0.340 OA
HETATM    2  O2  UNK     1      30.624  -5.995  37.320  1.00  0.00    -0.340 OA
HETATM    3  C1  UNK     1      30.634  -7.485  35.348  1.00  0.00     0.058 C 
HETATM    4  C2  UNK     1      29.116  -7.686  35.448  1.00  0.00     0.172 C 
HETATM    5  C3  UNK     1      30.980  -6.090  35.926  1.00  0.00     0.169 C 
HETATM    6  C4  UNK     1      31.063  -7.712  33.896  1.00  0.00     0.051 C 
HETATM    7  C5  UNK     1      28.663  -7.376  36.850  1.00  0.00     0.005 A 
HETATM    8  C6  UNK     1      30.139  -7.032  32.930  1.00  0.00    -0.024 A 
HETATM    9  C7  UNK     1      29.426  -6.548  37.684  1.00  0.00     0.078 A 
HETATM   10  C9  UNK     1      28.852  -6.650  33.320  1.00  0.00     0.076 A 
HETATM   11  C10 UNK     1      27.452  -7.896  37.329  1.00  0.00     0.012 A 
HETATM   12  C11 UNK     1      30.547  -6.808  31.609  1.00  0.00     0.010 A 
HETATM   13  C12 UNK     1      28.994  -6.270  38.983  1.00  0.00     0.037 A 
HETATM   14  C13 UNK     1      27.999  -6.019  32.411  1.00  0.00     0.037 A 
HETATM   15  C16 UNK     1      27.019  -7.609  38.623  1.00  0.00     0.001 A 
HETATM   16  C17 UNK     1      27.792  -6.798  39.451  1.00  0.00     0.003 A 
HETATM   17  C18 UNK     1      29.691  -6.187  30.699  1.00  0.00     0.001 A 
HETATM   18  C19 UNK     1      28.418  -5.789  31.102  1.00  0.00     0.003 A 
ENDROOT
BRANCH   5  19
HETATM   19  C8  UNK     1      32.455  -5.752  35.841  1.00  0.00    -0.029 A 
HETATM   20  C14 UNK     1      32.883  -4.714  35.014  1.00  0.00     0.010 A 
HETATM   21  C20 UNK     1      34.240  -4.403  34.935  1.00  0.00     0.001 A 
HETATM   22  C22 UNK     1      35.167  -5.130  35.681  1.00  0.00     0.000 A 
HETATM   23  C21 UNK     1      34.736  -6.168  36.508  1.00  0.00     0.001 A 
HETATM   24  C15 UNK     1      33.379  -6.479  36.588  1.00  0.00     0.010 A 
ENDBRANCH   5  19
TORSDOF 1
ENDMDL
MODEL 5
REMARK VINA RESULT:      -7.9      1.814      5.274
REMARK  1 active torsions:
REMARK  status: ('A' for Active; 'I' for Inactive)
REMARK    1  A    between atoms: C3_5  and  C8_10 
ROOT
HETATM    1  O1  UNK     1      29.431  -7.146  37.076  1.00  0.00    -0.340 OA
HETATM    2  O2  UNK     1      30.282  -6.018  33.721  1.00  0.00    -0.340 OA
HETATM    3  C1  UNK     1      29.760  -8.163  34.831  1.00  0.00     0.058 C 
HETATM    4  C2  UNK     1      30.387  -7.676  36.145  1.00  0.00     0.172 C 
HETATM    5  C3  UNK     1      29.221  -6.931  34.063  1.00  0.00     0.169 C 
HETATM    6  C4  UNK     1      28.717  -9.236  35.156  1.00  0.00     0.051 C 
HETATM    7  C5  UNK     1      31.349  -6.555  35.853  1.00  0.00     0.005 A 
HETATM    8  C6  UNK     1      27.850  -8.837  36.312  1.00  0.00    -0.024 A 
HETATM    9  C7  UNK     1      31.231  -5.794  34.683  1.00  0.00     0.078 A 
HETATM   10  C9  UNK     1      28.261  -7.844  37.206  1.00  0.00     0.076 A 
HETATM   11  C10 UNK     1      32.364  -6.244  36.769  1.00  0.00     0.012 A 
HETATM   12  C11 UNK     1      26.628  -9.488  36.529  1.00  0.00     0.010 A 
HETATM   13  C12 UNK     1      32.131  -4.758  34.425  1.00  0.00     0.037 A 
HETATM   14  C13 UNK     1      27.446  -7.482  38.282  1.00  0.00     0.037 A 
HETATM   15  C16 UNK     1      33.256  -5.202  36.512  1.00  0.00     0.001 A 
HETATM   16  C17 UNK     1      33.140  -4.461  35.339  1.00  0.00     0.003 A 
HETATM   17  C18 UNK     1      25.819  -9.133  37.609  1.00  0.00     0.001 A 
HETATM   18  C19 UNK     1      26.227  -8.127  38.483  1.00  0.00     0.003 A 
ENDROOT
BRANCH   5  19
HETATM   19  C8  UNK     1      28.532  -7.288  32.761  1.00  0.00    -0.029 A 
HETATM   20  C14 UNK     1      27.558  -6.440  32.235  1.00  0.00     0.010 A 
HETATM   21  C20 UNK     1      26.924  -6.769  31.038  1.00  0.00     0.001 A 
HETATM   22  C22 UNK     1      27.263  -7.944  30.369  1.00  0.00     0.000 A 
HETATM   23  C21 UNK     1      28.238  -8.791  30.897  1.00  0.00     0.001 A 
HETATM   24  C15 UNK     1      28.873  -8.463  32.094  1.00  0.00     0.010 A 
ENDBRANCH   5  19
TORSDOF 1
ENDMDL
MODEL 6
REMARK VINA RESULT:      -7.9      2.705      5.745
REMARK  1 active torsions:
REMARK  status: ('A' for Active; 'I' for Inactive)
REMARK    1  A    between atoms: C3_5  and  C8_10 
ROOT
HETATM    1  O1  UNK     1      31.500  -6.924  37.818  1.00  0.00    -0.340 OA
HETATM    2  O2  UNK     1      32.641  -7.944  34.516  1.00  0.00    -0.340 OA
HETATM    3  C1  UNK     1      32.007  -9.049  36.633  1.00  0.00     0.058 C 
HETATM    4  C2  UNK     1      32.526  -7.858  37.451  1.00  0.00     0.172 C 
HETATM    5  C3  UNK     1      31.546  -8.526  35.250  1.00  0.00     0.169 C 
HETATM    6  C4  UNK     1      30.930  -9.770  37.448  1.00  0.00     0.051 C 
HETATM    7  C5  UNK     1      33.519  -7.083  36.627  1.00  0.00     0.005 A 
HETATM    8  C6  UNK     1      29.973  -8.806  38.082  1.00  0.00    -0.024 A 
HETATM    9  C7  UNK     1      33.507  -7.159  35.229  1.00  0.00     0.078 A 
HETATM   10  C9  UNK     1      30.317  -7.461  38.248  1.00  0.00     0.076 A 
HETATM   11  C10 UNK     1      34.456  -6.251  37.257  1.00  0.00     0.012 A 
HETATM   12  C11 UNK     1      28.731  -9.256  38.550  1.00  0.00     0.010 A 
HETATM   13  C12 UNK     1      34.435  -6.434  34.477  1.00  0.00     0.037 A 
HETATM   14  C13 UNK     1      29.418  -6.572  38.842  1.00  0.00     0.037 A 
HETATM   15  C16 UNK     1      35.377  -5.522  36.503  1.00  0.00     0.001 A 
HETATM   16  C17 UNK     1      35.367  -5.616  35.114  1.00  0.00     0.003 A 
HETATM   17  C18 UNK     1      27.838  -8.369  39.151  1.00  0.00     0.001 A 
HETATM   18  C19 UNK     1      28.180  -7.026  39.294  1.00  0.00     0.003 A 
ENDROOT
BRANCH   5  19
HETATM   19  C8  UNK     1      30.965  -9.607  34.361  1.00  0.00    -0.029 A 
HETATM   20  C14 UNK     1      29.671  -9.475  33.860  1.00  0.00     0.010 A 
HETATM   21  C20 UNK     1      29.137 -10.470  33.042  1.00  0.00     0.001 A 
HETATM   22  C22 UNK     1      29.896 -11.595  32.726  1.00  0.00     0.000 A 
HETATM   23  C21 UNK     1      31.192 -11.726  33.228  1.00  0.00     0.001 A 
HETATM   24  C15 UNK     1      31.727 -10.731  34.046  1.00  0.00     0.010 A 
ENDBRANCH   5  19
TORSDOF 1
ENDMDL
MODEL 7
REMARK VINA RESULT:      -7.9      1.350      5.695
REMARK  1 active torsions:
REMARK  status: ('A' for Active; 'I' for Inactive)
REMARK    1  A    between atoms: C3_5  and  C8_10 
ROOT
HETATM    1  O1  UNK     1      28.028  -7.902  35.076  1.00  0.00    -0.340 OA
HETATM    2  O2  UNK     1      31.141  -6.812  33.536  1.00  0.00    -0.340 OA
HETATM    3  C1  UNK     1      29.733  -6.132  35.449  1.00  0.00     0.058 C 
HETATM    4  C2  UNK     1      28.459  -6.581  34.717  1.00  0.00     0.172 C 
HETATM    5  C3  UNK     1      30.914  -6.998  34.947  1.00  0.00     0.169 C 
HETATM    6  C4  UNK     1      29.476  -6.192  36.957  1.00  0.00     0.051 C 
HETATM    7  C5  UNK     1      28.723  -6.617  33.236  1.00  0.00     0.005 A 
HETATM    8  C6  UNK     1      28.776  -7.457  37.353  1.00  0.00    -0.024 A 
HETATM    9  C7  UNK     1      30.027  -6.745  32.741  1.00  0.00     0.078 A 
HETATM   10  C9  UNK     1      28.083  -8.217  36.406  1.00  0.00     0.076 A 
HETATM   11  C10 UNK     1      27.654  -6.549  32.330  1.00  0.00     0.012 A 
HETATM   12  C11 UNK     1      28.780  -7.871  38.692  1.00  0.00     0.010 A 
HETATM   13  C12 UNK     1      30.257  -6.776  31.364  1.00  0.00     0.037 A 
HETATM   14  C13 UNK     1      27.432  -9.394  36.787  1.00  0.00     0.037 A 
HETATM   15  C16 UNK     1      27.886  -6.589  30.955  1.00  0.00     0.001 A 
HETATM   16  C17 UNK     1      29.187  -6.700  30.473  1.00  0.00     0.003 A 
HETATM   17  C18 UNK     1      28.121  -9.040  39.073  1.00  0.00     0.001 A 
HETATM   18  C19 UNK     1      27.451  -9.804  38.119  1.00  0.00     0.003 A 
ENDROOT
BRANCH   5  19
HETATM   19  C8  UNK     1      32.227  -6.680  35.633  1.00  0.00    -0.029 A 
HETATM   20  C14 UNK     1      32.839  -5.445  35.425  1.00  0.00     0.010 A 
HETATM   21  C20 UNK     1      34.048  -5.153  36.056  1.00  0.00     0.001 A 
HETATM   22  C22 UNK     1      34.643  -6.095  36.894  1.00  0.00     0.000 A 
HETATM   23  C21 UNK     1      34.029  -7.331  37.101  1.00  0.00     0.001 A 
HETATM   24  C15 UNK     1      32.820  -7.623  36.471  1.00  0.00     0.010 A 
ENDBRANCH   5  19
TORSDOF 1
ENDMDL
MODEL 8
REMARK VINA RESULT:      -7.9     12.977     15.059
REMARK  1 active torsions:
REMARK  status: ('A' for Active; 'I' for Inactive)
REMARK    1  A    between atoms: C3_5  and  C8_10 
ROOT
HETATM    1  O1  UNK     1      18.630   3.436  34.445  1.00  0.00    -0.340 OA
HETATM    2  O2  UNK     1      19.070  -0.038  33.449  1.00  0.00    -0.340 OA
HETATM    3  C1  UNK     1      17.800   1.926  32.653  1.00  0.00     0.058 C 
HETATM    4  C2  UNK     1      17.646   2.453  34.087  1.00  0.00     0.172 C 
HETATM    5  C3  UNK     1      19.111   1.106  32.573  1.00  0.00     0.169 C 
HETATM    6  C4  UNK     1      17.713   3.110  31.685  1.00  0.00     0.051 C 
HETATM    7  C5  UNK     1      17.822   1.316  35.057  1.00  0.00     0.005 A 
HETATM    8  C6  UNK     1      18.526   4.277  32.159  1.00  0.00    -0.024 A 
HETATM    9  C7  UNK     1      18.527   0.162  34.691  1.00  0.00     0.078 A 
HETATM   10  C9  UNK     1      18.913   4.383  33.498  1.00  0.00     0.076 A 
HETATM   11  C10 UNK     1      17.300   1.413  36.355  1.00  0.00     0.012 A 
HETATM   12  C11 UNK     1      18.874   5.298  31.265  1.00  0.00     0.010 A 
HETATM   13  C12 UNK     1      18.682  -0.886  35.601  1.00  0.00     0.037 A 
HETATM   14  C13 UNK     1      19.669   5.476  33.929  1.00  0.00     0.037 A 
HETATM   15  C16 UNK     1      17.464   0.368  37.264  1.00  0.00     0.001 A 
HETATM   16  C17 UNK     1      18.152  -0.782  36.887  1.00  0.00     0.003 A 
HETATM   17  C18 UNK     1      19.620   6.394  31.698  1.00  0.00     0.001 A 
HETATM   18  C19 UNK     1      20.021   6.481  33.030  1.00  0.00     0.003 A 
ENDROOT
BRANCH   5  19
HETATM   19  C8  UNK     1      19.401   0.568  31.186  1.00  0.00    -0.029 A 
HETATM   20  C14 UNK     1      18.845   1.190  30.069  1.00  0.00     0.010 A 
HETATM   21  C20 UNK     1      19.111   0.694  28.793  1.00  0.00     0.001 A 
HETATM   22  C22 UNK     1      19.932  -0.422  28.636  1.00  0.00     0.000 A 
HETATM   23  C21 UNK     1      20.487  -1.043  29.755  1.00  0.00     0.001 A 
HETATM   24  C15 UNK     1      20.222  -0.548  31.031  1.00  0.00     0.010 A 
ENDBRANCH   5  19
TORSDOF 1
ENDMDL
MODEL 9
REMARK VINA RESULT:      -7.8      2.608      4.005
REMARK  1 active torsions:
REMARK  status: ('A' for Active; 'I' for Inactive)
REMARK    1  A    between atoms: C3_5  and  C8_10 
ROOT
HETATM    1  O1  UNK     1      32.847  -5.629  36.272  1.00  0.00    -0.340 OA
HETATM    2  O2  UNK     1      29.763  -7.560  36.378  1.00  0.00    -0.340 OA
HETATM    3  C1  UNK     1      31.101  -6.380  34.669  1.00  0.00     0.058 C 
HETATM    4  C2  UNK     1      31.563  -5.339  35.699  1.00  0.00     0.172 C 
HETATM    5  C3  UNK     1      30.823  -7.709  35.413  1.00  0.00     0.169 C 
HETATM    6  C4  UNK     1      32.149  -6.464  33.555  1.00  0.00     0.051 C 
HETATM    7  C5  UNK     1      30.591  -5.309  36.848  1.00  0.00     0.005 A 
HETATM    8  C6  UNK     1      33.543  -6.502  34.105  1.00  0.00    -0.024 A 
HETATM    9  C7  UNK     1      29.773  -6.412  37.124  1.00  0.00     0.078 A 
HETATM   10  C9  UNK     1      33.812  -6.067  35.406  1.00  0.00     0.076 A 
HETATM   11  C10 UNK     1      30.514  -4.179  37.674  1.00  0.00     0.012 A 
HETATM   12  C11 UNK     1      34.602  -6.941  33.299  1.00  0.00     0.010 A 
HETATM   13  C12 UNK     1      28.875  -6.371  38.194  1.00  0.00     0.037 A 
HETATM   14  C13 UNK     1      35.116  -6.105  35.906  1.00  0.00     0.037 A 
HETATM   15  C16 UNK     1      29.623  -4.144  38.747  1.00  0.00     0.001 A 
HETATM   16  C17 UNK     1      28.802  -5.239  39.005  1.00  0.00     0.003 A 
HETATM   17  C18 UNK     1      35.905  -6.969  33.796  1.00  0.00     0.001 A 
HETATM   18  C19 UNK     1      36.161  -6.555  35.102  1.00  0.00     0.003 A 
ENDROOT
BRANCH   5  19
HETATM   19  C8  UNK     1      30.402  -8.837  34.492  1.00  0.00    -0.029 A 
HETATM   20  C14 UNK     1      29.267  -8.696  33.694  1.00  0.00     0.010 A 
HETATM   21  C20 UNK     1      28.880  -9.734  32.847  1.00  0.00     0.001 A 
HETATM   22  C22 UNK     1      29.626 -10.910  32.798  1.00  0.00     0.000 A 
HETATM   23  C21 UNK     1      30.761 -11.050  33.597  1.00  0.00     0.001 A 
HETATM   24  C15 UNK     1      31.150 -10.012  34.445  1.00  0.00     0.010 A 
ENDBRANCH   5  19
TORSDOF 1
ENDMDL
MODEL 10
REMARK VINA RESULT:      -7.8      2.283      5.108
REMARK  1 active torsions:
REMARK  status: ('A' for Active; 'I' for Inactive)
REMARK    1  A    between atoms: C3_5  and  C8_10 
ROOT
HETATM    1  O1  UNK     1      32.051  -5.869  36.966  1.00  0.00    -0.340 OA
HETATM    2  O2  UNK     1      32.160  -6.592  33.400  1.00  0.00    -0.340 OA
HETATM    3  C1  UNK     1      31.092  -7.554  35.410  1.00  0.00     0.058 C 
HETATM    4  C2  UNK     1      32.272  -7.116  36.289  1.00  0.00     0.172 C 
HETATM    5  C3  UNK     1      30.977  -6.566  34.223  1.00  0.00     0.169 C 
HETATM    6  C4  UNK     1      29.843  -7.666  36.288  1.00  0.00     0.051 C 
HETATM    7  C5  UNK     1      33.488  -6.912  35.426  1.00  0.00     0.005 A 
HETATM    8  C6  UNK     1      29.708  -6.495  37.215  1.00  0.00    -0.024 A 
HETATM    9  C7  UNK     1      33.360  -6.650  34.056  1.00  0.00     0.078 A 
HETATM   10  C9  UNK     1      30.810  -5.689  37.514  1.00  0.00     0.076 A 
HETATM   11  C10 UNK     1      34.769  -6.956  35.995  1.00  0.00     0.012 A 
HETATM   12  C11 UNK     1      28.476  -6.222  37.824  1.00  0.00     0.010 A 
HETATM   13  C12 UNK     1      34.498  -6.463  33.267  1.00  0.00     0.037 A 
HETATM   14  C13 UNK     1      30.674  -4.602  38.382  1.00  0.00     0.037 A 
HETATM   15  C16 UNK     1      35.902  -6.760  35.206  1.00  0.00     0.001 A 
HETATM   16  C17 UNK     1      35.767  -6.516  33.842  1.00  0.00     0.003 A 
HETATM   17  C18 UNK     1      28.343  -5.142  38.698  1.00  0.00     0.001 A 
HETATM   18  C19 UNK     1      29.441  -4.331  38.974  1.00  0.00     0.003 A 
ENDROOT
BRANCH   5  19
HETATM   19  C8  UNK     1      29.812  -6.867  33.301  1.00  0.00    -0.029 A 
HETATM   20  C14 UNK     1      29.761  -8.082  32.619  1.00  0.00     0.010 A 
HETATM   21  C20 UNK     1      28.689  -8.359  31.771  1.00  0.00     0.001 A 
HETATM   22  C22 UNK     1      27.671  -7.421  31.605  1.00  0.00     0.000 A 
HETATM   23  C21 UNK     1      27.724  -6.205  32.288  1.00  0.00     0.001 A 
HETATM   24  C15 UNK     1      28.795  -5.928  33.137  1.00  0.00     0.010 A 
ENDBRANCH   5  19
TORSDOF 1
ENDMDL
