MODEL 1
REMARK VINA RESULT:      -8.9      0.000      0.000
REMARK  3 active torsions:
REMARK  status: ('A' for Active; 'I' for Inactive)
REMARK    1  A    between atoms: C10_16  and  N1_5 
REMARK    2  A    between atoms: C5_11  and  N1_5 
REMARK    3  A    between atoms: C12_18  and  N2_6 
ROOT
HETATM    1  O1  UNK     1      19.701  -1.487  32.866  1.00  0.00    -0.273 OA
HETATM    2  O2  UNK     1      18.873  -1.392  34.990  1.00  0.00    -0.257 OA
HETATM    3  C10 UNK     1      18.440   1.034  32.344  1.00  0.00     0.081 A 
HETATM    4  C11 UNK     1      19.217   0.330  31.291  1.00  0.00     0.027 A 
HETATM    5  C12 UNK     1      18.371   0.411  33.532  1.00  0.00     0.205 A 
HETATM    6  C13 UNK     1      19.817  -0.898  31.591  1.00  0.00     0.092 A 
HETATM    7  C14 UNK     1      19.395   0.817  29.986  1.00  0.00     0.017 A 
HETATM    8  C15 UNK     1      18.982  -0.880  33.882  1.00  0.00     0.324 A 
HETATM    9  C16 UNK     1      20.564  -1.622  30.656  1.00  0.00     0.038 A 
HETATM   10  C17 UNK     1      20.141   0.102  29.038  1.00  0.00     0.001 A 
HETATM   11  C18 UNK     1      20.724  -1.115  29.373  1.00  0.00     0.003 A 
ENDROOT
BRANCH   3  12
HETATM   12  N1  UNK     1      17.875   2.225  32.031  1.00  0.00    -0.382 N 
HETATM   13  H18 UNK     1      17.179   2.198  31.292  1.00  0.00     0.160 HD
BRANCH  12  14
HETATM   14  C5  UNK     1      18.570   3.493  32.141  1.00  0.00     0.083 C 
HETATM   15  C3  UNK     1      18.627   4.154  30.762  1.00  0.00     0.034 C 
HETATM   16  C1  UNK     1      19.283   5.551  30.777  1.00  0.00    -0.045 C 
HETATM   17  C2  UNK     1      18.654   6.434  31.884  1.00  0.00     0.013 C 
HETATM   18  C7  UNK     1      20.809   5.431  30.941  1.00  0.00     0.015 C 
HETATM   19  C8  UNK     1      19.030   6.231  29.414  1.00  0.00     0.015 C 
HETATM   20  C4  UNK     1      18.457   5.784  33.264  1.00  0.00    -0.016 C 
HETATM   21  C6  UNK     1      17.841   4.384  33.148  1.00  0.00     0.029 C 
HETATM   22  C9  UNK     1      19.719   5.784  34.128  1.00  0.00     0.010 C 
ENDBRANCH  12  14
ENDBRANCH   3  12
BRANCH   5  23
HETATM   23  N2  UNK     1      17.632   1.056  34.570  1.00  0.00    -0.107 N 
HETATM   24  O3  UNK     1      18.275   1.740  35.375  1.00  0.00    -0.531 OA
HETATM   25  O4  UNK     1      16.409   0.881  34.582  1.00  0.00    -0.531 OA
ENDBRANCH   5  23
TORSDOF 3
ENDMDL
MODEL 2
REMARK VINA RESULT:      -8.0      1.721      3.532
REMARK  3 active torsions:
REMARK  status: ('A' for Active; 'I' for Inactive)
REMARK    1  A    between atoms: C10_16  and  N1_5 
REMARK    2  A    between atoms: C5_11  and  N1_5 
REMARK    3  A    between atoms: C12_18  and  N2_6 
ROOT
HETATM    1  O1  UNK     1      19.437  -1.349  33.378  1.00  0.00    -0.273 OA
HETATM    2  O2  UNK     1      20.044  -1.559  31.189  1.00  0.00    -0.257 OA
HETATM    3  C10 UNK     1      18.312   1.210  32.740  1.00  0.00     0.081 A 
HETATM    4  C11 UNK     1      18.271   0.675  34.126  1.00  0.00     0.027 A 
HETATM    5  C12 UNK     1      18.908   0.423  31.830  1.00  0.00     0.205 A 
HETATM    6  C13 UNK     1      18.831  -0.579  34.392  1.00  0.00     0.092 A 
HETATM    7  C14 UNK     1      17.699   1.354  35.215  1.00  0.00     0.017 A 
HETATM    8  C15 UNK     1      19.512  -0.896  32.072  1.00  0.00     0.324 A 
HETATM    9  C16 UNK     1      18.832  -1.152  35.667  1.00  0.00     0.038 A 
HETATM   10  C17 UNK     1      17.693   0.793  36.500  1.00  0.00     0.001 A 
HETATM   11  C18 UNK     1      18.258  -0.458  36.726  1.00  0.00     0.003 A 
ENDROOT
BRANCH   3  12
HETATM   12  N1  UNK     1      17.757   2.424  32.508  1.00  0.00    -0.382 N 
HETATM   13  H18 UNK     1      16.956   2.426  31.883  1.00  0.00     0.160 HD
BRANCH  12  14
HETATM   14  C5  UNK     1      18.512   3.661  32.504  1.00  0.00     0.083 C 
HETATM   15  C3  UNK     1      18.450   4.280  31.105  1.00  0.00     0.034 C 
HETATM   16  C1  UNK     1      19.163   5.646  31.007  1.00  0.00    -0.045 C 
HETATM   17  C2  UNK     1      18.692   6.588  32.144  1.00  0.00     0.013 C 
HETATM   18  C7  UNK     1      20.691   5.461  31.013  1.00  0.00     0.015 C 
HETATM   19  C8  UNK     1      18.796   6.298  29.656  1.00  0.00     0.015 C 
HETATM   20  C4  UNK     1      18.615   5.985  33.557  1.00  0.00    -0.016 C 
HETATM   21  C6  UNK     1      17.932   4.612  33.551  1.00  0.00     0.029 C 
HETATM   22  C9  UNK     1      19.960   5.952  34.284  1.00  0.00     0.010 C 
ENDBRANCH  12  14
ENDBRANCH   3  12
BRANCH   5  23
HETATM   23  N2  UNK     1      18.968   0.903  30.486  1.00  0.00    -0.107 N 
HETATM   24  O3  UNK     1      20.092   1.050  29.992  1.00  0.00    -0.531 OA
HETATM   25  O4  UNK     1      17.893   1.133  29.922  1.00  0.00    -0.531 OA
ENDBRANCH   5  23
TORSDOF 3
ENDMDL
MODEL 3
REMARK VINA RESULT:      -7.8     13.257     15.870
REMARK  3 active torsions:
REMARK  status: ('A' for Active; 'I' for Inactive)
REMARK    1  A    between atoms: C10_16  and  N1_5 
REMARK    2  A    between atoms: C5_11  and  N1_5 
REMARK    3  A    between atoms: C12_18  and  N2_6 
ROOT
HETATM    1  O1  UNK     1      26.545  -6.300  38.810  1.00  0.00    -0.273 OA
HETATM    2  O2  UNK     1      26.733  -4.029  38.913  1.00  0.00    -0.257 OA
HETATM    3  C10 UNK     1      29.405  -6.455  38.686  1.00  0.00     0.081 A 
HETATM    4  C11 UNK     1      28.566  -7.681  38.650  1.00  0.00     0.027 A 
HETATM    5  C12 UNK     1      28.736  -5.293  38.774  1.00  0.00     0.205 A 
HETATM    6  C13 UNK     1      27.174  -7.558  38.714  1.00  0.00     0.092 A 
HETATM    7  C14 UNK     1      29.081  -8.984  38.551  1.00  0.00     0.017 A 
HETATM    8  C15 UNK     1      27.277  -5.125  38.838  1.00  0.00     0.324 A 
HETATM    9  C16 UNK     1      26.316  -8.662  38.687  1.00  0.00     0.038 A 
HETATM   10  C17 UNK     1      28.233 -10.101  38.522  1.00  0.00     0.001 A 
HETATM   11  C18 UNK     1      26.853  -9.939  38.590  1.00  0.00     0.003 A 
ENDROOT
BRANCH   3  12
HETATM   12  N1  UNK     1      30.751  -6.601  38.630  1.00  0.00    -0.382 N 
HETATM   13  H18 UNK     1      31.277  -6.069  39.317  1.00  0.00     0.160 HD
BRANCH  12  14
HETATM   14  C5  UNK     1      31.476  -6.859  37.401  1.00  0.00     0.083 C 
HETATM   15  C3  UNK     1      32.333  -5.637  37.059  1.00  0.00     0.034 C 
HETATM   16  C1  UNK     1      33.208  -5.834  35.803  1.00  0.00    -0.045 C 
HETATM   17  C2  UNK     1      33.999  -7.164  35.894  1.00  0.00     0.013 C 
HETATM   18  C7  UNK     1      32.349  -5.766  34.528  1.00  0.00     0.015 C 
HETATM   19  C8  UNK     1      34.224  -4.673  35.722  1.00  0.00     0.015 C 
HETATM   20  C4  UNK     1      33.217  -8.407  36.353  1.00  0.00    -0.016 C 
HETATM   21  C6  UNK     1      32.344  -8.106  37.578  1.00  0.00     0.029 C 
HETATM   22  C9  UNK     1      32.421  -9.078  35.234  1.00  0.00     0.010 C 
ENDBRANCH  12  14
ENDBRANCH   3  12
BRANCH   5  23
HETATM   23  N2  UNK     1      29.508  -4.092  38.810  1.00  0.00    -0.107 N 
HETATM   24  O3  UNK     1      29.716  -3.592  39.922  1.00  0.00    -0.531 OA
HETATM   25  O4  UNK     1      29.906  -3.647  37.729  1.00  0.00    -0.531 OA
ENDBRANCH   5  23
TORSDOF 3
ENDMDL
MODEL 4
REMARK VINA RESULT:      -7.8      4.465      8.167
REMARK  3 active torsions:
REMARK  status: ('A' for Active; 'I' for Inactive)
REMARK    1  A    between atoms: C10_16  and  N1_5 
REMARK    2  A    between atoms: C5_11  and  N1_5 
REMARK    3  A    between atoms: C12_18  and  N2_6 
ROOT
HETATM    1  O1  UNK     1      17.713  -0.485  33.780  1.00  0.00    -0.273 OA
HETATM    2  O2  UNK     1      16.469   0.115  35.596  1.00  0.00    -0.257 OA
HETATM    3  C10 UNK     1      19.439  -1.947  35.541  1.00  0.00     0.081 A 
HETATM    4  C11 UNK     1      19.695  -1.898  34.079  1.00  0.00     0.027 A 
HETATM    5  C12 UNK     1      18.363  -1.265  35.967  1.00  0.00     0.205 A 
HETATM    6  C13 UNK     1      18.826  -1.173  33.256  1.00  0.00     0.092 A 
HETATM    7  C14 UNK     1      20.774  -2.539  33.446  1.00  0.00     0.017 A 
HETATM    8  C15 UNK     1      17.431  -0.489  35.136  1.00  0.00     0.324 A 
HETATM    9  C16 UNK     1      18.998  -1.079  31.872  1.00  0.00     0.038 A 
HETATM   10  C17 UNK     1      20.960  -2.454  32.059  1.00  0.00     0.001 A 
HETATM   11  C18 UNK     1      20.073  -1.724  31.274  1.00  0.00     0.003 A 
ENDROOT
BRANCH   3  12
HETATM   12  N1  UNK     1      20.291  -2.661  36.315  1.00  0.00    -0.382 N 
HETATM   13  H18 UNK     1      21.271  -2.406  36.237  1.00  0.00     0.160 HD
BRANCH  12  14
HETATM   14  C5  UNK     1      20.069  -4.047  36.679  1.00  0.00     0.083 C 
HETATM   15  C3  UNK     1      20.058  -4.902  35.410  1.00  0.00     0.034 C 
HETATM   16  C1  UNK     1      19.902  -6.413  35.689  1.00  0.00    -0.045 C 
HETATM   17  C2  UNK     1      20.921  -6.875  36.762  1.00  0.00     0.013 C 
HETATM   18  C7  UNK     1      18.455  -6.742  36.095  1.00  0.00     0.015 C 
HETATM   19  C8  UNK     1      20.190  -7.188  34.384  1.00  0.00     0.015 C 
HETATM   20  C4  UNK     1      21.066  -5.986  38.010  1.00  0.00    -0.016 C 
HETATM   21  C6  UNK     1      21.170  -4.502  37.638  1.00  0.00     0.029 C 
HETATM   22  C9  UNK     1      19.993  -6.237  39.070  1.00  0.00     0.010 C 
ENDBRANCH  12  14
ENDBRANCH   3  12
BRANCH   5  23
HETATM   23  N2  UNK     1      18.083  -1.287  37.368  1.00  0.00    -0.107 N 
HETATM   24  O3  UNK     1      18.598  -0.399  38.057  1.00  0.00    -0.531 OA
HETATM   25  O4  UNK     1      17.350  -2.192  37.780  1.00  0.00    -0.531 OA
ENDBRANCH   5  23
TORSDOF 3
ENDMDL
MODEL 5
REMARK VINA RESULT:      -7.8     12.133     14.691
REMARK  3 active torsions:
REMARK  status: ('A' for Active; 'I' for Inactive)
REMARK    1  A    between atoms: C10_16  and  N1_5 
REMARK    2  A    between atoms: C5_11  and  N1_5 
REMARK    3  A    between atoms: C12_18  and  N2_6 
ROOT
HETATM    1  O1  UNK     1      31.529  -7.504  37.338  1.00  0.00    -0.273 OA
HETATM    2  O2  UNK     1      29.767  -8.858  37.857  1.00  0.00    -0.257 OA
HETATM    3  C10 UNK     1      29.922  -6.336  35.271  1.00  0.00     0.081 A 
HETATM    4  C11 UNK     1      31.319  -5.888  35.506  1.00  0.00     0.027 A 
HETATM    5  C12 UNK     1      29.480  -7.312  36.081  1.00  0.00     0.205 A 
HETATM    6  C13 UNK     1      32.067  -6.485  36.527  1.00  0.00     0.092 A 
HETATM    7  C14 UNK     1      31.961  -4.887  34.758  1.00  0.00     0.017 A 
HETATM    8  C15 UNK     1      30.236  -7.967  37.159  1.00  0.00     0.324 A 
HETATM    9  C16 UNK     1      33.386  -6.120  36.810  1.00  0.00     0.038 A 
HETATM   10  C17 UNK     1      33.284  -4.510  35.030  1.00  0.00     0.001 A 
HETATM   11  C18 UNK     1      33.995  -5.126  36.055  1.00  0.00     0.003 A 
ENDROOT
BRANCH   3  12
HETATM   12  N1  UNK     1      29.218  -5.737  34.282  1.00  0.00    -0.382 N 
HETATM   13  H18 UNK     1      28.371  -5.259  34.575  1.00  0.00     0.160 HD
BRANCH  12  14
HETATM   14  C5  UNK     1      29.174  -6.231  32.919  1.00  0.00     0.083 C 
HETATM   15  C3  UNK     1      27.714  -6.419  32.501  1.00  0.00     0.034 C 
HETATM   16  C1  UNK     1      27.549  -6.873  31.035  1.00  0.00    -0.045 C 
HETATM   17  C2  UNK     1      28.373  -5.964  30.089  1.00  0.00     0.013 C 
HETATM   18  C7  UNK     1      27.933  -8.355  30.881  1.00  0.00     0.015 C 
HETATM   19  C8  UNK     1      26.059  -6.753  30.646  1.00  0.00     0.015 C 
HETATM   20  C4  UNK     1      29.813  -5.637  30.519  1.00  0.00    -0.016 C 
HETATM   21  C6  UNK     1      29.886  -5.238  31.998  1.00  0.00     0.029 C 
HETATM   22  C9  UNK     1      30.820  -6.734  30.171  1.00  0.00     0.010 C 
ENDBRANCH  12  14
ENDBRANCH   3  12
BRANCH   5  23
HETATM   23  N2  UNK     1      28.141  -7.771  35.886  1.00  0.00    -0.107 N 
HETATM   24  O3  UNK     1      27.986  -8.755  35.154  1.00  0.00    -0.531 OA
HETATM   25  O4  UNK     1      27.244  -7.148  36.465  1.00  0.00    -0.531 OA
ENDBRANCH   5  23
TORSDOF 3
ENDMDL
MODEL 6
REMARK VINA RESULT:      -7.5     22.811     25.103
REMARK  3 active torsions:
REMARK  status: ('A' for Active; 'I' for Inactive)
REMARK    1  A    between atoms: C10_16  and  N1_5 
REMARK    2  A    between atoms: C5_11  and  N1_5 
REMARK    3  A    between atoms: C12_18  and  N2_6 
ROOT
HETATM    1  O1  UNK     1       9.247   7.330   9.252  1.00  0.00    -0.273 OA
HETATM    2  O2  UNK     1       9.771   5.430   8.105  1.00  0.00    -0.257 OA
HETATM    3  C10 UNK     1      11.827   8.370   8.557  1.00  0.00     0.081 A 
HETATM    4  C11 UNK     1      10.876   9.159   9.384  1.00  0.00     0.027 A 
HETATM    5  C12 UNK     1      11.396   7.157   8.173  1.00  0.00     0.205 A 
HETATM    6  C13 UNK     1       9.627   8.612   9.698  1.00  0.00     0.092 A 
HETATM    7  C14 UNK     1      11.148  10.442   9.887  1.00  0.00     0.017 A 
HETATM    8  C15 UNK     1      10.096   6.548   8.487  1.00  0.00     0.324 A 
HETATM    9  C16 UNK     1       8.678   9.290  10.469  1.00  0.00     0.038 A 
HETATM   10  C17 UNK     1      10.206  11.134  10.662  1.00  0.00     0.001 A 
HETATM   11  C18 UNK     1       8.973  10.559  10.952  1.00  0.00     0.003 A 
ENDROOT
BRANCH   3  12
HETATM   12  N1  UNK     1      13.027   8.924   8.261  1.00  0.00    -0.382 N 
HETATM   13  H18 UNK     1      13.395   8.703   7.341  1.00  0.00     0.160 HD
BRANCH  12  14
HETATM   14  C5  UNK     1      14.046   9.202   9.255  1.00  0.00     0.083 C 
HETATM   15  C3  UNK     1      14.955   7.978   9.394  1.00  0.00     0.034 C 
HETATM   16  C1  UNK     1      16.126   8.193  10.376  1.00  0.00    -0.045 C 
HETATM   17  C2  UNK     1      16.873   9.512  10.052  1.00  0.00     0.013 C 
HETATM   18  C7  UNK     1      15.625   8.164  11.831  1.00  0.00     0.015 C 
HETATM   19  C8  UNK     1      17.122   7.023  10.222  1.00  0.00     0.015 C 
HETATM   20  C4  UNK     1      16.006  10.753   9.779  1.00  0.00    -0.016 C 
HETATM   21  C6  UNK     1      14.845  10.435   8.829  1.00  0.00     0.029 C 
HETATM   22  C9  UNK     1      15.530  11.458  11.050  1.00  0.00     0.010 C 
ENDBRANCH  12  14
ENDBRANCH   3  12
BRANCH   5  23
HETATM   23  N2  UNK     1      12.282   6.368   7.377  1.00  0.00    -0.107 N 
HETATM   24  O3  UNK     1      12.282   6.580   6.159  1.00  0.00    -0.531 OA
HETATM   25  O4  UNK     1      12.978   5.536   7.969  1.00  0.00    -0.531 OA
ENDBRANCH   5  23
TORSDOF 3
ENDMDL
MODEL 7
REMARK VINA RESULT:      -7.5      2.553      3.982
REMARK  3 active torsions:
REMARK  status: ('A' for Active; 'I' for Inactive)
REMARK    1  A    between atoms: C10_16  and  N1_5 
REMARK    2  A    between atoms: C5_11  and  N1_5 
REMARK    3  A    between atoms: C12_18  and  N2_6 
ROOT
HETATM    1  O1  UNK     1      19.415   0.002  31.193  1.00  0.00    -0.273 OA
HETATM    2  O2  UNK     1      19.773   0.440  28.983  1.00  0.00    -0.257 OA
HETATM    3  C10 UNK     1      18.098   2.539  31.404  1.00  0.00     0.081 A 
HETATM    4  C11 UNK     1      18.245   1.648  32.584  1.00  0.00     0.027 A 
HETATM    5  C12 UNK     1      18.622   2.078  30.256  1.00  0.00     0.205 A 
HETATM    6  C13 UNK     1      18.894   0.418  32.435  1.00  0.00     0.092 A 
HETATM    7  C14 UNK     1      17.772   1.959  33.869  1.00  0.00     0.017 A 
HETATM    8  C15 UNK     1      19.315   0.795  30.062  1.00  0.00     0.324 A 
HETATM    9  C16 UNK     1      19.073  -0.476  33.495  1.00  0.00     0.038 A 
HETATM   10  C17 UNK     1      17.943   1.073  34.942  1.00  0.00     0.001 A 
HETATM   11  C18 UNK     1      18.593  -0.143  34.755  1.00  0.00     0.003 A 
ENDROOT
BRANCH   3  12
HETATM   12  N1  UNK     1      17.459   3.722  31.573  1.00  0.00    -0.382 N 
HETATM   13  H18 UNK     1      16.995   4.090  30.748  1.00  0.00     0.160 HD
BRANCH  12  14
HETATM   14  C5  UNK     1      17.897   4.740  32.508  1.00  0.00     0.083 C 
HETATM   15  C3  UNK     1      19.376   5.046  32.258  1.00  0.00     0.034 C 
HETATM   16  C1  UNK     1      19.928   6.176  33.153  1.00  0.00    -0.045 C 
HETATM   17  C2  UNK     1      19.000   7.416  33.098  1.00  0.00     0.013 C 
HETATM   18  C7  UNK     1      20.128   5.676  34.595  1.00  0.00     0.015 C 
HETATM   19  C8  UNK     1      21.319   6.589  32.625  1.00  0.00     0.015 C 
HETATM   20  C4  UNK     1      17.488   7.158  33.221  1.00  0.00    -0.016 C 
HETATM   21  C6  UNK     1      17.039   5.993  32.330  1.00  0.00     0.029 C 
HETATM   22  C9  UNK     1      17.010   6.994  34.663  1.00  0.00     0.010 C 
ENDBRANCH  12  14
ENDBRANCH   3  12
BRANCH   5  23
HETATM   23  N2  UNK     1      18.501   2.906  29.099  1.00  0.00    -0.107 N 
HETATM   24  O3  UNK     1      19.009   4.032  29.159  1.00  0.00    -0.531 OA
HETATM   25  O4  UNK     1      17.898   2.433  28.130  1.00  0.00    -0.531 OA
ENDBRANCH   5  23
TORSDOF 3
ENDMDL
MODEL 8
REMARK VINA RESULT:      -7.5      3.368      5.378
REMARK  3 active torsions:
REMARK  status: ('A' for Active; 'I' for Inactive)
REMARK    1  A    between atoms: C10_16  and  N1_5 
REMARK    2  A    between atoms: C5_11  and  N1_5 
REMARK    3  A    between atoms: C12_18  and  N2_6 
ROOT
HETATM    1  O1  UNK     1      19.564  -0.319  29.271  1.00  0.00    -0.273 OA
HETATM    2  O2  UNK     1      18.680   1.590  28.390  1.00  0.00    -0.257 OA
HETATM    3  C10 UNK     1      19.146   0.784  31.884  1.00  0.00     0.081 A 
HETATM    4  C11 UNK     1      19.755  -0.559  31.705  1.00  0.00     0.027 A 
HETATM    5  C12 UNK     1      18.817   1.430  30.754  1.00  0.00     0.205 A 
HETATM    6  C13 UNK     1      19.940  -1.059  30.411  1.00  0.00     0.092 A 
HETATM    7  C14 UNK     1      20.172  -1.383  32.764  1.00  0.00     0.017 A 
HETATM    8  C15 UNK     1      19.000   0.941  29.379  1.00  0.00     0.324 A 
HETATM    9  C16 UNK     1      20.505  -2.313  30.159  1.00  0.00     0.038 A 
HETATM   10  C17 UNK     1      20.741  -2.642  32.527  1.00  0.00     0.001 A 
HETATM   11  C18 UNK     1      20.907  -3.106  31.226  1.00  0.00     0.003 A 
ENDROOT
BRANCH   3  12
HETATM   12  N1  UNK     1      18.971   1.242  33.147  1.00  0.00    -0.382 N 
HETATM   13  H18 UNK     1      19.733   1.802  33.518  1.00  0.00     0.160 HD
BRANCH  12  14
HETATM   14  C5  UNK     1      18.215   0.529  34.158  1.00  0.00     0.083 C 
HETATM   15  C3  UNK     1      18.545   1.114  35.534  1.00  0.00     0.034 C 
HETATM   16  C1  UNK     1      17.734   0.475  36.683  1.00  0.00    -0.045 C 
HETATM   17  C2  UNK     1      16.223   0.462  36.339  1.00  0.00     0.013 C 
HETATM   18  C7  UNK     1      18.261  -0.936  36.998  1.00  0.00     0.015 C 
HETATM   19  C8  UNK     1      17.933   1.324  37.958  1.00  0.00     0.015 C 
HETATM   20  C4  UNK     1      15.837  -0.000  34.923  1.00  0.00    -0.016 C 
HETATM   21  C6  UNK     1      16.721   0.651  33.854  1.00  0.00     0.029 C 
HETATM   22  C9  UNK     1      15.778  -1.521  34.770  1.00  0.00     0.010 C 
ENDBRANCH  12  14
ENDBRANCH   3  12
BRANCH   5  23
HETATM   23  N2  UNK     1      18.229   2.725  30.884  1.00  0.00    -0.107 N 
HETATM   24  O3  UNK     1      16.994   2.782  30.899  1.00  0.00    -0.531 OA
HETATM   25  O4  UNK     1      19.001   3.686  30.973  1.00  0.00    -0.531 OA
ENDBRANCH   5  23
TORSDOF 3
ENDMDL
MODEL 9
REMARK VINA RESULT:      -7.4     12.775     14.960
REMARK  3 active torsions:
REMARK  status: ('A' for Active; 'I' for Inactive)
REMARK    1  A    between atoms: C10_16  and  N1_5 
REMARK    2  A    between atoms: C5_11  and  N1_5 
REMARK    3  A    between atoms: C12_18  and  N2_6 
ROOT
HETATM    1  O1  UNK     1      30.976  -7.798  38.054  1.00  0.00    -0.273 OA
HETATM    2  O2  UNK     1      32.906  -6.601  37.835  1.00  0.00    -0.257 OA
HETATM    3  C10 UNK     1      29.939  -6.394  35.780  1.00  0.00     0.081 A 
HETATM    4  C11 UNK     1      29.125  -7.414  36.491  1.00  0.00     0.027 A 
HETATM    5  C12 UNK     1      31.169  -6.181  36.275  1.00  0.00     0.205 A 
HETATM    6  C13 UNK     1      29.672  -8.075  37.596  1.00  0.00     0.092 A 
HETATM    7  C14 UNK     1      27.815  -7.769  36.129  1.00  0.00     0.017 A 
HETATM    8  C15 UNK     1      31.775  -6.851  37.435  1.00  0.00     0.324 A 
HETATM    9  C16 UNK     1      28.972  -9.047  38.318  1.00  0.00     0.038 A 
HETATM   10  C17 UNK     1      27.100  -8.741  36.844  1.00  0.00     0.001 A 
HETATM   11  C18 UNK     1      27.678  -9.378  37.937  1.00  0.00     0.003 A 
ENDROOT
BRANCH   3  12
HETATM   12  N1  UNK     1      29.388  -5.773  34.708  1.00  0.00    -0.382 N 
HETATM   13  H18 UNK     1      28.564  -5.213  34.904  1.00  0.00     0.160 HD
BRANCH  12  14
HETATM   14  C5  UNK     1      29.431  -6.312  33.363  1.00  0.00     0.083 C 
HETATM   15  C3  UNK     1      28.001  -6.439  32.830  1.00  0.00     0.034 C 
HETATM   16  C1  UNK     1      27.933  -6.936  31.370  1.00  0.00    -0.045 C 
HETATM   17  C2  UNK     1      28.881  -6.105  30.468  1.00  0.00     0.013 C 
HETATM   18  C7  UNK     1      28.247  -8.441  31.295  1.00  0.00     0.015 C 
HETATM   19  C8  UNK     1      26.489  -6.752  30.853  1.00  0.00     0.015 C 
HETATM   20  C4  UNK     1      30.297  -5.838  31.008  1.00  0.00    -0.016 C 
HETATM   21  C6  UNK     1      30.269  -5.392  32.475  1.00  0.00     0.029 C 
HETATM   22  C9  UNK     1      31.267  -6.998  30.780  1.00  0.00     0.010 C 
ENDBRANCH  12  14
ENDBRANCH   3  12
BRANCH   5  23
HETATM   23  N2  UNK     1      31.982  -5.207  35.618  1.00  0.00    -0.107 N 
HETATM   24  O3  UNK     1      31.859  -4.033  35.986  1.00  0.00    -0.531 OA
HETATM   25  O4  UNK     1      32.743  -5.615  34.734  1.00  0.00    -0.531 OA
ENDBRANCH   5  23
TORSDOF 3
ENDMDL
MODEL 10
REMARK VINA RESULT:      -7.3     11.155     13.550
REMARK  3 active torsions:
REMARK  status: ('A' for Active; 'I' for Inactive)
REMARK    1  A    between atoms: C10_16  and  N1_5 
REMARK    2  A    between atoms: C5_11  and  N1_5 
REMARK    3  A    between atoms: C12_18  and  N2_6 
ROOT
HETATM    1  O1  UNK     1      20.992  -7.664  36.607  1.00  0.00    -0.273 OA
HETATM    2  O2  UNK     1      20.870  -5.769  37.872  1.00  0.00    -0.257 OA
HETATM    3  C10 UNK     1      23.462  -8.290  37.921  1.00  0.00     0.081 A 
HETATM    4  C11 UNK     1      22.902  -9.181  36.872  1.00  0.00     0.027 A 
HETATM    5  C12 UNK     1      22.742  -7.190  38.198  1.00  0.00     0.205 A 
HETATM    6  C13 UNK     1      21.692  -8.837  36.258  1.00  0.00     0.092 A 
HETATM    7  C14 UNK     1      23.512 -10.370  36.439  1.00  0.00     0.017 A 
HETATM    8  C15 UNK     1      21.472  -6.794  37.571  1.00  0.00     0.324 A 
HETATM    9  C16 UNK     1      21.099  -9.621  35.264  1.00  0.00     0.038 A 
HETATM   10  C17 UNK     1      22.930 -11.167  35.443  1.00  0.00     0.001 A 
HETATM   11  C18 UNK     1      21.725 -10.793  34.857  1.00  0.00     0.003 A 
ENDROOT
BRANCH   3  12
HETATM   12  N1  UNK     1      24.631  -8.649  38.505  1.00  0.00    -0.382 N 
HETATM   13  H18 UNK     1      24.647  -8.597  39.519  1.00  0.00     0.160 HD
BRANCH  12  14
HETATM   14  C5  UNK     1      25.926  -8.458  37.883  1.00  0.00     0.083 C 
HETATM   15  C3  UNK     1      26.712  -7.410  38.675  1.00  0.00     0.034 C 
HETATM   16  C1  UNK     1      28.143  -7.183  38.141  1.00  0.00    -0.045 C 
HETATM   17  C2  UNK     1      28.878  -8.536  37.966  1.00  0.00     0.013 C 
HETATM   18  C7  UNK     1      28.110  -6.377  36.831  1.00  0.00     0.015 C 
HETATM   19  C8  UNK     1      28.925  -6.337  39.170  1.00  0.00     0.015 C 
HETATM   20  C4  UNK     1      28.094  -9.670  37.285  1.00  0.00    -0.016 C 
HETATM   21  C6  UNK     1      26.673  -9.793  37.849  1.00  0.00     0.029 C 
HETATM   22  C9  UNK     1      28.100  -9.589  35.759  1.00  0.00     0.010 C 
ENDBRANCH  12  14
ENDBRANCH   3  12
BRANCH   5  23
HETATM   23  N2  UNK     1      23.249  -6.309  39.200  1.00  0.00    -0.107 N 
HETATM   24  O3  UNK     1      22.893  -6.520  40.365  1.00  0.00    -0.531 OA
HETATM   25  O4  UNK     1      24.002  -5.404  38.824  1.00  0.00    -0.531 OA
ENDBRANCH   5  23
TORSDOF 3
ENDMDL
