MODEL 1
REMARK VINA RESULT:      -7.0      0.000      0.000
REMARK  2 active torsions:
REMARK  status: ('A' for Active; 'I' for Inactive)
REMARK    1  A    between atoms: C5_9  and  O2_2 
REMARK    2  A    between atoms: C10_14  and  C7_11 
ROOT
HETATM    1  O1  UNK     1      20.041  -1.005  28.801  1.00  0.00    -0.321 OA
HETATM    2  O3  UNK     1      18.661   1.219  31.934  1.00  0.00    -0.286 OA
HETATM    3  C1  UNK     1      19.727  -0.756  31.199  1.00  0.00     0.051 A 
HETATM    4  C2  UNK     1      20.178  -1.468  30.086  1.00  0.00     0.089 A 
HETATM    5  C3  UNK     1      19.893  -1.277  32.483  1.00  0.00     0.055 A 
HETATM    6  C4  UNK     1      19.074   0.552  30.996  1.00  0.00     0.200 A 
HETATM    7  C5  UNK     1      20.514  -2.516  32.649  1.00  0.00     0.069 A 
HETATM    8  C6  UNK     1      20.798  -2.707  30.255  1.00  0.00     0.041 A 
HETATM    9  C7  UNK     1      18.953   1.003  29.594  1.00  0.00     0.075 A 
HETATM   10  C8  UNK     1      20.965  -3.230  31.538  1.00  0.00     0.039 A 
HETATM   11  C9  UNK     1      19.432   0.214  28.626  1.00  0.00     0.161 A 
ENDROOT
BRANCH   7  12
HETATM   12  O2  UNK     1      20.680  -3.032  33.898  1.00  0.00    -0.356 OA
HETATM   13  C11 UNK     1      20.110  -2.302  34.982  1.00  0.00     0.210 C 
ENDBRANCH   7  12
BRANCH   9  14
HETATM   14  C10 UNK     1      18.337   2.271  29.202  1.00  0.00     0.276 C 
HETATM   15  O4  UNK     1      17.899   2.474  28.075  1.00  0.00    -0.301 OA
ENDBRANCH   9  14
TORSDOF 2
ENDMDL
MODEL 2
REMARK VINA RESULT:      -6.9     23.361     25.580
REMARK  2 active torsions:
REMARK  status: ('A' for Active; 'I' for Inactive)
REMARK    1  A    between atoms: C5_9  and  O2_2 
REMARK    2  A    between atoms: C10_14  and  C7_11 
ROOT
HETATM    1  O1  UNK     1      12.543   6.629   6.345  1.00  0.00    -0.321 OA
HETATM    2  O3  UNK     1      12.200   5.651  10.296  1.00  0.00    -0.286 OA
HETATM    3  C1  UNK     1      11.121   6.055   8.233  1.00  0.00     0.051 A 
HETATM    4  C2  UNK     1      11.305   6.392   6.891  1.00  0.00     0.089 A 
HETATM    5  C3  UNK     1       9.837   5.825   8.732  1.00  0.00     0.055 A 
HETATM    6  C4  UNK     1      12.301   5.945   9.112  1.00  0.00     0.200 A 
HETATM    7  C5  UNK     1       8.738   5.935   7.880  1.00  0.00     0.069 A 
HETATM    8  C6  UNK     1      10.203   6.501   6.041  1.00  0.00     0.041 A 
HETATM    9  C7  UNK     1      13.609   6.209   8.475  1.00  0.00     0.075 A 
HETATM   10  C8  UNK     1       8.919   6.272   6.538  1.00  0.00     0.039 A 
HETATM   11  C9  UNK     1      13.634   6.523   7.175  1.00  0.00     0.161 A 
ENDROOT
BRANCH   7  12
HETATM   12  O2  UNK     1       7.482   5.713   8.358  1.00  0.00    -0.356 OA
HETATM   13  C11 UNK     1       7.350   4.767   9.418  1.00  0.00     0.210 C 
ENDBRANCH   7  12
BRANCH   9  14
HETATM   14  C10 UNK     1      14.884   6.146   9.189  1.00  0.00     0.276 C 
HETATM   15  O4  UNK     1      15.634   5.178   9.119  1.00  0.00    -0.301 OA
ENDBRANCH   9  14
TORSDOF 2
ENDMDL
MODEL 3
REMARK VINA RESULT:      -6.5     11.657     14.277
REMARK  2 active torsions:
REMARK  status: ('A' for Active; 'I' for Inactive)
REMARK    1  A    between atoms: C5_9  and  O2_2 
REMARK    2  A    between atoms: C10_14  and  C7_11 
ROOT
HETATM    1  O1  UNK     1      19.517   1.413  15.219  1.00  0.00    -0.321 OA
HETATM    2  O3  UNK     1      18.530  -1.667  17.712  1.00  0.00    -0.286 OA
HETATM    3  C1  UNK     1      19.004   0.635  17.465  1.00  0.00     0.051 A 
HETATM    4  C2  UNK     1      19.341   1.644  16.561  1.00  0.00     0.089 A 
HETATM    5  C3  UNK     1      18.839   0.928  18.819  1.00  0.00     0.055 A 
HETATM    6  C4  UNK     1      18.827  -0.743  16.966  1.00  0.00     0.200 A 
HETATM    7  C5  UNK     1      19.012   2.239  19.266  1.00  0.00     0.069 A 
HETATM    8  C6  UNK     1      19.514   2.954  17.011  1.00  0.00     0.041 A 
HETATM    9  C7  UNK     1      19.027  -0.936  15.514  1.00  0.00     0.075 A 
HETATM   10  C8  UNK     1      19.349   3.249  18.364  1.00  0.00     0.039 A 
HETATM   11  C9  UNK     1      19.348   0.126  14.767  1.00  0.00     0.161 A 
ENDROOT
BRANCH   7  12
HETATM   12  O2  UNK     1      18.852   2.535  20.586  1.00  0.00    -0.356 OA
HETATM   13  C11 UNK     1      19.858   2.066  21.482  1.00  0.00     0.210 C 
ENDBRANCH   7  12
BRANCH   9  14
HETATM   14  C10 UNK     1      18.892  -2.229  14.843  1.00  0.00     0.276 C 
HETATM   15  O4  UNK     1      17.854  -2.584  14.295  1.00  0.00    -0.301 OA
ENDBRANCH   9  14
TORSDOF 2
ENDMDL
MODEL 4
REMARK VINA RESULT:      -6.4      7.306      9.736
REMARK  2 active torsions:
REMARK  status: ('A' for Active; 'I' for Inactive)
REMARK    1  A    between atoms: C5_9  and  O2_2 
REMARK    2  A    between atoms: C10_14  and  C7_11 
ROOT
HETATM    1  O1  UNK     1      17.061   8.405  35.004  1.00  0.00    -0.321 OA
HETATM    2  O3  UNK     1      15.904   8.462  31.088  1.00  0.00    -0.286 OA
HETATM    3  C1  UNK     1      17.490   7.770  32.696  1.00  0.00     0.051 A 
HETATM    4  C2  UNK     1      17.830   7.785  34.050  1.00  0.00     0.089 A 
HETATM    5  C3  UNK     1      18.312   7.124  31.771  1.00  0.00     0.055 A 
HETATM    6  C4  UNK     1      16.252   8.444  32.261  1.00  0.00     0.200 A 
HETATM    7  C5  UNK     1      19.478   6.493  32.208  1.00  0.00     0.069 A 
HETATM    8  C6  UNK     1      18.997   7.153  34.484  1.00  0.00     0.041 A 
HETATM    9  C7  UNK     1      15.461   9.094  33.328  1.00  0.00     0.075 A 
HETATM   10  C8  UNK     1      19.820   6.508  33.560  1.00  0.00     0.039 A 
HETATM   11  C9  UNK     1      15.910   9.028  34.586  1.00  0.00     0.161 A 
ENDROOT
BRANCH   7  12
HETATM   12  O2  UNK     1      20.285   5.861  31.311  1.00  0.00    -0.356 OA
HETATM   13  C11 UNK     1      19.879   5.883  29.944  1.00  0.00     0.210 C 
ENDBRANCH   7  12
BRANCH   9  14
HETATM   14  C10 UNK     1      14.206   9.808  33.084  1.00  0.00     0.276 C 
HETATM   15  O4  UNK     1      14.172  10.973  32.704  1.00  0.00    -0.301 OA
ENDBRANCH   9  14
TORSDOF 2
ENDMDL
MODEL 5
REMARK VINA RESULT:      -6.3      4.307      6.921
REMARK  2 active torsions:
REMARK  status: ('A' for Active; 'I' for Inactive)
REMARK    1  A    between atoms: C5_9  and  O2_2 
REMARK    2  A    between atoms: C10_14  and  C7_11 
ROOT
HETATM    1  O1  UNK     1      18.946   5.170  29.684  1.00  0.00    -0.321 OA
HETATM    2  O3  UNK     1      17.840   2.247  32.313  1.00  0.00    -0.286 OA
HETATM    3  C1  UNK     1      18.193   4.549  31.911  1.00  0.00     0.051 A 
HETATM    4  C2  UNK     1      18.580   5.500  30.966  1.00  0.00     0.089 A 
HETATM    5  C3  UNK     1      17.831   4.943  33.201  1.00  0.00     0.055 A 
HETATM    6  C4  UNK     1      18.172   3.124  31.526  1.00  0.00     0.200 A 
HETATM    7  C5  UNK     1      17.859   6.297  33.540  1.00  0.00     0.069 A 
HETATM    8  C6  UNK     1      18.607   6.853  31.309  1.00  0.00     0.041 A 
HETATM    9  C7  UNK     1      18.574   2.824  30.135  1.00  0.00     0.075 A 
HETATM   10  C8  UNK     1      18.246   7.249  32.597  1.00  0.00     0.039 A 
HETATM   11  C9  UNK     1      18.921   3.840  29.338  1.00  0.00     0.161 A 
ENDROOT
BRANCH   7  12
HETATM   12  O2  UNK     1      17.508   6.690  34.795  1.00  0.00    -0.356 OA
HETATM   13  C11 UNK     1      16.787   7.915  34.913  1.00  0.00     0.210 C 
ENDBRANCH   7  12
BRANCH   9  14
HETATM   14  C10 UNK     1      18.612   1.472  29.578  1.00  0.00     0.276 C 
HETATM   15  O4  UNK     1      18.473   1.246  28.381  1.00  0.00    -0.301 OA
ENDBRANCH   9  14
TORSDOF 2
ENDMDL
MODEL 6
REMARK VINA RESULT:      -6.3      1.659      4.963
REMARK  2 active torsions:
REMARK  status: ('A' for Active; 'I' for Inactive)
REMARK    1  A    between atoms: C5_9  and  O2_2 
REMARK    2  A    between atoms: C10_14  and  C7_11 
ROOT
HETATM    1  O1  UNK     1      20.387  -2.394  32.614  1.00  0.00    -0.321 OA
HETATM    2  O3  UNK     1      17.977   0.771  33.539  1.00  0.00    -0.286 OA
HETATM    3  C1  UNK     1      19.248  -0.366  31.904  1.00  0.00     0.051 A 
HETATM    4  C2  UNK     1      20.066  -1.469  31.651  1.00  0.00     0.089 A 
HETATM    5  C3  UNK     1      18.956   0.543  30.885  1.00  0.00     0.055 A 
HETATM    6  C4  UNK     1      18.700  -0.177  33.261  1.00  0.00     0.200 A 
HETATM    7  C5  UNK     1      19.487   0.342  29.610  1.00  0.00     0.069 A 
HETATM    8  C6  UNK     1      20.595  -1.667  30.375  1.00  0.00     0.041 A 
HETATM    9  C7  UNK     1      19.075  -1.201  34.258  1.00  0.00     0.075 A 
HETATM   10  C8  UNK     1      20.305  -0.760  29.355  1.00  0.00     0.039 A 
HETATM   11  C9  UNK     1      19.868  -2.206  33.873  1.00  0.00     0.161 A 
ENDROOT
BRANCH   7  12
HETATM   12  O2  UNK     1      19.208   1.223  28.610  1.00  0.00    -0.356 OA
HETATM   13  C11 UNK     1      17.946   1.886  28.664  1.00  0.00     0.210 C 
ENDBRANCH   7  12
BRANCH   9  14
HETATM   14  C10 UNK     1      18.625  -1.178  35.650  1.00  0.00     0.276 C 
HETATM   15  O4  UNK     1      17.498  -1.526  35.986  1.00  0.00    -0.301 OA
ENDBRANCH   9  14
TORSDOF 2
ENDMDL
MODEL 7
REMARK VINA RESULT:      -6.3      1.658      2.565
REMARK  2 active torsions:
REMARK  status: ('A' for Active; 'I' for Inactive)
REMARK    1  A    between atoms: C5_9  and  O2_2 
REMARK    2  A    between atoms: C10_14  and  C7_11 
ROOT
HETATM    1  O1  UNK     1      19.022   1.742  28.837  1.00  0.00    -0.321 OA
HETATM    2  O3  UNK     1      18.799   1.431  32.903  1.00  0.00    -0.286 OA
HETATM    3  C1  UNK     1      19.385   0.424  30.848  1.00  0.00     0.051 A 
HETATM    4  C2  UNK     1      19.436   0.592  29.463  1.00  0.00     0.089 A 
HETATM    5  C3  UNK     1      19.821  -0.768  31.429  1.00  0.00     0.055 A 
HETATM    6  C4  UNK     1      18.866   1.523  31.684  1.00  0.00     0.200 A 
HETATM    7  C5  UNK     1      20.309  -1.793  30.616  1.00  0.00     0.069 A 
HETATM    8  C6  UNK     1      19.925  -0.435  28.653  1.00  0.00     0.041 A 
HETATM    9  C7  UNK     1      18.434   2.738  30.960  1.00  0.00     0.075 A 
HETATM   10  C8  UNK     1      20.360  -1.627  29.232  1.00  0.00     0.039 A 
HETATM   11  C9  UNK     1      18.540   2.758  29.628  1.00  0.00     0.161 A 
ENDROOT
BRANCH   7  12
HETATM   12  O2  UNK     1      20.735  -2.959  31.175  1.00  0.00    -0.356 OA
HETATM   13  C11 UNK     1      21.066  -2.931  32.562  1.00  0.00     0.210 C 
ENDBRANCH   7  12
BRANCH   9  14
HETATM   14  C10 UNK     1      17.894   3.926  31.623  1.00  0.00     0.276 C 
HETATM   15  O4  UNK     1      18.594   4.882  31.937  1.00  0.00    -0.301 OA
ENDBRANCH   9  14
TORSDOF 2
ENDMDL
MODEL 8
REMARK VINA RESULT:      -6.3      4.715      7.390
REMARK  2 active torsions:
REMARK  status: ('A' for Active; 'I' for Inactive)
REMARK    1  A    between atoms: C5_9  and  O2_2 
REMARK    2  A    between atoms: C10_14  and  C7_11 
ROOT
HETATM    1  O1  UNK     1      17.984   3.146  32.734  1.00  0.00    -0.321 OA
HETATM    2  O3  UNK     1      19.189   5.261  29.454  1.00  0.00    -0.286 OA
HETATM    3  C1  UNK     1      18.616   5.277  31.746  1.00  0.00     0.051 A 
HETATM    4  C2  UNK     1      18.204   4.498  32.830  1.00  0.00     0.089 A 
HETATM    5  C3  UNK     1      18.825   6.648  31.903  1.00  0.00     0.055 A 
HETATM    6  C4  UNK     1      18.827   4.628  30.438  1.00  0.00     0.200 A 
HETATM    7  C5  UNK     1      18.619   7.238  33.151  1.00  0.00     0.069 A 
HETATM    8  C6  UNK     1      17.999   5.091  34.077  1.00  0.00     0.041 A 
HETATM    9  C7  UNK     1      18.576   3.172  30.390  1.00  0.00     0.075 A 
HETATM   10  C8  UNK     1      18.207   6.461  34.235  1.00  0.00     0.039 A 
HETATM   11  C9  UNK     1      18.184   2.555  31.509  1.00  0.00     0.161 A 
ENDROOT
BRANCH   7  12
HETATM   12  O2  UNK     1      18.820   8.575  33.313  1.00  0.00    -0.356 OA
HETATM   13  C11 UNK     1      17.718   9.343  33.793  1.00  0.00     0.210 C 
ENDBRANCH   7  12
BRANCH   9  14
HETATM   14  C10 UNK     1      18.734   2.363  29.181  1.00  0.00     0.276 C 
HETATM   15  O4  UNK     1      17.941   2.408  28.247  1.00  0.00    -0.301 OA
ENDBRANCH   9  14
TORSDOF 2
ENDMDL
MODEL 9
REMARK VINA RESULT:      -6.2     22.334     24.764
REMARK  2 active torsions:
REMARK  status: ('A' for Active; 'I' for Inactive)
REMARK    1  A    between atoms: C5_9  and  O2_2 
REMARK    2  A    between atoms: C10_14  and  C7_11 
ROOT
HETATM    1  O1  UNK     1      14.557   4.819   9.527  1.00  0.00    -0.321 OA
HETATM    2  O3  UNK     1      14.906   8.842   8.917  1.00  0.00    -0.286 OA
HETATM    3  C1  UNK     1      13.727   6.845   8.468  1.00  0.00     0.051 A 
HETATM    4  C2  UNK     1      13.662   5.473   8.716  1.00  0.00     0.089 A 
HETATM    5  C3  UNK     1      12.789   7.455   7.633  1.00  0.00     0.055 A 
HETATM    6  C4  UNK     1      14.801   7.636   9.099  1.00  0.00     0.200 A 
HETATM    7  C5  UNK     1      11.783   6.685   7.049  1.00  0.00     0.069 A 
HETATM    8  C6  UNK     1      12.654   4.705   8.130  1.00  0.00     0.041 A 
HETATM    9  C7  UNK     1      15.737   6.885   9.962  1.00  0.00     0.075 A 
HETATM   10  C8  UNK     1      11.716   5.313   7.296  1.00  0.00     0.039 A 
HETATM   11  C9  UNK     1      15.551   5.569  10.109  1.00  0.00     0.161 A 
ENDROOT
BRANCH   7  12
HETATM   12  O2  UNK     1      10.864   7.272   6.234  1.00  0.00    -0.356 OA
HETATM   13  C11 UNK     1       9.762   6.469   5.815  1.00  0.00     0.210 C 
ENDBRANCH   7  12
BRANCH   9  14
HETATM   14  C10 UNK     1      16.859   7.502  10.669  1.00  0.00     0.276 C 
HETATM   15  O4  UNK     1      17.986   7.567  10.192  1.00  0.00    -0.301 OA
ENDBRANCH   9  14
TORSDOF 2
ENDMDL
MODEL 10
REMARK VINA RESULT:      -6.2     12.864     14.938
REMARK  2 active torsions:
REMARK  status: ('A' for Active; 'I' for Inactive)
REMARK    1  A    between atoms: C5_9  and  O2_2 
REMARK    2  A    between atoms: C10_14  and  C7_11 
ROOT
HETATM    1  O1  UNK     1      19.465   1.603  15.316  1.00  0.00    -0.321 OA
HETATM    2  O3  UNK     1      18.618  -0.065  18.946  1.00  0.00    -0.286 OA
HETATM    3  C1  UNK     1      18.960  -0.380  16.630  1.00  0.00     0.051 A 
HETATM    4  C2  UNK     1      19.254   0.250  15.419  1.00  0.00     0.089 A 
HETATM    5  C3  UNK     1      18.755  -1.760  16.674  1.00  0.00     0.055 A 
HETATM    6  C4  UNK     1      18.871   0.434  17.857  1.00  0.00     0.200 A 
HETATM    7  C5  UNK     1      18.845  -2.508  15.499  1.00  0.00     0.069 A 
HETATM    8  C6  UNK     1      19.344  -0.501  14.245  1.00  0.00     0.041 A 
HETATM    9  C7  UNK     1      19.108   1.884  17.690  1.00  0.00     0.075 A 
HETATM   10  C8  UNK     1      19.139  -1.880  14.288  1.00  0.00     0.039 A 
HETATM   11  C9  UNK     1      19.380   2.349  16.467  1.00  0.00     0.161 A 
ENDROOT
BRANCH   7  12
HETATM   12  O2  UNK     1      18.646  -3.854  15.533  1.00  0.00    -0.356 OA
HETATM   13  C11 UNK     1      18.168  -4.470  14.338  1.00  0.00     0.210 C 
ENDBRANCH   7  12
BRANCH   9  14
HETATM   14  C10 UNK     1      19.062   2.843  18.794  1.00  0.00     0.276 C 
HETATM   15  O4  UNK     1      19.952   3.662  18.996  1.00  0.00    -0.301 OA
ENDBRANCH   9  14
TORSDOF 2
ENDMDL
