MODEL 1
REMARK VINA RESULT:      -7.0      0.000      0.000
REMARK  4 active torsions:
REMARK  status: ('A' for Active; 'I' for Inactive)
REMARK    1  A    between atoms: C4_7  and  O1_2 
REMARK    2  A    between atoms: C1_4  and  C3_6 
REMARK    3  A    between atoms: C2_5  and  C5_8 
REMARK    4  A    between atoms: C3_6  and  C7_10 
ROOT
HETATM    1  O2  UNK     1      18.084   9.761  33.034  1.00  0.00    -0.287 OA
HETATM    2  C3  UNK     1      17.668   8.793  33.662  1.00  0.00     0.184 C 
ENDROOT
BRANCH   2   3
HETATM    3  C1  UNK     1      16.362   8.189  33.304  1.00  0.00     0.047 A 
HETATM    4  C4  UNK     1      16.052   7.890  31.978  1.00  0.00     0.079 A 
HETATM    5  C10 UNK     1      14.818   7.322  31.661  1.00  0.00     0.037 A 
HETATM    6  C12 UNK     1      13.894   7.052  32.672  1.00  0.00     0.003 A 
HETATM    7  C11 UNK     1      14.206   7.351  33.999  1.00  0.00     0.001 A 
HETATM    8  C6  UNK     1      15.440   7.919  34.314  1.00  0.00     0.018 A 
BRANCH   4   9
HETATM    9  O1  UNK     1      16.941   8.144  30.976  1.00  0.00    -0.360 OA
HETATM   10  H11 UNK     1      17.134   9.097  30.957  1.00  0.00     0.217 HD
ENDBRANCH   4   9
ENDBRANCH   2   3
BRANCH   2  11
HETATM   11  C7  UNK     1      18.442   8.162  34.768  1.00  0.00     0.056 C 
HETATM   12  C5  UNK     1      19.015   6.950  34.595  1.00  0.00     0.015 C 
BRANCH  12  13
HETATM   13  C2  UNK     1      18.948   6.157  33.378  1.00  0.00    -0.036 A 
HETATM   14  C8  UNK     1      19.772   6.468  32.297  1.00  0.00     0.012 A 
HETATM   15  C13 UNK     1      19.706   5.707  31.128  1.00  0.00     0.020 A 
HETATM   16  C15 UNK     1      18.817   4.636  31.043  1.00  0.00     0.011 A 
HETATM   17 Br1  UNK     1      18.728   3.606  29.460  1.00  0.00    -0.051 Br
HETATM   18  C14 UNK     1      17.994   4.325  32.125  1.00  0.00     0.020 A 
HETATM   19  C9  UNK     1      18.059   5.085  33.292  1.00  0.00     0.012 A 
ENDBRANCH  12  13
ENDBRANCH   2  11
TORSDOF 4
ENDMDL
MODEL 2
REMARK VINA RESULT:      -6.8      4.014      6.931
REMARK  4 active torsions:
REMARK  status: ('A' for Active; 'I' for Inactive)
REMARK    1  A    between atoms: C4_7  and  O1_2 
REMARK    2  A    between atoms: C1_4  and  C3_6 
REMARK    3  A    between atoms: C2_5  and  C5_8 
REMARK    4  A    between atoms: C3_6  and  C7_10 
ROOT
HETATM    1  O2  UNK     1      17.801   3.027  31.536  1.00  0.00    -0.287 OA
HETATM    2  C3  UNK     1      18.451   2.694  30.551  1.00  0.00     0.184 C 
ENDROOT
BRANCH   2   3
HETATM    3  C1  UNK     1      19.082   1.353  30.504  1.00  0.00     0.047 A 
HETATM    4  C4  UNK     1      19.141   0.551  31.643  1.00  0.00     0.079 A 
HETATM    5  C10 UNK     1      19.739  -0.708  31.579  1.00  0.00     0.037 A 
HETATM    6  C12 UNK     1      20.278  -1.164  30.375  1.00  0.00     0.003 A 
HETATM    7  C11 UNK     1      20.217  -0.361  29.236  1.00  0.00     0.001 A 
HETATM    8  C6  UNK     1      19.619   0.897  29.301  1.00  0.00     0.018 A 
BRANCH   4   9
HETATM    9  O1  UNK     1      18.619   0.977  32.829  1.00  0.00    -0.360 OA
HETATM   10  H11 UNK     1      17.926   0.357  33.111  1.00  0.00     0.217 HD
ENDBRANCH   4   9
ENDBRANCH   2   3
BRANCH   2  11
HETATM   11  C7  UNK     1      18.613   3.576  29.361  1.00  0.00     0.056 C 
HETATM   12  C5  UNK     1      18.857   4.897  29.519  1.00  0.00     0.015 C 
BRANCH  12  13
HETATM   13  C2  UNK     1      18.981   5.579  30.796  1.00  0.00    -0.036 A 
HETATM   14  C8  UNK     1      17.860   6.162  31.388  1.00  0.00     0.012 A 
HETATM   15  C13 UNK     1      17.979   6.819  32.613  1.00  0.00     0.020 A 
HETATM   16  C15 UNK     1      19.220   6.892  33.247  1.00  0.00     0.011 A 
HETATM   17 Br1  UNK     1      19.382   7.781  34.907  1.00  0.00    -0.051 Br
HETATM   18  C14 UNK     1      20.341   6.309  32.656  1.00  0.00     0.020 A 
HETATM   19  C9  UNK     1      20.221   5.653  31.431  1.00  0.00     0.012 A 
ENDBRANCH  12  13
ENDBRANCH   2  11
TORSDOF 4
ENDMDL
MODEL 3
REMARK VINA RESULT:      -6.8      3.122      5.548
REMARK  4 active torsions:
REMARK  status: ('A' for Active; 'I' for Inactive)
REMARK    1  A    between atoms: C4_7  and  O1_2 
REMARK    2  A    between atoms: C1_4  and  C3_6 
REMARK    3  A    between atoms: C2_5  and  C5_8 
REMARK    4  A    between atoms: C3_6  and  C7_10 
ROOT
HETATM    1  O2  UNK     1      16.411   8.308  30.878  1.00  0.00    -0.287 OA
HETATM    2  C3  UNK     1      16.843   7.486  31.680  1.00  0.00     0.184 C 
ENDROOT
BRANCH   2   3
HETATM    3  C1  UNK     1      18.184   6.889  31.472  1.00  0.00     0.047 A 
HETATM    4  C4  UNK     1      18.579   6.439  30.213  1.00  0.00     0.079 A 
HETATM    5  C10 UNK     1      19.845   5.880  30.038  1.00  0.00     0.037 A 
HETATM    6  C12 UNK     1      20.716   5.772  31.123  1.00  0.00     0.003 A 
HETATM    7  C11 UNK     1      20.320   6.223  32.382  1.00  0.00     0.001 A 
HETATM    8  C6  UNK     1      19.054   6.782  32.557  1.00  0.00     0.018 A 
BRANCH   4   9
HETATM    9  O1  UNK     1      17.744   6.537  29.140  1.00  0.00    -0.360 OA
HETATM   10  H11 UNK     1      18.252   6.840  28.369  1.00  0.00     0.217 HD
ENDBRANCH   4   9
ENDBRANCH   2   3
BRANCH   2  11
HETATM   11  C7  UNK     1      16.084   7.074  32.894  1.00  0.00     0.056 C 
HETATM   12  C5  UNK     1      15.931   7.933  33.927  1.00  0.00     0.015 C 
BRANCH  12  13
HETATM   13  C2  UNK     1      16.460   9.286  33.978  1.00  0.00    -0.036 A 
HETATM   14  C8  UNK     1      17.837   9.494  34.067  1.00  0.00     0.012 A 
HETATM   15  C13 UNK     1      18.345  10.793  34.118  1.00  0.00     0.020 A 
HETATM   16  C15 UNK     1      17.475  11.883  34.078  1.00  0.00     0.011 A 
HETATM   17 Br1  UNK     1      18.163  13.642  34.146  1.00  0.00    -0.051 Br
HETATM   18  C14 UNK     1      16.099  11.675  33.988  1.00  0.00     0.020 A 
HETATM   19  C9  UNK     1      15.592  10.377  33.938  1.00  0.00     0.012 A 
ENDBRANCH  12  13
ENDBRANCH   2  11
TORSDOF 4
ENDMDL
MODEL 4
REMARK VINA RESULT:      -6.8     23.043     24.631
REMARK  4 active torsions:
REMARK  status: ('A' for Active; 'I' for Inactive)
REMARK    1  A    between atoms: C4_7  and  O1_2 
REMARK    2  A    between atoms: C1_4  and  C3_6 
REMARK    3  A    between atoms: C2_5  and  C5_8 
REMARK    4  A    between atoms: C3_6  and  C7_10 
ROOT
HETATM    1  O2  UNK     1      11.952   5.662  10.323  1.00  0.00    -0.287 OA
HETATM    2  C3  UNK     1      12.128   5.451   9.128  1.00  0.00     0.184 C 
ENDROOT
BRANCH   2   3
HETATM    3  C1  UNK     1      11.060   5.787   8.156  1.00  0.00     0.047 A 
HETATM    4  C4  UNK     1       9.718   5.786   8.539  1.00  0.00     0.079 A 
HETATM    5  C10 UNK     1       8.728   6.105   7.610  1.00  0.00     0.037 A 
HETATM    6  C12 UNK     1       9.080   6.423   6.297  1.00  0.00     0.003 A 
HETATM    7  C11 UNK     1      10.421   6.424   5.915  1.00  0.00     0.001 A 
HETATM    8  C6  UNK     1      11.411   6.105   6.845  1.00  0.00     0.018 A 
BRANCH   4   9
HETATM    9  O1  UNK     1       9.355   5.480   9.816  1.00  0.00    -0.360 OA
HETATM   10  H11 UNK     1       8.466   5.834   9.987  1.00  0.00     0.217 HD
ENDBRANCH   4   9
ENDBRANCH   2   3
BRANCH   2  11
HETATM   11  C7  UNK     1      13.400   4.892   8.591  1.00  0.00     0.056 C 
HETATM   12  C5  UNK     1      14.545   5.607   8.667  1.00  0.00     0.015 C 
BRANCH  12  13
HETATM   13  C2  UNK     1      14.668   6.934   9.247  1.00  0.00    -0.036 A 
HETATM   14  C8  UNK     1      15.231   7.092  10.514  1.00  0.00     0.012 A 
HETATM   15  C13 UNK     1      15.347   8.366  11.072  1.00  0.00     0.020 A 
HETATM   16  C15 UNK     1      14.901   9.481  10.362  1.00  0.00     0.011 A 
HETATM   17 Br1  UNK     1      15.059  11.207  11.117  1.00  0.00    -0.051 Br
HETATM   18  C14 UNK     1      14.339   9.323   9.095  1.00  0.00     0.020 A 
HETATM   19  C9  UNK     1      14.223   8.050   8.539  1.00  0.00     0.012 A 
ENDBRANCH  12  13
ENDBRANCH   2  11
TORSDOF 4
ENDMDL
MODEL 5
REMARK VINA RESULT:      -6.8     23.030     24.613
REMARK  4 active torsions:
REMARK  status: ('A' for Active; 'I' for Inactive)
REMARK    1  A    between atoms: C4_7  and  O1_2 
REMARK    2  A    between atoms: C1_4  and  C3_6 
REMARK    3  A    between atoms: C2_5  and  C5_8 
REMARK    4  A    between atoms: C3_6  and  C7_10 
ROOT
HETATM    1  O2  UNK     1      11.956   5.642  10.329  1.00  0.00    -0.287 OA
HETATM    2  C3  UNK     1      12.130   5.447   9.131  1.00  0.00     0.184 C 
ENDROOT
BRANCH   2   3
HETATM    3  C1  UNK     1      11.056   5.783   8.166  1.00  0.00     0.047 A 
HETATM    4  C4  UNK     1       9.717   5.779   8.557  1.00  0.00     0.079 A 
HETATM    5  C10 UNK     1       8.720   6.099   7.635  1.00  0.00     0.037 A 
HETATM    6  C12 UNK     1       9.063   6.422   6.321  1.00  0.00     0.003 A 
HETATM    7  C11 UNK     1      10.402   6.426   5.931  1.00  0.00     0.001 A 
HETATM    8  C6  UNK     1      11.398   6.107   6.854  1.00  0.00     0.018 A 
BRANCH   4   9
HETATM    9  O1  UNK     1       9.361   5.468   9.836  1.00  0.00    -0.360 OA
HETATM   10  H11 UNK     1       8.429   5.705   9.973  1.00  0.00     0.217 HD
ENDBRANCH   4   9
ENDBRANCH   2   3
BRANCH   2  11
HETATM   11  C7  UNK     1      13.406   4.907   8.583  1.00  0.00     0.056 C 
HETATM   12  C5  UNK     1      14.544   5.634   8.661  1.00  0.00     0.015 C 
BRANCH  12  13
HETATM   13  C2  UNK     1      14.655   6.957   9.255  1.00  0.00    -0.036 A 
HETATM   14  C8  UNK     1      14.199   8.075   8.557  1.00  0.00     0.012 A 
HETATM   15  C13 UNK     1      14.307   9.345   9.126  1.00  0.00     0.020 A 
HETATM   16  C15 UNK     1      14.870   9.495  10.394  1.00  0.00     0.011 A 
HETATM   17 Br1  UNK     1      15.016  11.214  11.165  1.00  0.00    -0.051 Br
HETATM   18  C14 UNK     1      15.324   8.376  11.092  1.00  0.00     0.020 A 
HETATM   19  C9  UNK     1      15.217   7.108  10.523  1.00  0.00     0.012 A 
ENDBRANCH  12  13
ENDBRANCH   2  11
TORSDOF 4
ENDMDL
MODEL 6
REMARK VINA RESULT:      -6.7     22.962     24.500
REMARK  4 active torsions:
REMARK  status: ('A' for Active; 'I' for Inactive)
REMARK    1  A    between atoms: C4_7  and  O1_2 
REMARK    2  A    between atoms: C1_4  and  C3_6 
REMARK    3  A    between atoms: C2_5  and  C5_8 
REMARK    4  A    between atoms: C3_6  and  C7_10 
ROOT
HETATM    1  O2  UNK     1      13.631   7.698  11.009  1.00  0.00    -0.287 OA
HETATM    2  C3  UNK     1      14.635   7.526  10.326  1.00  0.00     0.184 C 
ENDROOT
BRANCH   2   3
HETATM    3  C1  UNK     1      15.324   8.692   9.723  1.00  0.00     0.047 A 
HETATM    4  C4  UNK     1      14.647   9.559   8.865  1.00  0.00     0.079 A 
HETATM    5  C10 UNK     1      15.313  10.650   8.308  1.00  0.00     0.037 A 
HETATM    6  C12 UNK     1      16.658  10.874   8.608  1.00  0.00     0.003 A 
HETATM    7  C11 UNK     1      17.334  10.007   9.466  1.00  0.00     0.001 A 
HETATM    8  C6  UNK     1      16.667   8.916  10.024  1.00  0.00     0.018 A 
BRANCH   4   9
HETATM    9  O1  UNK     1      13.333   9.358   8.561  1.00  0.00    -0.360 OA
HETATM   10  H11 UNK     1      12.887   8.961   9.328  1.00  0.00     0.217 HD
ENDBRANCH   4   9
ENDBRANCH   2   3
BRANCH   2  11
HETATM   11  C7  UNK     1      15.226   6.178  10.094  1.00  0.00     0.056 C 
HETATM   12  C5  UNK     1      14.615   5.297   9.269  1.00  0.00     0.015 C 
BRANCH  12  13
HETATM   13  C2  UNK     1      13.377   5.544   8.549  1.00  0.00    -0.036 A 
HETATM   14  C8  UNK     1      13.401   6.225   7.331  1.00  0.00     0.012 A 
HETATM   15  C13 UNK     1      12.212   6.463   6.641  1.00  0.00     0.020 A 
HETATM   16  C15 UNK     1      10.999   6.019   7.168  1.00  0.00     0.011 A 
HETATM   17 Br1  UNK     1       9.389   6.341   6.232  1.00  0.00    -0.051 Br
HETATM   18  C14 UNK     1      10.975   5.337   8.385  1.00  0.00     0.020 A 
HETATM   19  C9  UNK     1      12.163   5.100   9.075  1.00  0.00     0.012 A 
ENDBRANCH  12  13
ENDBRANCH   2  11
TORSDOF 4
ENDMDL
MODEL 7
REMARK VINA RESULT:      -6.7      3.281      5.790
REMARK  4 active torsions:
REMARK  status: ('A' for Active; 'I' for Inactive)
REMARK    1  A    between atoms: C4_7  and  O1_2 
REMARK    2  A    between atoms: C1_4  and  C3_6 
REMARK    3  A    between atoms: C2_5  and  C5_8 
REMARK    4  A    between atoms: C3_6  and  C7_10 
ROOT
HETATM    1  O2  UNK     1      16.389   8.352  30.734  1.00  0.00    -0.287 OA
HETATM    2  C3  UNK     1      16.649   7.450  31.523  1.00  0.00     0.184 C 
ENDROOT
BRANCH   2   3
HETATM    3  C1  UNK     1      18.044   6.965  31.654  1.00  0.00     0.047 A 
HETATM    4  C4  UNK     1      18.726   6.442  30.556  1.00  0.00     0.079 A 
HETATM    5  C10 UNK     1      20.038   5.991  30.699  1.00  0.00     0.037 A 
HETATM    6  C12 UNK     1      20.668   6.063  31.943  1.00  0.00     0.003 A 
HETATM    7  C11 UNK     1      19.985   6.586  33.041  1.00  0.00     0.001 A 
HETATM    8  C6  UNK     1      18.674   7.038  32.897  1.00  0.00     0.018 A 
BRANCH   4   9
HETATM    9  O1  UNK     1      18.129   6.365  29.333  1.00  0.00    -0.360 OA
HETATM   10  H11 UNK     1      18.109   7.251  28.933  1.00  0.00     0.217 HD
ENDBRANCH   4   9
ENDBRANCH   2   3
BRANCH   2  11
HETATM   11  C7  UNK     1      15.616   6.827  32.397  1.00  0.00     0.056 C 
HETATM   12  C5  UNK     1      14.960   7.572  33.316  1.00  0.00     0.015 C 
BRANCH  12  13
HETATM   13  C2  UNK     1      15.172   8.991  33.551  1.00  0.00    -0.036 A 
HETATM   14  C8  UNK     1      14.254   9.923  33.067  1.00  0.00     0.012 A 
HETATM   15  C13 UNK     1      14.458  11.285  33.291  1.00  0.00     0.020 A 
HETATM   16  C15 UNK     1      15.581  11.714  34.000  1.00  0.00     0.011 A 
HETATM   17 Br1  UNK     1      15.857  13.559  34.304  1.00  0.00    -0.051 Br
HETATM   18  C14 UNK     1      16.498  10.782  34.484  1.00  0.00     0.020 A 
HETATM   19  C9  UNK     1      16.294   9.421  34.259  1.00  0.00     0.012 A 
ENDBRANCH  12  13
ENDBRANCH   2  11
TORSDOF 4
ENDMDL
MODEL 8
REMARK VINA RESULT:      -6.7      3.327      5.883
REMARK  4 active torsions:
REMARK  status: ('A' for Active; 'I' for Inactive)
REMARK    1  A    between atoms: C4_7  and  O1_2 
REMARK    2  A    between atoms: C1_4  and  C3_6 
REMARK    3  A    between atoms: C2_5  and  C5_8 
REMARK    4  A    between atoms: C3_6  and  C7_10 
ROOT
HETATM    1  O2  UNK     1      16.299   8.477  30.770  1.00  0.00    -0.287 OA
HETATM    2  C3  UNK     1      16.122   7.665  31.672  1.00  0.00     0.184 C 
ENDROOT
BRANCH   2   3
HETATM    3  C1  UNK     1      17.274   7.209  32.487  1.00  0.00     0.047 A 
HETATM    4  C4  UNK     1      18.081   8.125  33.161  1.00  0.00     0.079 A 
HETATM    5  C10 UNK     1      19.160   7.677  33.922  1.00  0.00     0.037 A 
HETATM    6  C12 UNK     1      19.431   6.310  34.011  1.00  0.00     0.003 A 
HETATM    7  C11 UNK     1      18.623   5.394  33.337  1.00  0.00     0.001 A 
HETATM    8  C6  UNK     1      17.544   5.844  32.576  1.00  0.00     0.018 A 
BRANCH   4   9
HETATM    9  O1  UNK     1      17.832   9.464  33.088  1.00  0.00    -0.360 OA
HETATM   10  H11 UNK     1      18.675   9.939  32.995  1.00  0.00     0.217 HD
ENDBRANCH   4   9
ENDBRANCH   2   3
BRANCH   2  11
HETATM   11  C7  UNK     1      14.776   7.129  32.017  1.00  0.00     0.056 C 
HETATM   12  C5  UNK     1      13.956   7.820  32.840  1.00  0.00     0.015 C 
BRANCH  12  13
HETATM   13  C2  UNK     1      14.271   9.098  33.457  1.00  0.00    -0.036 A 
HETATM   14  C8  UNK     1      14.002  10.286  32.777  1.00  0.00     0.012 A 
HETATM   15  C13 UNK     1      14.306  11.513  33.368  1.00  0.00     0.020 A 
HETATM   16  C15 UNK     1      14.877  11.551  34.640  1.00  0.00     0.011 A 
HETATM   17 Br1  UNK     1      15.289  13.213  35.441  1.00  0.00    -0.051 Br
HETATM   18  C14 UNK     1      15.145  10.363  35.321  1.00  0.00     0.020 A 
HETATM   19  C9  UNK     1      14.842   9.138  34.729  1.00  0.00     0.012 A 
ENDBRANCH  12  13
ENDBRANCH   2  11
TORSDOF 4
ENDMDL
MODEL 9
REMARK VINA RESULT:      -6.7     23.142     24.675
REMARK  4 active torsions:
REMARK  status: ('A' for Active; 'I' for Inactive)
REMARK    1  A    between atoms: C4_7  and  O1_2 
REMARK    2  A    between atoms: C1_4  and  C3_6 
REMARK    3  A    between atoms: C2_5  and  C5_8 
REMARK    4  A    between atoms: C3_6  and  C7_10 
ROOT
HETATM    1  O2  UNK     1      13.827   6.652   7.245  1.00  0.00    -0.287 OA
HETATM    2  C3  UNK     1      13.057   5.958   7.900  1.00  0.00     0.184 C 
ENDROOT
BRANCH   2   3
HETATM    3  C1  UNK     1      11.600   6.026   7.637  1.00  0.00     0.047 A 
HETATM    4  C4  UNK     1      11.111   6.101   6.333  1.00  0.00     0.079 A 
HETATM    5  C10 UNK     1       9.736   6.165   6.106  1.00  0.00     0.037 A 
HETATM    6  C12 UNK     1       8.850   6.154   7.184  1.00  0.00     0.003 A 
HETATM    7  C11 UNK     1       9.340   6.078   8.489  1.00  0.00     0.001 A 
HETATM    8  C6  UNK     1      10.715   6.014   8.715  1.00  0.00     0.018 A 
BRANCH   4   9
HETATM    9  O1  UNK     1      11.960   6.113   5.267  1.00  0.00    -0.360 OA
HETATM   10  H11 UNK     1      11.461   5.893   4.462  1.00  0.00     0.217 HD
ENDBRANCH   4   9
ENDBRANCH   2   3
BRANCH   2  11
HETATM   11  C7  UNK     1      13.527   5.006   8.946  1.00  0.00     0.056 C 
HETATM   12  C5  UNK     1      14.334   5.432   9.944  1.00  0.00     0.015 C 
BRANCH  12  13
HETATM   13  C2  UNK     1      14.817   6.794  10.108  1.00  0.00    -0.036 A 
HETATM   14  C8  UNK     1      13.934   7.806  10.485  1.00  0.00     0.012 A 
HETATM   15  C13 UNK     1      14.396   9.114  10.641  1.00  0.00     0.020 A 
HETATM   16  C15 UNK     1      15.742   9.407  10.421  1.00  0.00     0.011 A 
HETATM   17 Br1  UNK     1      16.369  11.178  10.633  1.00  0.00    -0.051 Br
HETATM   18  C14 UNK     1      16.625   8.395  10.046  1.00  0.00     0.020 A 
HETATM   19  C9  UNK     1      16.162   7.089   9.889  1.00  0.00     0.012 A 
ENDBRANCH  12  13
ENDBRANCH   2  11
TORSDOF 4
ENDMDL
MODEL 10
REMARK VINA RESULT:      -6.4     23.446     25.342
REMARK  4 active torsions:
REMARK  status: ('A' for Active; 'I' for Inactive)
REMARK    1  A    between atoms: C4_7  and  O1_2 
REMARK    2  A    between atoms: C1_4  and  C3_6 
REMARK    3  A    between atoms: C2_5  and  C5_8 
REMARK    4  A    between atoms: C3_6  and  C7_10 
ROOT
HETATM    1  O2  UNK     1      12.052   4.492   8.283  1.00  0.00    -0.287 OA
HETATM    2  C3  UNK     1      12.560   5.520   7.847  1.00  0.00     0.184 C 
ENDROOT
BRANCH   2   3
HETATM    3  C1  UNK     1      13.584   6.231   8.649  1.00  0.00     0.047 A 
HETATM    4  C4  UNK     1      14.426   5.534   9.515  1.00  0.00     0.079 A 
HETATM    5  C10 UNK     1      15.384   6.221  10.261  1.00  0.00     0.037 A 
HETATM    6  C12 UNK     1      15.499   7.607  10.140  1.00  0.00     0.003 A 
HETATM    7  C11 UNK     1      14.657   8.304   9.273  1.00  0.00     0.001 A 
HETATM    8  C6  UNK     1      13.700   7.616   8.527  1.00  0.00     0.018 A 
BRANCH   4   9
HETATM    9  O1  UNK     1      14.330   4.180   9.647  1.00  0.00    -0.360 OA
HETATM   10  H11 UNK     1      14.270   3.957  10.591  1.00  0.00     0.217 HD
ENDBRANCH   4   9
ENDBRANCH   2   3
BRANCH   2  11
HETATM   11  C7  UNK     1      12.214   6.082   6.512  1.00  0.00     0.056 C 
HETATM   12  C5  UNK     1      10.998   6.636   6.299  1.00  0.00     0.015 C 
BRANCH  12  13
HETATM   13  C2  UNK     1       9.940   6.742   7.290  1.00  0.00    -0.036 A 
HETATM   14  C8  UNK     1       8.825   5.908   7.212  1.00  0.00     0.012 A 
HETATM   15  C13 UNK     1       7.808   6.011   8.162  1.00  0.00     0.020 A 
HETATM   16  C15 UNK     1       7.908   6.948   9.190  1.00  0.00     0.011 A 
HETATM   17 Br1  UNK     1       6.531   7.088  10.478  1.00  0.00    -0.051 Br
HETATM   18  C14 UNK     1       9.024   7.782   9.269  1.00  0.00     0.020 A 
HETATM   19  C9  UNK     1      10.039   7.679   8.318  1.00  0.00     0.012 A 
ENDBRANCH  12  13
ENDBRANCH   2  11
TORSDOF 4
ENDMDL
