MODEL 1
REMARK VINA RESULT:      -8.4      0.000      0.000
REMARK  7 active torsions:
REMARK  status: ('A' for Active; 'I' for Inactive)
REMARK    1  A    between atoms: C9_19  and  O3_6 
REMARK    2  A    between atoms: C19_29  and  O5_8 
REMARK    3  A    between atoms: C21_31  and  O6_9 
REMARK    4  A    between atoms: C1_11  and  N1_10 
REMARK    5  A    between atoms: C1_11  and  C4_14 
REMARK    6  A    between atoms: C10_20  and  C15_25 
REMARK    7  A    between atoms: C13_23  and  C16_26 
ROOT
HETATM    1  O2  UNK     1      17.671   9.036  33.726  1.00  0.00    -0.303 OA
HETATM    2  O4  UNK     1      15.130   6.645  31.635  1.00  0.00    -0.286 OA
HETATM    3  C4  UNK     1      15.980  10.642  34.073  1.00  0.00     0.038 A 
HETATM    4  C7  UNK     1      16.372   9.418  33.530  1.00  0.00     0.101 A 
HETATM    5  C8  UNK     1      15.456   8.645  32.826  1.00  0.00     0.050 A 
HETATM    6  C9  UNK     1      14.668  11.088  33.907  1.00  0.00     0.076 A 
HETATM    7  C10 UNK     1      17.319   6.979  32.503  1.00  0.00     0.064 A 
HETATM    8  C11 UNK     1      15.897   7.360  32.265  1.00  0.00     0.198 A 
HETATM    9  C12 UNK     1      14.142   9.087  32.656  1.00  0.00     0.021 A 
HETATM   10  C13 UNK     1      18.105   7.823  33.206  1.00  0.00     0.174 A 
HETATM   11  C14 UNK     1      13.750  10.311  33.199  1.00  0.00     0.038 A 
ENDROOT
BRANCH   7  12
HETATM   12  C15 UNK     1      17.816   5.716  31.975  1.00  0.00    -0.016 A 
HETATM   13  C17 UNK     1      17.615   4.536  32.690  1.00  0.00     0.052 A 
HETATM   14  C19 UNK     1      18.090   3.326  32.183  1.00  0.00     0.102 A 
HETATM   15  C21 UNK     1      18.765   3.298  30.963  1.00  0.00     0.101 A 
HETATM   16  C20 UNK     1      18.964   4.480  30.249  1.00  0.00     0.040 A 
HETATM   17  C18 UNK     1      18.489   5.689  30.755  1.00  0.00     0.015 A 
BRANCH  14  18
HETATM   18  O5  UNK     1      17.892   2.178  32.891  1.00  0.00    -0.353 OA
HETATM   19  C22 UNK     1      18.239   2.202  34.274  1.00  0.00     0.210 C 
ENDBRANCH  14  18
BRANCH  15  20
HETATM   20  O6  UNK     1      19.234   2.123  30.458  1.00  0.00    -0.353 OA
HETATM   21  C23 UNK     1      18.582   1.608  29.300  1.00  0.00     0.210 C 
ENDBRANCH  15  20
ENDBRANCH   7  12
BRANCH  10  22
HETATM   22  C16 UNK     1      19.553   7.577  33.525  1.00  0.00     0.440 C 
HETATM   23  F1  UNK     1      19.683   6.564  34.403  1.00  0.00    -0.164 F 
HETATM   24  F2  UNK     1      20.240   7.256  32.412  1.00  0.00    -0.164 F 
HETATM   25  F3  UNK     1      20.120   8.674  34.064  1.00  0.00    -0.164 F 
ENDBRANCH  10  22
BRANCH   3  26
HETATM   26  C1  UNK     1      16.957  11.481  34.834  1.00  0.00     0.317 C 
BRANCH  26  27
HETATM   27  N1  UNK     1      17.294  12.716  34.127  1.00  0.00     0.097 N 
HETATM   28  C2  UNK     1      18.601  12.598  33.467  1.00  0.00     0.299 C 
HETATM   29  C5  UNK     1      18.937  13.901  32.747  1.00  0.00     0.198 C 
HETATM   30  O1  UNK     1      18.939  14.992  33.668  1.00  0.00    -0.388 OA
HETATM   31  C6  UNK     1      17.661  15.134  34.291  1.00  0.00     0.198 C 
HETATM   32  C3  UNK     1      17.296  13.860  35.048  1.00  0.00     0.299 C 
ENDBRANCH  26  27
ENDBRANCH   3  26
BRANCH   6  33
HETATM   33  O3  UNK     1      14.264  12.279  34.430  1.00  0.00    -0.360 OA
HETATM   34  H15 UNK     1      13.822  12.150  35.285  1.00  0.00     0.217 HD
ENDBRANCH   6  33
TORSDOF 7
ENDMDL
MODEL 2
REMARK VINA RESULT:      -8.3      2.156      3.691
REMARK  7 active torsions:
REMARK  status: ('A' for Active; 'I' for Inactive)
REMARK    1  A    between atoms: C9_19  and  O3_6 
REMARK    2  A    between atoms: C19_29  and  O5_8 
REMARK    3  A    between atoms: C21_31  and  O6_9 
REMARK    4  A    between atoms: C1_11  and  N1_10 
REMARK    5  A    between atoms: C1_11  and  C4_14 
REMARK    6  A    between atoms: C10_20  and  C15_25 
REMARK    7  A    between atoms: C13_23  and  C16_26 
ROOT
HETATM    1  O2  UNK     1      17.261   9.176  33.020  1.00  0.00    -0.303 OA
HETATM    2  O4  UNK     1      20.585   6.880  33.492  1.00  0.00    -0.286 OA
HETATM    3  C4  UNK     1      18.239  10.956  34.218  1.00  0.00     0.038 A 
HETATM    4  C7  UNK     1      18.341   9.663  33.705  1.00  0.00     0.101 A 
HETATM    5  C8  UNK     1      19.505   8.927  33.898  1.00  0.00     0.050 A 
HETATM    6  C9  UNK     1      19.306  11.509  34.926  1.00  0.00     0.076 A 
HETATM    7  C10 UNK     1      18.387   7.076  32.604  1.00  0.00     0.064 A 
HETATM    8  C11 UNK     1      19.584   7.569  33.346  1.00  0.00     0.198 A 
HETATM    9  C12 UNK     1      20.577   9.476  34.607  1.00  0.00     0.021 A 
HETATM   10  C13 UNK     1      17.319   7.895  32.488  1.00  0.00     0.174 A 
HETATM   11  C14 UNK     1      20.474  10.769  35.120  1.00  0.00     0.038 A 
ENDROOT
BRANCH   7  12
HETATM   12  C15 UNK     1      18.405   5.737  32.031  1.00  0.00    -0.016 A 
HETATM   13  C17 UNK     1      17.995   4.648  32.798  1.00  0.00     0.052 A 
HETATM   14  C19 UNK     1      18.010   3.366  32.247  1.00  0.00     0.102 A 
HETATM   15  C21 UNK     1      18.436   3.175  30.933  1.00  0.00     0.101 A 
HETATM   16  C20 UNK     1      18.845   4.268  30.168  1.00  0.00     0.040 A 
HETATM   17  C18 UNK     1      18.830   5.549  30.717  1.00  0.00     0.015 A 
BRANCH  14  18
HETATM   18  O5  UNK     1      17.610   2.306  33.005  1.00  0.00    -0.353 OA
HETATM   19  C22 UNK     1      18.248   2.136  34.270  1.00  0.00     0.210 C 
ENDBRANCH  14  18
BRANCH  15  20
HETATM   20  O6  UNK     1      18.457   1.928  30.386  1.00  0.00    -0.353 OA
HETATM   21  C23 UNK     1      18.250   1.834  28.978  1.00  0.00     0.210 C 
ENDBRANCH  15  20
ENDBRANCH   7  12
BRANCH  10  22
HETATM   22  C16 UNK     1      16.045   7.540  31.772  1.00  0.00     0.440 C 
HETATM   23  F1  UNK     1      15.092   8.461  32.010  1.00  0.00    -0.164 F 
HETATM   24  F2  UNK     1      16.245   7.480  30.441  1.00  0.00    -0.164 F 
HETATM   25  F3  UNK     1      15.582   6.343  32.179  1.00  0.00    -0.164 F 
ENDBRANCH  10  22
BRANCH   3  26
HETATM   26  C1  UNK     1      16.992  11.756  34.014  1.00  0.00     0.317 C 
BRANCH  26  27
HETATM   27  N1  UNK     1      16.136  11.758  35.199  1.00  0.00     0.097 N 
HETATM   28  C2  UNK     1      14.933  10.946  34.975  1.00  0.00     0.299 C 
HETATM   29  C5  UNK     1      14.050  10.973  36.219  1.00  0.00     0.198 C 
HETATM   30  O1  UNK     1      13.692  12.316  36.546  1.00  0.00    -0.388 OA
HETATM   31  C6  UNK     1      14.855  13.105  36.797  1.00  0.00     0.198 C 
HETATM   32  C3  UNK     1      15.756  13.129  35.566  1.00  0.00     0.299 C 
ENDBRANCH  26  27
ENDBRANCH   3  26
BRANCH   6  33
HETATM   33  O3  UNK     1      19.228  12.771  35.435  1.00  0.00    -0.360 OA
HETATM   34  H15 UNK     1      18.328  12.965  35.742  1.00  0.00     0.217 HD
ENDBRANCH   6  33
TORSDOF 7
ENDMDL
MODEL 3
REMARK VINA RESULT:      -8.2      6.021     10.426
REMARK  7 active torsions:
REMARK  status: ('A' for Active; 'I' for Inactive)
REMARK    1  A    between atoms: C9_19  and  O3_6 
REMARK    2  A    between atoms: C19_29  and  O5_8 
REMARK    3  A    between atoms: C21_31  and  O6_9 
REMARK    4  A    between atoms: C1_11  and  N1_10 
REMARK    5  A    between atoms: C1_11  and  C4_14 
REMARK    6  A    between atoms: C10_20  and  C15_25 
REMARK    7  A    between atoms: C13_23  and  C16_26 
ROOT
HETATM    1  O2  UNK     1      18.673  -0.117  33.055  1.00  0.00    -0.303 OA
HETATM    2  O4  UNK     1      21.283  -3.207  32.621  1.00  0.00    -0.286 OA
HETATM    3  C4  UNK     1      19.004   0.563  30.821  1.00  0.00     0.038 A 
HETATM    4  C7  UNK     1      19.301  -0.323  31.857  1.00  0.00     0.101 A 
HETATM    5  C8  UNK     1      20.202  -1.362  31.647  1.00  0.00     0.050 A 
HETATM    6  C9  UNK     1      19.612   0.406  29.576  1.00  0.00     0.076 A 
HETATM    7  C10 UNK     1      19.789  -2.022  34.043  1.00  0.00     0.064 A 
HETATM    8  C11 UNK     1      20.496  -2.280  32.755  1.00  0.00     0.198 A 
HETATM    9  C12 UNK     1      20.814  -1.523  30.401  1.00  0.00     0.021 A 
HETATM   10  C13 UNK     1      18.937  -0.977  34.114  1.00  0.00     0.174 A 
HETATM   11  C14 UNK     1      20.516  -0.637  29.366  1.00  0.00     0.038 A 
ENDROOT
BRANCH   7  12
HETATM   12  C15 UNK     1      20.036  -2.899  35.180  1.00  0.00    -0.016 A 
HETATM   13  C17 UNK     1      19.564  -4.212  35.160  1.00  0.00     0.052 A 
HETATM   14  C19 UNK     1      19.803  -5.051  36.249  1.00  0.00     0.102 A 
HETATM   15  C21 UNK     1      20.512  -4.579  37.353  1.00  0.00     0.101 A 
HETATM   16  C20 UNK     1      20.983  -3.266  37.369  1.00  0.00     0.040 A 
HETATM   17  C18 UNK     1      20.745  -2.426  36.282  1.00  0.00     0.015 A 
BRANCH  14  18
HETATM   18  O5  UNK     1      19.336  -6.331  36.222  1.00  0.00    -0.353 OA
HETATM   19  C22 UNK     1      19.545  -7.072  35.022  1.00  0.00     0.210 C 
ENDBRANCH  14  18
BRANCH  15  20
HETATM   20  O6  UNK     1      20.749  -5.389  38.422  1.00  0.00    -0.353 OA
HETATM   21  C23 UNK     1      22.011  -6.052  38.465  1.00  0.00     0.210 C 
ENDBRANCH  15  20
ENDBRANCH   7  12
BRANCH  10  22
HETATM   22  C16 UNK     1      18.155  -0.592  35.339  1.00  0.00     0.440 C 
HETATM   23  F1  UNK     1      18.961  -0.043  36.267  1.00  0.00    -0.164 F 
HETATM   24  F2  UNK     1      17.198   0.305  35.033  1.00  0.00    -0.164 F 
HETATM   25  F3  UNK     1      17.558  -1.669  35.885  1.00  0.00    -0.164 F 
ENDBRANCH  10  22
BRANCH   3  26
HETATM   26  C1  UNK     1      18.036   1.682  31.037  1.00  0.00     0.317 C 
BRANCH  26  27
HETATM   27  N1  UNK     1      18.690   2.893  31.531  1.00  0.00     0.097 N 
HETATM   28  C2  UNK     1      18.006   3.404  32.726  1.00  0.00     0.299 C 
HETATM   29  C5  UNK     1      18.699   4.673  33.216  1.00  0.00     0.198 C 
HETATM   30  O1  UNK     1      18.712   5.662  32.186  1.00  0.00    -0.388 OA
HETATM   31  C6  UNK     1      19.403   5.184  31.031  1.00  0.00     0.198 C 
HETATM   32  C3  UNK     1      18.727   3.928  30.490  1.00  0.00     0.299 C 
ENDBRANCH  26  27
ENDBRANCH   3  26
BRANCH   6  33
HETATM   33  O3  UNK     1      19.335   1.259  28.550  1.00  0.00    -0.360 OA
HETATM   34  H15 UNK     1      20.145   1.499  28.072  1.00  0.00     0.217 HD
ENDBRANCH   6  33
TORSDOF 7
ENDMDL
MODEL 4
REMARK VINA RESULT:      -7.9      3.661      9.638
REMARK  7 active torsions:
REMARK  status: ('A' for Active; 'I' for Inactive)
REMARK    1  A    between atoms: C9_19  and  O3_6 
REMARK    2  A    between atoms: C19_29  and  O5_8 
REMARK    3  A    between atoms: C21_31  and  O6_9 
REMARK    4  A    between atoms: C1_11  and  N1_10 
REMARK    5  A    between atoms: C1_11  and  C4_14 
REMARK    6  A    between atoms: C10_20  and  C15_25 
REMARK    7  A    between atoms: C13_23  and  C16_26 
ROOT
HETATM    1  O2  UNK     1      18.773   1.324  32.845  1.00  0.00    -0.303 OA
HETATM    2  O4  UNK     1      18.811   3.865  29.668  1.00  0.00    -0.286 OA
HETATM    3  C4  UNK     1      19.282  -0.517  31.462  1.00  0.00     0.038 A 
HETATM    4  C7  UNK     1      19.036   0.850  31.588  1.00  0.00     0.101 A 
HETATM    5  C8  UNK     1      19.063   1.668  30.464  1.00  0.00     0.050 A 
HETATM    6  C9  UNK     1      19.556  -1.062  30.207  1.00  0.00     0.076 A 
HETATM    7  C10 UNK     1      18.522   3.581  32.012  1.00  0.00     0.064 A 
HETATM    8  C11 UNK     1      18.801   3.104  30.627  1.00  0.00     0.198 A 
HETATM    9  C12 UNK     1      19.337   1.128  29.205  1.00  0.00     0.021 A 
HETATM   10  C13 UNK     1      18.525   2.680  33.018  1.00  0.00     0.174 A 
HETATM   11  C14 UNK     1      19.583  -0.239  29.080  1.00  0.00     0.038 A 
ENDROOT
BRANCH   7  12
HETATM   12  C15 UNK     1      18.255   4.995  32.239  1.00  0.00    -0.016 A 
HETATM   13  C17 UNK     1      16.956   5.487  32.115  1.00  0.00     0.052 A 
HETATM   14  C19 UNK     1      16.701   6.841  32.334  1.00  0.00     0.102 A 
HETATM   15  C21 UNK     1      17.745   7.701  32.676  1.00  0.00     0.101 A 
HETATM   16  C20 UNK     1      19.043   7.206  32.800  1.00  0.00     0.040 A 
HETATM   17  C18 UNK     1      19.299   5.853  32.581  1.00  0.00     0.015 A 
BRANCH  14  18
HETATM   18  O5  UNK     1      15.429   7.312  32.208  1.00  0.00    -0.353 OA
HETATM   19  C22 UNK     1      14.634   7.356  33.392  1.00  0.00     0.210 C 
ENDBRANCH  14  18
BRANCH  15  20
HETATM   20  O6  UNK     1      17.508   9.025  32.891  1.00  0.00    -0.353 OA
HETATM   21  C23 UNK     1      18.282   9.666  33.902  1.00  0.00     0.210 C 
ENDBRANCH  15  20
ENDBRANCH   7  12
BRANCH  10  22
HETATM   22  C16 UNK     1      18.262   3.008  34.461  1.00  0.00     0.440 C 
HETATM   23  F1  UNK     1      17.302   2.210  34.965  1.00  0.00    -0.164 F 
HETATM   24  F2  UNK     1      19.375   2.840  35.200  1.00  0.00    -0.164 F 
HETATM   25  F3  UNK     1      17.859   4.286  34.598  1.00  0.00    -0.164 F 
ENDBRANCH  10  22
BRANCH   3  26
HETATM   26  C1  UNK     1      19.255  -1.406  32.665  1.00  0.00     0.317 C 
BRANCH  26  27
HETATM   27  N1  UNK     1      18.478  -0.830  33.761  1.00  0.00     0.097 N 
HETATM   28  C2  UNK     1      19.085  -1.157  35.058  1.00  0.00     0.299 C 
HETATM   29  C5  UNK     1      18.251  -0.556  36.186  1.00  0.00     0.198 C 
HETATM   30  O1  UNK     1      16.909  -1.041  36.126  1.00  0.00    -0.388 OA
HETATM   31  C6  UNK     1      16.301  -0.699  34.879  1.00  0.00     0.198 C 
HETATM   32  C3  UNK     1      17.088  -1.304  33.721  1.00  0.00     0.299 C 
ENDBRANCH  26  27
ENDBRANCH   3  26
BRANCH   6  33
HETATM   33  O3  UNK     1      19.801  -2.394  30.062  1.00  0.00    -0.360 OA
HETATM   34  H15 UNK     1      19.915  -2.821  30.926  1.00  0.00     0.217 HD
ENDBRANCH   6  33
TORSDOF 7
ENDMDL
MODEL 5
REMARK VINA RESULT:      -7.8     19.236     21.693
REMARK  7 active torsions:
REMARK  status: ('A' for Active; 'I' for Inactive)
REMARK    1  A    between atoms: C9_19  and  O3_6 
REMARK    2  A    between atoms: C19_29  and  O5_8 
REMARK    3  A    between atoms: C21_31  and  O6_9 
REMARK    4  A    between atoms: C1_11  and  N1_10 
REMARK    5  A    between atoms: C1_11  and  C4_14 
REMARK    6  A    between atoms: C10_20  and  C15_25 
REMARK    7  A    between atoms: C13_23  and  C16_26 
ROOT
HETATM    1  O2  UNK     1      30.877  -7.692  36.443  1.00  0.00    -0.303 OA
HETATM    2  O4  UNK     1      32.642  -4.467  34.702  1.00  0.00    -0.286 OA
HETATM    3  C4  UNK     1      29.802  -6.326  38.036  1.00  0.00     0.038 A 
HETATM    4  C7  UNK     1      30.650  -6.435  36.934  1.00  0.00     0.101 A 
HETATM    5  C8  UNK     1      31.223  -5.295  36.382  1.00  0.00     0.050 A 
HETATM    6  C9  UNK     1      29.530  -5.073  38.584  1.00  0.00     0.076 A 
HETATM    7  C10 UNK     1      32.331  -6.825  34.715  1.00  0.00     0.064 A 
HETATM    8  C11 UNK     1      32.111  -5.440  35.222  1.00  0.00     0.198 A 
HETATM    9  C12 UNK     1      30.955  -4.037  36.927  1.00  0.00     0.021 A 
HETATM   10  C13 UNK     1      31.712  -7.848  35.344  1.00  0.00     0.174 A 
HETATM   11  C14 UNK     1      30.107  -3.929  38.029  1.00  0.00     0.038 A 
ENDROOT
BRANCH   7  12
HETATM   12  C15 UNK     1      33.201  -7.034  33.565  1.00  0.00    -0.016 A 
HETATM   13  C17 UNK     1      34.584  -7.067  33.737  1.00  0.00     0.052 A 
HETATM   14  C19 UNK     1      35.416  -7.269  32.635  1.00  0.00     0.102 A 
HETATM   15  C21 UNK     1      34.865  -7.437  31.365  1.00  0.00     0.101 A 
HETATM   16  C20 UNK     1      33.480  -7.405  31.197  1.00  0.00     0.040 A 
HETATM   17  C18 UNK     1      32.648  -7.204  32.297  1.00  0.00     0.015 A 
BRANCH  14  18
HETATM   18  O5  UNK     1      36.767  -7.296  32.812  1.00  0.00    -0.353 OA
HETATM   19  C22 UNK     1      37.243  -7.397  34.153  1.00  0.00     0.210 C 
ENDBRANCH  14  18
BRANCH  15  20
HETATM   20  O6  UNK     1      35.667  -7.634  30.283  1.00  0.00    -0.353 OA
HETATM   21  C23 UNK     1      35.082  -7.437  28.998  1.00  0.00     0.210 C 
ENDBRANCH  15  20
ENDBRANCH   7  12
BRANCH  10  22
HETATM   22  C16 UNK     1      31.836  -9.294  34.951  1.00  0.00     0.440 C 
HETATM   23  F1  UNK     1      31.239 -10.089  35.859  1.00  0.00    -0.164 F 
HETATM   24  F2  UNK     1      31.256  -9.516  33.756  1.00  0.00    -0.164 F 
HETATM   25  F3  UNK     1      33.130  -9.658  34.861  1.00  0.00    -0.164 F 
ENDBRANCH  10  22
BRANCH   3  26
HETATM   26  C1  UNK     1      29.179  -7.547  38.637  1.00  0.00     0.317 C 
BRANCH  26  27
HETATM   27  N1  UNK     1      27.949  -7.936  37.950  1.00  0.00     0.097 N 
HETATM   28  C2  UNK     1      26.830  -8.026  38.898  1.00  0.00     0.299 C 
HETATM   29  C5  UNK     1      25.560  -8.444  38.162  1.00  0.00     0.198 C 
HETATM   30  O1  UNK     1      25.757  -9.694  37.500  1.00  0.00    -0.388 OA
HETATM   31  C6  UNK     1      26.823  -9.606  36.554  1.00  0.00     0.198 C 
HETATM   32  C3  UNK     1      28.122  -9.217  37.252  1.00  0.00     0.299 C 
ENDBRANCH  26  27
ENDBRANCH   3  26
BRANCH   6  33
HETATM   33  O3  UNK     1      28.704  -4.943  39.660  1.00  0.00    -0.360 OA
HETATM   34  H15 UNK     1      29.204  -5.004  40.489  1.00  0.00     0.217 HD
ENDBRANCH   6  33
TORSDOF 7
ENDMDL
MODEL 6
REMARK VINA RESULT:      -7.8     23.056     25.188
REMARK  7 active torsions:
REMARK  status: ('A' for Active; 'I' for Inactive)
REMARK    1  A    between atoms: C9_19  and  O3_6 
REMARK    2  A    between atoms: C19_29  and  O5_8 
REMARK    3  A    between atoms: C21_31  and  O6_9 
REMARK    4  A    between atoms: C1_11  and  N1_10 
REMARK    5  A    between atoms: C1_11  and  C4_14 
REMARK    6  A    between atoms: C10_20  and  C15_25 
REMARK    7  A    between atoms: C13_23  and  C16_26 
ROOT
HETATM    1  O2  UNK     1      14.173   9.200   9.502  1.00  0.00    -0.303 OA
HETATM    2  O4  UNK     1      18.018   7.940   9.928  1.00  0.00    -0.286 OA
HETATM    3  C4  UNK     1      13.360   6.995   9.698  1.00  0.00     0.038 A 
HETATM    4  C7  UNK     1      14.446   7.870   9.676  1.00  0.00     0.101 A 
HETATM    5  C8  UNK     1      15.738   7.379   9.828  1.00  0.00     0.050 A 
HETATM    6  C9  UNK     1      13.572   5.627   9.872  1.00  0.00     0.076 A 
HETATM    7  C10 UNK     1      16.523   9.764   9.613  1.00  0.00     0.064 A 
HETATM    8  C11 UNK     1      16.862   8.324   9.802  1.00  0.00     0.198 A 
HETATM    9  C12 UNK     1      15.956   6.010  10.002  1.00  0.00     0.021 A 
HETATM   10  C13 UNK     1      15.223  10.108   9.477  1.00  0.00     0.174 A 
HETATM   11  C14 UNK     1      14.870   5.136  10.024  1.00  0.00     0.038 A 
ENDROOT
BRANCH   7  12
HETATM   12  C15 UNK     1      17.594  10.750   9.580  1.00  0.00    -0.016 A 
HETATM   13  C17 UNK     1      18.187  11.092   8.365  1.00  0.00     0.052 A 
HETATM   14  C19 UNK     1      19.212  12.038   8.334  1.00  0.00     0.102 A 
HETATM   15  C21 UNK     1      19.642  12.640   9.516  1.00  0.00     0.101 A 
HETATM   16  C20 UNK     1      19.046  12.297  10.730  1.00  0.00     0.040 A 
HETATM   17  C18 UNK     1      18.022  11.352  10.762  1.00  0.00     0.015 A 
BRANCH  14  18
HETATM   18  O5  UNK     1      19.787  12.364   7.142  1.00  0.00    -0.353 OA
HETATM   19  C22 UNK     1      18.912  12.554   6.031  1.00  0.00     0.210 C 
ENDBRANCH  14  18
BRANCH  15  20
HETATM   20  O6  UNK     1      20.642  13.564   9.498  1.00  0.00    -0.353 OA
HETATM   21  C23 UNK     1      21.944  13.118   9.867  1.00  0.00     0.210 C 
ENDBRANCH  15  20
ENDBRANCH   7  12
BRANCH  10  22
HETATM   22  C16 UNK     1      14.727  11.514   9.280  1.00  0.00     0.440 C 
HETATM   23  F1  UNK     1      15.035  11.960   8.048  1.00  0.00    -0.164 F 
HETATM   24  F2  UNK     1      13.389  11.573   9.424  1.00  0.00    -0.164 F 
HETATM   25  F3  UNK     1      15.281  12.349  10.179  1.00  0.00    -0.164 F 
ENDBRANCH  10  22
BRANCH   3  26
HETATM   26  C1  UNK     1      11.966   7.513   9.536  1.00  0.00     0.317 C 
BRANCH  26  27
HETATM   27  N1  UNK     1      11.231   6.807   8.489  1.00  0.00     0.097 N 
HETATM   28  C2  UNK     1      11.634   7.281   7.158  1.00  0.00     0.299 C 
HETATM   29  C5  UNK     1      10.846   6.538   6.083  1.00  0.00     0.198 C 
HETATM   30  O1  UNK     1       9.443   6.725   6.276  1.00  0.00    -0.388 OA
HETATM   31  C6  UNK     1       9.037   6.238   7.556  1.00  0.00     0.198 C 
HETATM   32  C3  UNK     1       9.782   6.974   8.665  1.00  0.00     0.299 C 
ENDBRANCH  26  27
ENDBRANCH   3  26
BRANCH   6  33
HETATM   33  O3  UNK     1      12.525   4.755   9.897  1.00  0.00    -0.360 OA
HETATM   34  H15 UNK     1      12.712   4.008  10.488  1.00  0.00     0.217 HD
ENDBRANCH   6  33
TORSDOF 7
ENDMDL
MODEL 7
REMARK VINA RESULT:      -7.6      1.397      2.155
REMARK  7 active torsions:
REMARK  status: ('A' for Active; 'I' for Inactive)
REMARK    1  A    between atoms: C9_19  and  O3_6 
REMARK    2  A    between atoms: C19_29  and  O5_8 
REMARK    3  A    between atoms: C21_31  and  O6_9 
REMARK    4  A    between atoms: C1_11  and  N1_10 
REMARK    5  A    between atoms: C1_11  and  C4_14 
REMARK    6  A    between atoms: C10_20  and  C15_25 
REMARK    7  A    between atoms: C13_23  and  C16_26 
ROOT
HETATM    1  O2  UNK     1      17.151  10.299  34.374  1.00  0.00    -0.303 OA
HETATM    2  O4  UNK     1      14.759   7.814  32.217  1.00  0.00    -0.286 OA
HETATM    3  C4  UNK     1      15.414  11.877  34.605  1.00  0.00     0.038 A 
HETATM    4  C7  UNK     1      15.855  10.651  34.108  1.00  0.00     0.101 A 
HETATM    5  C8  UNK     1      14.990   9.844  33.378  1.00  0.00     0.050 A 
HETATM    6  C9  UNK     1      14.104  12.293  34.368  1.00  0.00     0.076 A 
HETATM    7  C10 UNK     1      16.897   8.210  33.181  1.00  0.00     0.064 A 
HETATM    8  C11 UNK     1      15.482   8.557  32.868  1.00  0.00     0.198 A 
HETATM    9  C12 UNK     1      13.676  10.256  33.137  1.00  0.00     0.021 A 
HETATM   10  C13 UNK     1      17.632   9.085  33.902  1.00  0.00     0.174 A 
HETATM   11  C14 UNK     1      13.236  11.482  33.634  1.00  0.00     0.038 A 
ENDROOT
BRANCH   7  12
HETATM   12  C15 UNK     1      17.444   6.946  32.705  1.00  0.00    -0.016 A 
HETATM   13  C17 UNK     1      18.002   6.867  31.429  1.00  0.00     0.052 A 
HETATM   14  C19 UNK     1      18.526   5.657  30.974  1.00  0.00     0.102 A 
HETATM   15  C21 UNK     1      18.491   4.529  31.794  1.00  0.00     0.101 A 
HETATM   16  C20 UNK     1      17.933   4.611  33.069  1.00  0.00     0.040 A 
HETATM   17  C18 UNK     1      17.409   5.820  33.525  1.00  0.00     0.015 A 
BRANCH  14  18
HETATM   18  O5  UNK     1      19.068   5.589  29.726  1.00  0.00    -0.353 OA
HETATM   19  C22 UNK     1      20.432   5.981  29.589  1.00  0.00     0.210 C 
ENDBRANCH  14  18
BRANCH  15  20
HETATM   20  O6  UNK     1      18.999   3.342  31.360  1.00  0.00    -0.353 OA
HETATM   21  C23 UNK     1      18.123   2.493  30.622  1.00  0.00     0.210 C 
ENDBRANCH  15  20
ENDBRANCH   7  12
BRANCH  10  22
HETATM   22  C16 UNK     1      19.068   8.875  34.295  1.00  0.00     0.440 C 
HETATM   23  F1  UNK     1      19.157   8.051  35.356  1.00  0.00    -0.164 F 
HETATM   24  F2  UNK     1      19.766   8.326  33.282  1.00  0.00    -0.164 F 
HETATM   25  F3  UNK     1      19.653  10.043  34.621  1.00  0.00    -0.164 F 
ENDBRANCH  10  22
BRANCH   3  26
HETATM   26  C1  UNK     1      16.338  12.752  35.393  1.00  0.00     0.317 C 
BRANCH  26  27
HETATM   27  N1  UNK     1      16.900  13.833  34.585  1.00  0.00     0.097 N 
HETATM   28  C2  UNK     1      18.350  13.665  34.427  1.00  0.00     0.299 C 
HETATM   29  C5  UNK     1      18.916  14.809  33.591  1.00  0.00     0.198 C 
HETATM   30  O1  UNK     1      18.622  16.066  34.204  1.00  0.00    -0.388 OA
HETATM   31  C6  UNK     1      17.212  16.251  34.332  1.00  0.00     0.198 C 
HETATM   32  C3  UNK     1      16.606  15.140  35.186  1.00  0.00     0.299 C 
ENDBRANCH  26  27
ENDBRANCH   3  26
BRANCH   6  33
HETATM   33  O3  UNK     1      13.652  13.487  34.844  1.00  0.00    -0.360 OA
HETATM   34  H15 UNK     1      13.724  13.522  35.812  1.00  0.00     0.217 HD
ENDBRANCH   6  33
TORSDOF 7
ENDMDL
MODEL 8
REMARK VINA RESULT:      -7.6     22.603     25.019
REMARK  7 active torsions:
REMARK  status: ('A' for Active; 'I' for Inactive)
REMARK    1  A    between atoms: C9_19  and  O3_6 
REMARK    2  A    between atoms: C19_29  and  O5_8 
REMARK    3  A    between atoms: C21_31  and  O6_9 
REMARK    4  A    between atoms: C1_11  and  N1_10 
REMARK    5  A    between atoms: C1_11  and  C4_14 
REMARK    6  A    between atoms: C10_20  and  C15_25 
REMARK    7  A    between atoms: C13_23  and  C16_26 
ROOT
HETATM    1  O2  UNK     1      14.292   9.304   9.272  1.00  0.00    -0.303 OA
HETATM    2  O4  UNK     1      18.036   7.874   9.971  1.00  0.00    -0.286 OA
HETATM    3  C4  UNK     1      13.345   7.169   9.600  1.00  0.00     0.038 A 
HETATM    4  C7  UNK     1      14.480   7.979   9.561  1.00  0.00     0.101 A 
HETATM    5  C8  UNK     1      15.734   7.432   9.810  1.00  0.00     0.050 A 
HETATM    6  C9  UNK     1      13.470   5.810   9.889  1.00  0.00     0.076 A 
HETATM    7  C10 UNK     1      16.664   9.745   9.448  1.00  0.00     0.064 A 
HETATM    8  C11 UNK     1      16.911   8.309   9.763  1.00  0.00     0.198 A 
HETATM    9  C12 UNK     1      15.865   6.071  10.099  1.00  0.00     0.021 A 
HETATM   10  C13 UNK     1      15.394  10.148   9.226  1.00  0.00     0.174 A 
HETATM   11  C14 UNK     1      14.730   5.262  10.138  1.00  0.00     0.038 A 
ENDROOT
BRANCH   7  12
HETATM   12  C15 UNK     1      17.792  10.666   9.388  1.00  0.00    -0.016 A 
HETATM   13  C17 UNK     1      18.298  11.221  10.563  1.00  0.00     0.052 A 
HETATM   14  C19 UNK     1      19.379  12.102  10.505  1.00  0.00     0.102 A 
HETATM   15  C21 UNK     1      19.950  12.427   9.275  1.00  0.00     0.101 A 
HETATM   16  C20 UNK     1      19.441  11.870   8.102  1.00  0.00     0.040 A 
HETATM   17  C18 UNK     1      18.361  10.989   8.158  1.00  0.00     0.015 A 
BRANCH  14  18
HETATM   18  O5  UNK     1      19.866  12.641  11.659  1.00  0.00    -0.353 OA
HETATM   19  C22 UNK     1      18.939  13.336  12.491  1.00  0.00     0.210 C 
ENDBRANCH  14  18
BRANCH  15  20
HETATM   20  O6  UNK     1      21.004  13.287   9.207  1.00  0.00    -0.353 OA
HETATM   21  C23 UNK     1      21.635  13.440   7.938  1.00  0.00     0.210 C 
ENDBRANCH  15  20
ENDBRANCH   7  12
BRANCH  10  22
HETATM   22  C16 UNK     1      14.989  11.559   8.899  1.00  0.00     0.440 C 
HETATM   23  F1  UNK     1      15.181  11.819   7.592  1.00  0.00    -0.164 F 
HETATM   24  F2  UNK     1      13.687  11.759   9.178  1.00  0.00    -0.164 F 
HETATM   25  F3  UNK     1      15.710  12.444   9.613  1.00  0.00    -0.164 F 
ENDBRANCH  10  22
BRANCH   3  26
HETATM   26  C1  UNK     1      11.992   7.748   9.335  1.00  0.00     0.317 C 
BRANCH  26  27
HETATM   27  N1  UNK     1      11.215   6.935   8.401  1.00  0.00     0.097 N 
HETATM   28  C2  UNK     1      11.543   7.280   7.012  1.00  0.00     0.299 C 
HETATM   29  C5  UNK     1      10.713   6.428   6.057  1.00  0.00     0.198 C 
HETATM   30  O1  UNK     1       9.319   6.619   6.303  1.00  0.00    -0.388 OA
HETATM   31  C6  UNK     1       8.985   6.255   7.643  1.00  0.00     0.198 C 
HETATM   32  C3  UNK     1       9.774   7.104   8.635  1.00  0.00     0.299 C 
ENDBRANCH  26  27
ENDBRANCH   3  26
BRANCH   6  33
HETATM   33  O3  UNK     1      12.375   5.001   9.933  1.00  0.00    -0.360 OA
HETATM   34  H15 UNK     1      11.994   4.983  10.825  1.00  0.00     0.217 HD
ENDBRANCH   6  33
TORSDOF 7
ENDMDL
MODEL 9
REMARK VINA RESULT:      -7.6     14.785     19.408
REMARK  7 active torsions:
REMARK  status: ('A' for Active; 'I' for Inactive)
REMARK    1  A    between atoms: C9_19  and  O3_6 
REMARK    2  A    between atoms: C19_29  and  O5_8 
REMARK    3  A    between atoms: C21_31  and  O6_9 
REMARK    4  A    between atoms: C1_11  and  N1_10 
REMARK    5  A    between atoms: C1_11  and  C4_14 
REMARK    6  A    between atoms: C10_20  and  C15_25 
REMARK    7  A    between atoms: C13_23  and  C16_26 
ROOT
HETATM    1  O2  UNK     1      24.215  -8.182  37.910  1.00  0.00    -0.303 OA
HETATM    2  O4  UNK     1      26.298 -11.017  35.868  1.00  0.00    -0.286 OA
HETATM    3  C4  UNK     1      22.157  -9.158  37.297  1.00  0.00     0.038 A 
HETATM    4  C7  UNK     1      23.551  -9.175  37.241  1.00  0.00     0.101 A 
HETATM    5  C8  UNK     1      24.207 -10.171  36.527  1.00  0.00     0.050 A 
HETATM    6  C9  UNK     1      21.423 -10.142  36.635  1.00  0.00     0.076 A 
HETATM    7  C10 UNK     1      26.360  -9.068  37.229  1.00  0.00     0.064 A 
HETATM    8  C11 UNK     1      25.675 -10.163  36.485  1.00  0.00     0.198 A 
HETATM    9  C12 UNK     1      23.476 -11.159  35.861  1.00  0.00     0.021 A 
HETATM   10  C13 UNK     1      25.603  -8.161  37.885  1.00  0.00     0.174 A 
HETATM   11  C14 UNK     1      22.083 -11.142  35.918  1.00  0.00     0.038 A 
ENDROOT
BRANCH   7  12
HETATM   12  C15 UNK     1      27.816  -9.007  37.228  1.00  0.00    -0.016 A 
HETATM   13  C17 UNK     1      28.484  -8.380  36.178  1.00  0.00     0.052 A 
HETATM   14  C19 UNK     1      29.878  -8.321  36.178  1.00  0.00     0.102 A 
HETATM   15  C21 UNK     1      30.601  -8.888  37.227  1.00  0.00     0.101 A 
HETATM   16  C20 UNK     1      29.929  -9.515  38.277  1.00  0.00     0.040 A 
HETATM   17  C18 UNK     1      28.536  -9.574  38.278  1.00  0.00     0.015 A 
BRANCH  14  18
HETATM   18  O5  UNK     1      30.523  -7.707  35.146  1.00  0.00    -0.353 OA
HETATM   19  C22 UNK     1      30.535  -6.281  35.145  1.00  0.00     0.210 C 
ENDBRANCH  14  18
BRANCH  15  20
HETATM   20  O6  UNK     1      31.962  -8.838  37.237  1.00  0.00    -0.353 OA
HETATM   21  C23 UNK     1      32.568  -7.862  38.082  1.00  0.00     0.210 C 
ENDBRANCH  15  20
ENDBRANCH   7  12
BRANCH  10  22
HETATM   22  C16 UNK     1      26.148  -7.004  38.676  1.00  0.00     0.440 C 
HETATM   23  F1  UNK     1      25.150  -6.222  39.126  1.00  0.00    -0.164 F 
HETATM   24  F2  UNK     1      26.849  -7.441  39.740  1.00  0.00    -0.164 F 
HETATM   25  F3  UNK     1      26.965  -6.247  37.919  1.00  0.00    -0.164 F 
ENDBRANCH  10  22
BRANCH   3  26
HETATM   26  C1  UNK     1      21.443  -8.091  38.064  1.00  0.00     0.317 C 
BRANCH  26  27
HETATM   27  N1  UNK     1      21.275  -6.867  37.283  1.00  0.00     0.097 N 
HETATM   28  C2  UNK     1      21.317  -5.684  38.153  1.00  0.00     0.299 C 
HETATM   29  C5  UNK     1      21.128  -4.420  37.319  1.00  0.00     0.198 C 
HETATM   30  O1  UNK     1      19.891  -4.474  36.608  1.00  0.00    -0.388 OA
HETATM   31  C6  UNK     1      19.854  -5.604  35.736  1.00  0.00     0.198 C 
HETATM   32  C3  UNK     1      20.012  -6.895  36.533  1.00  0.00     0.299 C 
ENDBRANCH  26  27
ENDBRANCH   3  26
BRANCH   6  33
HETATM   33  O3  UNK     1      20.061 -10.146  36.678  1.00  0.00    -0.360 OA
HETATM   34  H15 UNK     1      19.744 -10.156  37.595  1.00  0.00     0.217 HD
ENDBRANCH   6  33
TORSDOF 7
ENDMDL
MODEL 10
REMARK VINA RESULT:      -7.6     18.761     21.708
REMARK  7 active torsions:
REMARK  status: ('A' for Active; 'I' for Inactive)
REMARK    1  A    between atoms: C9_19  and  O3_6 
REMARK    2  A    between atoms: C19_29  and  O5_8 
REMARK    3  A    between atoms: C21_31  and  O6_9 
REMARK    4  A    between atoms: C1_11  and  N1_10 
REMARK    5  A    between atoms: C1_11  and  C4_14 
REMARK    6  A    between atoms: C10_20  and  C15_25 
REMARK    7  A    between atoms: C13_23  and  C16_26 
ROOT
HETATM    1  O2  UNK     1      31.361  -7.762  35.293  1.00  0.00    -0.303 OA
HETATM    2  O4  UNK     1      34.135  -6.830  32.467  1.00  0.00    -0.286 OA
HETATM    3  C4  UNK     1      32.633  -6.717  36.981  1.00  0.00     0.038 A 
HETATM    4  C7  UNK     1      32.491  -7.072  35.640  1.00  0.00     0.101 A 
HETATM    5  C8  UNK     1      33.473  -6.724  34.720  1.00  0.00     0.050 A 
HETATM    6  C9  UNK     1      33.763  -6.013  37.398  1.00  0.00     0.076 A 
HETATM    7  C10 UNK     1      32.051  -7.858  32.977  1.00  0.00     0.064 A 
HETATM    8  C11 UNK     1      33.296  -7.111  33.314  1.00  0.00     0.198 A 
HETATM    9  C12 UNK     1      34.608  -6.019  35.132  1.00  0.00     0.021 A 
HETATM   10  C13 UNK     1      31.175  -8.133  33.968  1.00  0.00     0.174 A 
HETATM   11  C14 UNK     1      34.749  -5.664  36.473  1.00  0.00     0.038 A 
ENDROOT
BRANCH   7  12
HETATM   12  C15 UNK     1      31.817  -8.268  31.599  1.00  0.00    -0.016 A 
HETATM   13  C17 UNK     1      32.386  -9.447  31.118  1.00  0.00     0.052 A 
HETATM   14  C19 UNK     1      32.159  -9.840  29.799  1.00  0.00     0.102 A 
HETATM   15  C21 UNK     1      31.366  -9.055  28.963  1.00  0.00     0.101 A 
HETATM   16  C20 UNK     1      30.798  -7.876  29.447  1.00  0.00     0.040 A 
HETATM   17  C18 UNK     1      31.023  -7.483  30.765  1.00  0.00     0.015 A 
BRANCH  14  18
HETATM   18  O5  UNK     1      32.721 -10.993  29.337  1.00  0.00    -0.353 OA
HETATM   19  C22 UNK     1      32.583 -12.153  30.154  1.00  0.00     0.210 C 
ENDBRANCH  14  18
BRANCH  15  20
HETATM   20  O6  UNK     1      31.139  -9.428  27.672  1.00  0.00    -0.353 OA
HETATM   21  C23 UNK     1      29.905 -10.083  27.394  1.00  0.00     0.210 C 
ENDBRANCH  15  20
ENDBRANCH   7  12
BRANCH  10  22
HETATM   22  C16 UNK     1      29.881  -8.877  33.783  1.00  0.00     0.440 C 
HETATM   23  F1  UNK     1      29.266  -9.065  34.966  1.00  0.00    -0.164 F 
HETATM   24  F2  UNK     1      29.045  -8.189  32.983  1.00  0.00    -0.164 F 
HETATM   25  F3  UNK     1      30.096 -10.083  33.225  1.00  0.00    -0.164 F 
ENDBRANCH  10  22
BRANCH   3  26
HETATM   26  C1  UNK     1      31.581  -7.086  37.978  1.00  0.00     0.317 C 
BRANCH  26  27
HETATM   27  N1  UNK     1      30.400  -6.230  37.879  1.00  0.00     0.097 N 
HETATM   28  C2  UNK     1      30.580  -5.001  38.664  1.00  0.00     0.299 C 
HETATM   29  C5  UNK     1      29.332  -4.130  38.556  1.00  0.00     0.198 C 
HETATM   30  O1  UNK     1      28.183  -4.848  39.008  1.00  0.00    -0.388 OA
HETATM   31  C6  UNK     1      27.982  -6.028  38.228  1.00  0.00     0.198 C 
HETATM   32  C3  UNK     1      29.198  -6.944  38.330  1.00  0.00     0.299 C 
ENDBRANCH  26  27
ENDBRANCH   3  26
BRANCH   6  33
HETATM   33  O3  UNK     1      33.922  -5.655  38.703  1.00  0.00    -0.360 OA
HETATM   34  H15 UNK     1      33.132  -5.200  39.035  1.00  0.00     0.217 HD
ENDBRANCH   6  33
TORSDOF 7
ENDMDL
