MODEL 1
REMARK VINA RESULT:      -7.3      0.000      0.000
REMARK  4 active torsions:
REMARK  status: ('A' for Active; 'I' for Inactive)
REMARK    1  A    between atoms: C15_19  and  O3_3 
REMARK    2  A    between atoms: C18_22  and  O4_4 
REMARK    3  A    between atoms: C1_5  and  C4_8 
REMARK    4  A    between atoms: C3_7  and  C6_10 
ROOT
HETATM    1  O1  UNK     1      31.960  -3.882  36.346  1.00  0.00    -0.274 OA
HETATM    2  O2  UNK     1      33.238  -4.042  34.472  1.00  0.00    -0.259 OA
HETATM    3  C1  UNK     1      30.733  -6.349  35.636  1.00  0.00     0.004 A 
HETATM    4  C2  UNK     1      30.340  -5.618  36.860  1.00  0.00     0.010 A 
HETATM    5  C3  UNK     1      31.699  -5.815  34.848  1.00  0.00     0.062 A 
HETATM    6  C5  UNK     1      30.962  -4.415  37.174  1.00  0.00     0.093 A 
HETATM    7  C7  UNK     1      32.364  -4.523  35.187  1.00  0.00     0.300 A 
HETATM    8  C8  UNK     1      29.352  -6.087  37.739  1.00  0.00     0.018 A 
HETATM    9  C9  UNK     1      30.635  -3.681  38.314  1.00  0.00     0.074 A 
HETATM   10  C14 UNK     1      29.011  -5.362  38.887  1.00  0.00     0.037 A 
HETATM   11  C15 UNK     1      29.652  -4.159  39.175  1.00  0.00     0.068 A 
ENDROOT
BRANCH   5  12
HETATM   12  C6  UNK     1      32.129  -6.494  33.624  1.00  0.00    -0.019 A 
HETATM   13  C12 UNK     1      31.371  -6.369  32.466  1.00  0.00     0.015 A 
HETATM   14  C16 UNK     1      31.781  -7.014  31.300  1.00  0.00     0.037 A 
HETATM   15  C18 UNK     1      32.946  -7.780  31.299  1.00  0.00     0.068 A 
HETATM   16  C17 UNK     1      33.702  -7.901  32.465  1.00  0.00     0.037 A 
HETATM   17  C13 UNK     1      33.292  -7.255  33.632  1.00  0.00     0.015 A 
BRANCH  15  18
HETATM   18  O4  UNK     1      33.347  -8.410  30.161  1.00  0.00    -0.356 OA
HETATM   19  C22 UNK     1      34.104  -7.642  29.226  1.00  0.00     0.210 C 
ENDBRANCH  15  18
ENDBRANCH   5  12
BRANCH   3  20
HETATM   20  C4  UNK     1      30.130  -7.624  35.228  1.00  0.00    -0.024 A 
HETATM   21  C10 UNK     1      30.747  -8.816  35.583  1.00  0.00     0.012 A 
HETATM   22  C19 UNK     1      30.174 -10.028  35.195  1.00  0.00     0.001 A 
HETATM   23  C21 UNK     1      28.990 -10.035  34.457  1.00  0.00     0.000 A 
HETATM   24  C20 UNK     1      28.380  -8.832  34.106  1.00  0.00     0.001 A 
HETATM   25  C11 UNK     1      28.952  -7.620  34.493  1.00  0.00     0.012 A 
ENDBRANCH   3  20
BRANCH  11  26
HETATM   26  O3  UNK     1      29.319  -3.458  40.291  1.00  0.00    -0.361 OA
HETATM   27  H13 UNK     1      29.337  -4.057  41.057  1.00  0.00     0.217 HD
ENDBRANCH  11  26
TORSDOF 4
ENDMDL
MODEL 2
REMARK VINA RESULT:      -7.3      2.437      4.397
REMARK  4 active torsions:
REMARK  status: ('A' for Active; 'I' for Inactive)
REMARK    1  A    between atoms: C15_19  and  O3_3 
REMARK    2  A    between atoms: C18_22  and  O4_4 
REMARK    3  A    between atoms: C1_5  and  C4_8 
REMARK    4  A    between atoms: C3_7  and  C6_10 
ROOT
HETATM    1  O1  UNK     1      28.305  -7.635  37.954  1.00  0.00    -0.274 OA
HETATM    2  O2  UNK     1      27.748  -9.586  36.928  1.00  0.00    -0.259 OA
HETATM    3  C1  UNK     1      30.383  -7.301  36.039  1.00  0.00     0.004 A 
HETATM    4  C2  UNK     1      30.154  -6.305  37.107  1.00  0.00     0.010 A 
HETATM    5  C3  UNK     1      29.576  -8.390  35.988  1.00  0.00     0.062 A 
HETATM    6  C5  UNK     1      29.129  -6.502  38.025  1.00  0.00     0.093 A 
HETATM    7  C7  UNK     1      28.477  -8.599  36.976  1.00  0.00     0.300 A 
HETATM    8  C8  UNK     1      30.934  -5.146  37.244  1.00  0.00     0.018 A 
HETATM    9  C9  UNK     1      28.863  -5.598  39.054  1.00  0.00     0.074 A 
HETATM   10  C14 UNK     1      30.681  -4.229  38.272  1.00  0.00     0.037 A 
HETATM   11  C15 UNK     1      29.646  -4.454  39.176  1.00  0.00     0.068 A 
ENDROOT
BRANCH   5  12
HETATM   12  C6  UNK     1      29.756  -9.410  34.953  1.00  0.00    -0.019 A 
HETATM   13  C12 UNK     1      30.712 -10.403  35.126  1.00  0.00     0.015 A 
HETATM   14  C16 UNK     1      30.883 -11.376  34.141  1.00  0.00     0.037 A 
HETATM   15  C18 UNK     1      30.097 -11.347  32.990  1.00  0.00     0.068 A 
HETATM   16  C17 UNK     1      29.139 -10.347  32.823  1.00  0.00     0.037 A 
HETATM   17  C13 UNK     1      28.968  -9.375  33.809  1.00  0.00     0.015 A 
BRANCH  15  18
HETATM   18  O4  UNK     1      30.263 -12.296  32.028  1.00  0.00    -0.356 OA
HETATM   19  C22 UNK     1      30.935 -13.497  32.409  1.00  0.00     0.210 C 
ENDBRANCH  15  18
ENDBRANCH   5  12
BRANCH   3  20
HETATM   20  C4  UNK     1      31.441  -7.173  35.030  1.00  0.00    -0.024 A 
HETATM   21  C10 UNK     1      31.137  -6.641  33.785  1.00  0.00     0.012 A 
HETATM   22  C19 UNK     1      32.142  -6.519  32.824  1.00  0.00     0.001 A 
HETATM   23  C21 UNK     1      33.442  -6.932  33.119  1.00  0.00     0.000 A 
HETATM   24  C20 UNK     1      33.736  -7.466  34.373  1.00  0.00     0.001 A 
HETATM   25  C11 UNK     1      32.731  -7.587  35.333  1.00  0.00     0.012 A 
ENDBRANCH   3  20
BRANCH  11  26
HETATM   26  O3  UNK     1      29.403  -3.562  40.172  1.00  0.00    -0.361 OA
HETATM   27  H13 UNK     1      30.068  -3.681  40.872  1.00  0.00     0.217 HD
ENDBRANCH  11  26
TORSDOF 4
ENDMDL
MODEL 3
REMARK VINA RESULT:      -7.3      2.897      4.750
REMARK  4 active torsions:
REMARK  status: ('A' for Active; 'I' for Inactive)
REMARK    1  A    between atoms: C15_19  and  O3_3 
REMARK    2  A    between atoms: C18_22  and  O4_4 
REMARK    3  A    between atoms: C1_5  and  C4_8 
REMARK    4  A    between atoms: C3_7  and  C6_10 
ROOT
HETATM    1  O1  UNK     1      27.789  -5.609  39.056  1.00  0.00    -0.274 OA
HETATM    2  O2  UNK     1      29.658  -4.315  39.085  1.00  0.00    -0.259 OA
HETATM    3  C1  UNK     1      29.175  -7.452  37.389  1.00  0.00     0.004 A 
HETATM    4  C2  UNK     1      27.777  -7.691  37.804  1.00  0.00     0.010 A 
HETATM    5  C3  UNK     1      29.793  -6.324  37.821  1.00  0.00     0.062 A 
HETATM    6  C5  UNK     1      27.132  -6.768  38.619  1.00  0.00     0.093 A 
HETATM    7  C7  UNK     1      29.097  -5.335  38.695  1.00  0.00     0.300 A 
HETATM    8  C8  UNK     1      27.052  -8.827  37.410  1.00  0.00     0.018 A 
HETATM    9  C9  UNK     1      25.814  -6.939  39.044  1.00  0.00     0.074 A 
HETATM   10  C14 UNK     1      25.728  -9.013  37.826  1.00  0.00     0.037 A 
HETATM   11  C15 UNK     1      25.109  -8.070  38.644  1.00  0.00     0.068 A 
ENDROOT
BRANCH   5  12
HETATM   12  C6  UNK     1      31.177  -6.034  37.442  1.00  0.00    -0.019 A 
HETATM   13  C12 UNK     1      32.219  -6.520  38.223  1.00  0.00     0.015 A 
HETATM   14  C16 UNK     1      33.538  -6.245  37.862  1.00  0.00     0.037 A 
HETATM   15  C18 UNK     1      33.805  -5.486  36.723  1.00  0.00     0.068 A 
HETATM   16  C17 UNK     1      32.754  -5.002  35.944  1.00  0.00     0.037 A 
HETATM   17  C13 UNK     1      31.435  -5.278  36.305  1.00  0.00     0.015 A 
BRANCH  15  18
HETATM   18  O4  UNK     1      35.092  -5.218  36.370  1.00  0.00    -0.356 OA
HETATM   19  C22 UNK     1      35.734  -6.148  35.499  1.00  0.00     0.210 C 
ENDBRANCH  15  18
ENDBRANCH   5  12
BRANCH   3  20
HETATM   20  C4  UNK     1      29.932  -8.372  36.531  1.00  0.00    -0.024 A 
HETATM   21  C10 UNK     1      30.665  -9.399  37.110  1.00  0.00     0.012 A 
HETATM   22  C19 UNK     1      31.384 -10.274  36.295  1.00  0.00     0.001 A 
HETATM   23  C21 UNK     1      31.363 -10.113  34.909  1.00  0.00     0.000 A 
HETATM   24  C20 UNK     1      30.623  -9.077  34.338  1.00  0.00     0.001 A 
HETATM   25  C11 UNK     1      29.904  -8.202  35.153  1.00  0.00     0.012 A 
ENDBRANCH   3  20
BRANCH  11  26
HETATM   26  O3  UNK     1      23.824  -8.254  39.047  1.00  0.00    -0.361 OA
HETATM   27  H13 UNK     1      23.251  -8.299  38.262  1.00  0.00     0.217 HD
ENDBRANCH  11  26
TORSDOF 4
ENDMDL
MODEL 4
REMARK VINA RESULT:      -7.3      2.891      4.746
REMARK  4 active torsions:
REMARK  status: ('A' for Active; 'I' for Inactive)
REMARK    1  A    between atoms: C15_19  and  O3_3 
REMARK    2  A    between atoms: C18_22  and  O4_4 
REMARK    3  A    between atoms: C1_5  and  C4_8 
REMARK    4  A    between atoms: C3_7  and  C6_10 
ROOT
HETATM    1  O1  UNK     1      27.802  -5.608  39.051  1.00  0.00    -0.274 OA
HETATM    2  O2  UNK     1      29.672  -4.316  39.084  1.00  0.00    -0.259 OA
HETATM    3  C1  UNK     1      29.185  -7.447  37.377  1.00  0.00     0.004 A 
HETATM    4  C2  UNK     1      27.787  -7.687  37.792  1.00  0.00     0.010 A 
HETATM    5  C3  UNK     1      29.804  -6.321  37.813  1.00  0.00     0.062 A 
HETATM    6  C5  UNK     1      27.143  -6.765  38.611  1.00  0.00     0.093 A 
HETATM    7  C7  UNK     1      29.110  -5.334  38.691  1.00  0.00     0.300 A 
HETATM    8  C8  UNK     1      27.061  -8.820  37.395  1.00  0.00     0.018 A 
HETATM    9  C9  UNK     1      25.825  -6.937  39.037  1.00  0.00     0.074 A 
HETATM   10  C14 UNK     1      25.737  -9.007  37.812  1.00  0.00     0.037 A 
HETATM   11  C15 UNK     1      25.120  -8.066  38.633  1.00  0.00     0.068 A 
ENDROOT
BRANCH   5  12
HETATM   12  C6  UNK     1      31.188  -6.031  37.434  1.00  0.00    -0.019 A 
HETATM   13  C12 UNK     1      31.445  -5.267  36.302  1.00  0.00     0.015 A 
HETATM   14  C16 UNK     1      32.763  -4.989  35.942  1.00  0.00     0.037 A 
HETATM   15  C18 UNK     1      33.815  -5.478  36.715  1.00  0.00     0.068 A 
HETATM   16  C17 UNK     1      33.550  -6.244  37.850  1.00  0.00     0.037 A 
HETATM   17  C13 UNK     1      32.231  -6.521  38.211  1.00  0.00     0.015 A 
BRANCH  15  18
HETATM   18  O4  UNK     1      35.102  -5.206  36.364  1.00  0.00    -0.356 OA
HETATM   19  C22 UNK     1      35.761  -6.156  35.527  1.00  0.00     0.210 C 
ENDBRANCH  15  18
ENDBRANCH   5  12
BRANCH   3  20
HETATM   20  C4  UNK     1      29.940  -8.365  36.516  1.00  0.00    -0.024 A 
HETATM   21  C10 UNK     1      29.920  -8.183  35.140  1.00  0.00     0.012 A 
HETATM   22  C19 UNK     1      30.638  -9.055  34.321  1.00  0.00     0.001 A 
HETATM   23  C21 UNK     1      31.369 -10.101  34.887  1.00  0.00     0.000 A 
HETATM   24  C20 UNK     1      31.381 -10.274  36.270  1.00  0.00     0.001 A 
HETATM   25  C11 UNK     1      30.664  -9.402  37.089  1.00  0.00     0.012 A 
ENDBRANCH   3  20
BRANCH  11  26
HETATM   26  O3  UNK     1      23.835  -8.250  39.037  1.00  0.00    -0.361 OA
HETATM   27  H13 UNK     1      23.242  -8.104  38.279  1.00  0.00     0.217 HD
ENDBRANCH  11  26
TORSDOF 4
ENDMDL
MODEL 5
REMARK VINA RESULT:      -7.2      2.743      7.015
REMARK  4 active torsions:
REMARK  status: ('A' for Active; 'I' for Inactive)
REMARK    1  A    between atoms: C15_19  and  O3_3 
REMARK    2  A    between atoms: C18_22  and  O4_4 
REMARK    3  A    between atoms: C1_5  and  C4_8 
REMARK    4  A    between atoms: C3_7  and  C6_10 
ROOT
HETATM    1  O1  UNK     1      33.742  -7.861  33.017  1.00  0.00    -0.274 OA
HETATM    2  O2  UNK     1      32.805  -7.972  35.085  1.00  0.00    -0.259 OA
HETATM    3  C1  UNK     1      31.125  -7.681  31.916  1.00  0.00     0.004 A 
HETATM    4  C2  UNK     1      32.325  -7.668  31.053  1.00  0.00     0.010 A 
HETATM    5  C3  UNK     1      31.296  -7.782  33.258  1.00  0.00     0.062 A 
HETATM    6  C5  UNK     1      33.588  -7.758  31.627  1.00  0.00     0.093 A 
HETATM    7  C7  UNK     1      32.653  -7.880  33.870  1.00  0.00     0.300 A 
HETATM    8  C8  UNK     1      32.253  -7.566  29.655  1.00  0.00     0.018 A 
HETATM    9  C9  UNK     1      34.757  -7.750  30.865  1.00  0.00     0.074 A 
HETATM   10  C14 UNK     1      33.416  -7.558  28.876  1.00  0.00     0.037 A 
HETATM   11  C15 UNK     1      34.668  -7.650  29.480  1.00  0.00     0.068 A 
ENDROOT
BRANCH   5  12
HETATM   12  C6  UNK     1      30.145  -7.800  34.162  1.00  0.00    -0.019 A 
HETATM   13  C12 UNK     1      29.534  -9.009  34.473  1.00  0.00     0.015 A 
HETATM   14  C16 UNK     1      28.438  -9.027  35.336  1.00  0.00     0.037 A 
HETATM   15  C18 UNK     1      27.960  -7.835  35.881  1.00  0.00     0.068 A 
HETATM   16  C17 UNK     1      28.579  -6.626  35.563  1.00  0.00     0.037 A 
HETATM   17  C13 UNK     1      29.675  -6.609  34.701  1.00  0.00     0.015 A 
BRANCH  15  18
HETATM   18  O4  UNK     1      26.891  -7.852  36.723  1.00  0.00    -0.356 OA
HETATM   19  C22 UNK     1      26.439  -9.129  37.173  1.00  0.00     0.210 C 
ENDBRANCH  15  18
ENDBRANCH   5  12
BRANCH   3  20
HETATM   20  C4  UNK     1      29.755  -7.590  31.396  1.00  0.00    -0.024 A 
HETATM   21  C10 UNK     1      29.162  -6.344  31.245  1.00  0.00     0.012 A 
HETATM   22  C19 UNK     1      27.860  -6.257  30.751  1.00  0.00     0.001 A 
HETATM   23  C21 UNK     1      27.164  -7.418  30.413  1.00  0.00     0.000 A 
HETATM   24  C20 UNK     1      27.769  -8.665  30.569  1.00  0.00     0.001 A 
HETATM   25  C11 UNK     1      29.071  -8.752  31.063  1.00  0.00     0.012 A 
ENDBRANCH   3  20
BRANCH  11  26
HETATM   26  O3  UNK     1      35.795  -7.641  28.721  1.00  0.00    -0.361 OA
HETATM   27  H13 UNK     1      35.768  -8.395  28.107  1.00  0.00     0.217 HD
ENDBRANCH  11  26
TORSDOF 4
ENDMDL
MODEL 6
REMARK VINA RESULT:      -7.2      1.765      6.689
REMARK  4 active torsions:
REMARK  status: ('A' for Active; 'I' for Inactive)
REMARK    1  A    between atoms: C15_19  and  O3_3 
REMARK    2  A    between atoms: C18_22  and  O4_4 
REMARK    3  A    between atoms: C1_5  and  C4_8 
REMARK    4  A    between atoms: C3_7  and  C6_10 
ROOT
HETATM    1  O1  UNK     1      35.640  -6.823  34.000  1.00  0.00    -0.274 OA
HETATM    2  O2  UNK     1      35.432  -5.856  36.048  1.00  0.00    -0.259 OA
HETATM    3  C1  UNK     1      32.801  -6.876  33.814  1.00  0.00     0.004 A 
HETATM    4  C2  UNK     1      33.653  -7.401  32.726  1.00  0.00     0.010 A 
HETATM    5  C3  UNK     1      33.404  -6.363  34.916  1.00  0.00     0.062 A 
HETATM    6  C5  UNK     1      35.037  -7.358  32.853  1.00  0.00     0.093 A 
HETATM    7  C7  UNK     1      34.889  -6.320  35.049  1.00  0.00     0.300 A 
HETATM    8  C8  UNK     1      33.126  -7.950  31.547  1.00  0.00     0.018 A 
HETATM    9  C9  UNK     1      35.893  -7.837  31.861  1.00  0.00     0.074 A 
HETATM   10  C14 UNK     1      33.971  -8.436  30.542  1.00  0.00     0.037 A 
HETATM   11  C15 UNK     1      35.354  -8.380  30.699  1.00  0.00     0.068 A 
ENDROOT
BRANCH   5  12
HETATM   12  C6  UNK     1      32.611  -5.829  36.025  1.00  0.00    -0.019 A 
HETATM   13  C12 UNK     1      32.281  -6.653  37.093  1.00  0.00     0.015 A 
HETATM   14  C16 UNK     1      31.527  -6.145  38.150  1.00  0.00     0.037 A 
HETATM   15  C18 UNK     1      31.108  -4.815  38.132  1.00  0.00     0.068 A 
HETATM   16  C17 UNK     1      31.443  -3.993  37.055  1.00  0.00     0.037 A 
HETATM   17  C13 UNK     1      32.198  -4.502  35.998  1.00  0.00     0.015 A 
BRANCH  15  18
HETATM   18  O4  UNK     1      30.372  -4.318  39.164  1.00  0.00    -0.356 OA
HETATM   19  C22 UNK     1      28.956  -4.276  38.991  1.00  0.00     0.210 C 
ENDBRANCH  15  18
ENDBRANCH   5  12
BRANCH   3  20
HETATM   20  C4  UNK     1      31.334  -6.880  33.764  1.00  0.00    -0.024 A 
HETATM   21  C10 UNK     1      30.634  -7.927  34.348  1.00  0.00     0.012 A 
HETATM   22  C19 UNK     1      29.239  -7.932  34.301  1.00  0.00     0.001 A 
HETATM   23  C21 UNK     1      28.559  -6.889  33.670  1.00  0.00     0.000 A 
HETATM   24  C20 UNK     1      29.273  -5.843  33.087  1.00  0.00     0.001 A 
HETATM   25  C11 UNK     1      30.667  -5.839  33.134  1.00  0.00     0.012 A 
ENDBRANCH   3  20
BRANCH  11  26
HETATM   26  O3  UNK     1      36.172  -8.852  29.721  1.00  0.00    -0.361 OA
HETATM   27  H13 UNK     1      36.418  -9.770  29.931  1.00  0.00     0.217 HD
ENDBRANCH  11  26
TORSDOF 4
ENDMDL
MODEL 7
REMARK VINA RESULT:      -7.1      1.981      2.735
REMARK  4 active torsions:
REMARK  status: ('A' for Active; 'I' for Inactive)
REMARK    1  A    between atoms: C15_19  and  O3_3 
REMARK    2  A    between atoms: C18_22  and  O4_4 
REMARK    3  A    between atoms: C1_5  and  C4_8 
REMARK    4  A    between atoms: C3_7  and  C6_10 
ROOT
HETATM    1  O1  UNK     1      33.563  -5.352  37.547  1.00  0.00    -0.274 OA
HETATM    2  O2  UNK     1      35.516  -5.938  36.542  1.00  0.00    -0.259 OA
HETATM    3  C1  UNK     1      32.170  -6.411  35.303  1.00  0.00     0.004 A 
HETATM    4  C2  UNK     1      31.447  -5.809  36.443  1.00  0.00     0.010 A 
HETATM    5  C3  UNK     1      33.526  -6.450  35.346  1.00  0.00     0.062 A 
HETATM    6  C5  UNK     1      32.161  -5.302  37.522  1.00  0.00     0.093 A 
HETATM    7  C7  UNK     1      34.289  -5.903  36.506  1.00  0.00     0.300 A 
HETATM    8  C8  UNK     1      30.047  -5.722  36.493  1.00  0.00     0.018 A 
HETATM    9  C9  UNK     1      31.535  -4.722  38.627  1.00  0.00     0.074 A 
HETATM   10  C14 UNK     1      29.403  -5.144  37.593  1.00  0.00     0.037 A 
HETATM   11  C15 UNK     1      30.147  -4.644  38.660  1.00  0.00     0.068 A 
ENDROOT
BRANCH   5  12
HETATM   12  C6  UNK     1      34.295  -7.034  34.247  1.00  0.00    -0.019 A 
HETATM   13  C12 UNK     1      34.496  -8.408  34.202  1.00  0.00     0.015 A 
HETATM   14  C16 UNK     1      35.228  -8.965  33.154  1.00  0.00     0.037 A 
HETATM   15  C18 UNK     1      35.755  -8.144  32.158  1.00  0.00     0.068 A 
HETATM   16  C17 UNK     1      35.549  -6.766  32.209  1.00  0.00     0.037 A 
HETATM   17  C13 UNK     1      34.816  -6.209  33.257  1.00  0.00     0.015 A 
BRANCH  15  18
HETATM   18  O4  UNK     1      36.469  -8.688  31.134  1.00  0.00    -0.356 OA
HETATM   19  C22 UNK     1      37.059  -9.968  31.362  1.00  0.00     0.210 C 
ENDBRANCH  15  18
ENDBRANCH   5  12
BRANCH   3  20
HETATM   20  C4  UNK     1      31.498  -6.971  34.125  1.00  0.00    -0.024 A 
HETATM   21  C10 UNK     1      31.280  -6.165  33.015  1.00  0.00     0.012 A 
HETATM   22  C19 UNK     1      30.641  -6.696  31.894  1.00  0.00     0.001 A 
HETATM   23  C21 UNK     1      30.225  -8.029  31.895  1.00  0.00     0.000 A 
HETATM   24  C20 UNK     1      30.448  -8.828  33.015  1.00  0.00     0.001 A 
HETATM   25  C11 UNK     1      31.088  -8.297  34.136  1.00  0.00     0.012 A 
ENDBRANCH   3  20
BRANCH  11  26
HETATM   26  O3  UNK     1      29.518  -4.083  39.727  1.00  0.00    -0.361 OA
HETATM   27  H13 UNK     1      29.989  -3.270  39.979  1.00  0.00     0.217 HD
ENDBRANCH  11  26
TORSDOF 4
ENDMDL
MODEL 8
REMARK VINA RESULT:      -7.1      2.276      3.443
REMARK  4 active torsions:
REMARK  status: ('A' for Active; 'I' for Inactive)
REMARK    1  A    between atoms: C15_19  and  O3_3 
REMARK    2  A    between atoms: C18_22  and  O4_4 
REMARK    3  A    between atoms: C1_5  and  C4_8 
REMARK    4  A    between atoms: C3_7  and  C6_10 
ROOT
HETATM    1  O1  UNK     1      34.242  -7.474  35.248  1.00  0.00    -0.274 OA
HETATM    2  O2  UNK     1      34.815  -8.639  33.382  1.00  0.00    -0.259 OA
HETATM    3  C1  UNK     1      31.759  -6.845  34.008  1.00  0.00     0.004 A 
HETATM    4  C2  UNK     1      32.086  -6.359  35.365  1.00  0.00     0.010 A 
HETATM    5  C3  UNK     1      32.675  -7.604  33.356  1.00  0.00     0.062 A 
HETATM    6  C5  UNK     1      33.309  -6.687  35.939  1.00  0.00     0.093 A 
HETATM    7  C7  UNK     1      33.988  -7.953  33.974  1.00  0.00     0.300 A 
HETATM    8  C8  UNK     1      31.206  -5.569  36.121  1.00  0.00     0.018 A 
HETATM    9  C9  UNK     1      33.674  -6.259  37.216  1.00  0.00     0.074 A 
HETATM   10  C14 UNK     1      31.557  -5.131  37.403  1.00  0.00     0.037 A 
HETATM   11  C15 UNK     1      32.790  -5.476  37.951  1.00  0.00     0.068 A 
ENDROOT
BRANCH   5  12
HETATM   12  C6  UNK     1      32.407  -8.113  32.010  1.00  0.00    -0.019 A 
HETATM   13  C12 UNK     1      32.795  -7.367  30.903  1.00  0.00     0.015 A 
HETATM   14  C16 UNK     1      32.541  -7.852  29.621  1.00  0.00     0.037 A 
HETATM   15  C18 UNK     1      31.900  -9.079  29.453  1.00  0.00     0.068 A 
HETATM   16  C17 UNK     1      31.514  -9.822  30.569  1.00  0.00     0.037 A 
HETATM   17  C13 UNK     1      31.769  -9.337  31.852  1.00  0.00     0.015 A 
BRANCH  15  18
HETATM   18  O4  UNK     1      31.652  -9.553  28.201  1.00  0.00    -0.356 OA
HETATM   19  C22 UNK     1      30.318  -9.974  27.919  1.00  0.00     0.210 C 
ENDBRANCH  15  18
ENDBRANCH   5  12
BRANCH   3  20
HETATM   20  C4  UNK     1      30.493  -6.548  33.327  1.00  0.00    -0.024 A 
HETATM   21  C10 UNK     1      29.411  -7.402  33.492  1.00  0.00     0.012 A 
HETATM   22  C19 UNK     1      28.208  -7.120  32.845  1.00  0.00     0.001 A 
HETATM   23  C21 UNK     1      28.098  -5.986  32.039  1.00  0.00     0.000 A 
HETATM   24  C20 UNK     1      29.192  -5.136  31.879  1.00  0.00     0.001 A 
HETATM   25  C11 UNK     1      30.395  -5.418  32.526  1.00  0.00     0.012 A 
ENDBRANCH   3  20
BRANCH  11  26
HETATM   26  O3  UNK     1      33.128  -5.049  39.197  1.00  0.00    -0.361 OA
HETATM   27  H13 UNK     1      33.294  -4.091  39.168  1.00  0.00     0.217 HD
ENDBRANCH  11  26
TORSDOF 4
ENDMDL
MODEL 9
REMARK VINA RESULT:      -7.1      2.977      7.022
REMARK  4 active torsions:
REMARK  status: ('A' for Active; 'I' for Inactive)
REMARK    1  A    between atoms: C15_19  and  O3_3 
REMARK    2  A    between atoms: C18_22  and  O4_4 
REMARK    3  A    between atoms: C1_5  and  C4_8 
REMARK    4  A    between atoms: C3_7  and  C6_10 
ROOT
HETATM    1  O1  UNK     1      33.245  -9.890  34.141  1.00  0.00    -0.274 OA
HETATM    2  O2  UNK     1      31.738 -11.236  35.183  1.00  0.00    -0.259 OA
HETATM    3  C1  UNK     1      32.341  -7.736  35.766  1.00  0.00     0.004 A 
HETATM    4  C2  UNK     1      33.411  -7.547  34.764  1.00  0.00     0.010 A 
HETATM    5  C3  UNK     1      31.790  -8.969  35.898  1.00  0.00     0.062 A 
HETATM    6  C5  UNK     1      33.827  -8.623  33.988  1.00  0.00     0.093 A 
HETATM    7  C7  UNK     1      32.238 -10.121  35.062  1.00  0.00     0.300 A 
HETATM    8  C8  UNK     1      34.043  -6.312  34.553  1.00  0.00     0.018 A 
HETATM    9  C9  UNK     1      34.832  -8.507  33.027  1.00  0.00     0.074 A 
HETATM   10  C14 UNK     1      35.053  -6.178  33.592  1.00  0.00     0.037 A 
HETATM   11  C15 UNK     1      35.447  -7.275  32.830  1.00  0.00     0.068 A 
ENDROOT
BRANCH   5  12
HETATM   12  C6  UNK     1      30.727  -9.216  36.874  1.00  0.00    -0.019 A 
HETATM   13  C12 UNK     1      29.404  -8.974  36.524  1.00  0.00     0.015 A 
HETATM   14  C16 UNK     1      28.391  -9.210  37.452  1.00  0.00     0.037 A 
HETATM   15  C18 UNK     1      28.707  -9.687  38.724  1.00  0.00     0.068 A 
HETATM   16  C17 UNK     1      30.038  -9.927  39.068  1.00  0.00     0.037 A 
HETATM   17  C13 UNK     1      31.051  -9.691  38.138  1.00  0.00     0.015 A 
BRANCH  15  18
HETATM   18  O4  UNK     1      27.718  -9.918  39.631  1.00  0.00    -0.356 OA
HETATM   19  C22 UNK     1      26.512  -9.171  39.480  1.00  0.00     0.210 C 
ENDBRANCH  15  18
ENDBRANCH   5  12
BRANCH   3  20
HETATM   20  C4  UNK     1      31.841  -6.658  36.628  1.00  0.00    -0.024 A 
HETATM   21  C10 UNK     1      32.464  -6.411  37.844  1.00  0.00     0.012 A 
HETATM   22  C19 UNK     1      31.989  -5.385  38.663  1.00  0.00     0.001 A 
HETATM   23  C21 UNK     1      30.897  -4.618  38.257  1.00  0.00     0.000 A 
HETATM   24  C20 UNK     1      30.279  -4.875  37.034  1.00  0.00     0.001 A 
HETATM   25  C11 UNK     1      30.754  -5.900  36.215  1.00  0.00     0.012 A 
ENDBRANCH   3  20
BRANCH  11  26
HETATM   26  O3  UNK     1      36.428  -7.142  31.898  1.00  0.00    -0.361 OA
HETATM   27  H13 UNK     1      36.547  -7.992  31.440  1.00  0.00     0.217 HD
ENDBRANCH  11  26
TORSDOF 4
ENDMDL
MODEL 10
REMARK VINA RESULT:      -7.1      1.780      6.725
REMARK  4 active torsions:
REMARK  status: ('A' for Active; 'I' for Inactive)
REMARK    1  A    between atoms: C15_19  and  O3_3 
REMARK    2  A    between atoms: C18_22  and  O4_4 
REMARK    3  A    between atoms: C1_5  and  C4_8 
REMARK    4  A    between atoms: C3_7  and  C6_10 
ROOT
HETATM    1  O1  UNK     1      34.980  -7.179  33.358  1.00  0.00    -0.274 OA
HETATM    2  O2  UNK     1      34.655  -6.774  35.571  1.00  0.00    -0.259 OA
HETATM    3  C1  UNK     1      32.171  -6.938  32.972  1.00  0.00     0.004 A 
HETATM    4  C2  UNK     1      33.081  -7.227  31.843  1.00  0.00     0.010 A 
HETATM    5  C3  UNK     1      32.706  -6.789  34.210  1.00  0.00     0.062 A 
HETATM    6  C5  UNK     1      34.448  -7.337  32.070  1.00  0.00     0.093 A 
HETATM    7  C7  UNK     1      34.173  -6.910  34.450  1.00  0.00     0.300 A 
HETATM    8  C8  UNK     1      32.626  -7.398  30.526  1.00  0.00     0.018 A 
HETATM    9  C9  UNK     1      35.356  -7.608  31.045  1.00  0.00     0.074 A 
HETATM   10  C14 UNK     1      33.523  -7.670  29.487  1.00  0.00     0.037 A 
HETATM   11  C15 UNK     1      34.888  -7.775  29.746  1.00  0.00     0.068 A 
ENDROOT
BRANCH   5  12
HETATM   12  C6  UNK     1      31.854  -6.502  35.365  1.00  0.00    -0.019 A 
HETATM   13  C12 UNK     1      31.598  -5.183  35.719  1.00  0.00     0.015 A 
HETATM   14  C16 UNK     1      30.786  -4.909  36.819  1.00  0.00     0.037 A 
HETATM   15  C18 UNK     1      30.235  -5.957  37.558  1.00  0.00     0.068 A 
HETATM   16  C17 UNK     1      30.497  -7.278  37.196  1.00  0.00     0.037 A 
HETATM   17  C13 UNK     1      31.309  -7.552  36.095  1.00  0.00     0.015 A 
BRANCH  15  18
HETATM   18  O4  UNK     1      29.442  -5.690  38.632  1.00  0.00    -0.356 OA
HETATM   19  C22 UNK     1      29.433  -4.347  39.115  1.00  0.00     0.210 C 
ENDBRANCH  15  18
ENDBRANCH   5  12
BRANCH   3  20
HETATM   20  C4  UNK     1      30.717  -6.805  32.823  1.00  0.00    -0.024 A 
HETATM   21  C10 UNK     1      29.909  -7.923  32.975  1.00  0.00     0.012 A 
HETATM   22  C19 UNK     1      28.527  -7.797  32.834  1.00  0.00     0.001 A 
HETATM   23  C21 UNK     1      27.966  -6.553  32.542  1.00  0.00     0.000 A 
HETATM   24  C20 UNK     1      28.787  -5.436  32.391  1.00  0.00     0.001 A 
HETATM   25  C11 UNK     1      30.170  -5.563  32.532  1.00  0.00     0.012 A 
ENDBRANCH   3  20
BRANCH  11  26
HETATM   26  O3  UNK     1      35.757  -8.039  28.734  1.00  0.00    -0.361 OA
HETATM   27  H13 UNK     1      35.289  -8.530  28.037  1.00  0.00     0.217 HD
ENDBRANCH  11  26
TORSDOF 4
ENDMDL
