MODEL 1
REMARK VINA RESULT:      -8.5      0.000      0.000
REMARK  2 active torsions:
REMARK  status: ('A' for Active; 'I' for Inactive)
REMARK    1  A    between atoms: C11_14  and  O3_3 
REMARK    2  A    between atoms: C1_4  and  C3_6 
ROOT
HETATM    1  O1  UNK     1      19.139  -0.452  33.851  1.00  0.00    -0.340 OA
HETATM    2  O2  UNK     1      20.450  -4.006  35.428  1.00  0.00    -0.292 OA
HETATM    3  C1  UNK     1      19.321  -1.603  33.014  1.00  0.00     0.169 C 
HETATM    4  C2  UNK     1      20.427  -2.508  33.555  1.00  0.00     0.121 C 
HETATM    5  C4  UNK     1      19.279  -1.980  35.747  1.00  0.00     0.043 A 
HETATM    6  C5  UNK     1      20.067  -2.944  34.951  1.00  0.00     0.165 C 
HETATM    7  C6  UNK     1      18.879  -0.777  35.158  1.00  0.00     0.086 A 
HETATM    8  C7  UNK     1      18.975  -2.247  37.084  1.00  0.00     0.021 A 
HETATM    9  C8  UNK     1      18.203   0.177  35.919  1.00  0.00     0.074 A 
HETATM   10  C11 UNK     1      17.900  -0.086  37.255  1.00  0.00     0.070 A 
HETATM   11  C12 UNK     1      18.280  -1.297  37.834  1.00  0.00     0.038 A 
ENDROOT
BRANCH   3  12
HETATM   12  C3  UNK     1      19.640  -1.131  31.611  1.00  0.00    -0.029 A 
HETATM   13  C10 UNK     1      19.393   0.193  31.248  1.00  0.00     0.010 A 
HETATM   14  C14 UNK     1      19.688   0.628  29.956  1.00  0.00     0.001 A 
HETATM   15  C15 UNK     1      20.230  -0.260  29.028  1.00  0.00     0.000 A 
HETATM   16  C13 UNK     1      20.477  -1.584  29.391  1.00  0.00     0.001 A 
HETATM   17  C9  UNK     1      20.182  -2.020  30.683  1.00  0.00     0.010 A 
ENDBRANCH   3  12
BRANCH  10  18
HETATM   18  O3  UNK     1      17.231   0.840  37.995  1.00  0.00    -0.356 OA
HETATM   19  C16 UNK     1      16.352   1.719  37.295  1.00  0.00     0.210 C 
ENDBRANCH  10  18
TORSDOF 2
ENDMDL
MODEL 2
REMARK VINA RESULT:      -8.0     25.453     27.493
REMARK  2 active torsions:
REMARK  status: ('A' for Active; 'I' for Inactive)
REMARK    1  A    between atoms: C11_14  and  O3_3 
REMARK    2  A    between atoms: C1_4  and  C3_6 
ROOT
HETATM    1  O1  UNK     1      13.337   7.529   8.401  1.00  0.00    -0.340 OA
HETATM    2  O2  UNK     1      15.405   4.235   9.710  1.00  0.00    -0.292 OA
HETATM    3  C1  UNK     1      12.647   6.317   8.743  1.00  0.00     0.169 C 
HETATM    4  C2  UNK     1      13.526   5.094   8.490  1.00  0.00     0.121 C 
HETATM    5  C4  UNK     1      15.272   6.587   9.549  1.00  0.00     0.043 A 
HETATM    6  C5  UNK     1      14.784   5.213   9.310  1.00  0.00     0.165 C 
HETATM    7  C6  UNK     1      14.531   7.667   9.061  1.00  0.00     0.086 A 
HETATM    8  C7  UNK     1      16.480   6.804  10.217  1.00  0.00     0.021 A 
HETATM    9  C8  UNK     1      15.018   8.966   9.209  1.00  0.00     0.074 A 
HETATM   10  C11 UNK     1      16.225   9.185   9.873  1.00  0.00     0.070 A 
HETATM   11  C12 UNK     1      16.951   8.106  10.380  1.00  0.00     0.038 A 
ENDROOT
BRANCH   3  12
HETATM   12  C3  UNK     1      11.370   6.248   7.932  1.00  0.00    -0.029 A 
HETATM   13  C10 UNK     1      11.428   6.231   6.539  1.00  0.00     0.010 A 
HETATM   14  C14 UNK     1      10.252   6.167   5.793  1.00  0.00     0.001 A 
HETATM   15  C15 UNK     1       9.017   6.120   6.439  1.00  0.00     0.000 A 
HETATM   16  C13 UNK     1       8.958   6.137   7.833  1.00  0.00     0.001 A 
HETATM   17  C9  UNK     1      10.135   6.201   8.580  1.00  0.00     0.010 A 
ENDBRANCH   3  12
BRANCH  10  18
HETATM   18  O3  UNK     1      16.696  10.453  10.028  1.00  0.00    -0.356 OA
HETATM   19  C16 UNK     1      17.772  10.854   9.182  1.00  0.00     0.210 C 
ENDBRANCH  10  18
TORSDOF 2
ENDMDL
MODEL 3
REMARK VINA RESULT:      -8.0     25.457     27.490
REMARK  2 active torsions:
REMARK  status: ('A' for Active; 'I' for Inactive)
REMARK    1  A    between atoms: C11_14  and  O3_3 
REMARK    2  A    between atoms: C1_4  and  C3_6 
ROOT
HETATM    1  O1  UNK     1      13.333   7.528   8.396  1.00  0.00    -0.340 OA
HETATM    2  O2  UNK     1      15.398   4.233   9.707  1.00  0.00    -0.292 OA
HETATM    3  C1  UNK     1      12.642   6.317   8.738  1.00  0.00     0.169 C 
HETATM    4  C2  UNK     1      13.521   5.093   8.486  1.00  0.00     0.121 C 
HETATM    5  C4  UNK     1      15.267   6.585   9.545  1.00  0.00     0.043 A 
HETATM    6  C5  UNK     1      14.778   5.212   9.307  1.00  0.00     0.165 C 
HETATM    7  C6  UNK     1      14.527   7.666   9.056  1.00  0.00     0.086 A 
HETATM    8  C7  UNK     1      16.475   6.802  10.213  1.00  0.00     0.021 A 
HETATM    9  C8  UNK     1      15.015   8.965   9.203  1.00  0.00     0.074 A 
HETATM   10  C11 UNK     1      16.222   9.183   9.868  1.00  0.00     0.070 A 
HETATM   11  C12 UNK     1      16.947   8.104  10.376  1.00  0.00     0.038 A 
ENDROOT
BRANCH   3  12
HETATM   12  C3  UNK     1      11.365   6.248   7.927  1.00  0.00    -0.029 A 
HETATM   13  C10 UNK     1      10.130   6.211   8.573  1.00  0.00     0.010 A 
HETATM   14  C14 UNK     1       8.954   6.148   7.826  1.00  0.00     0.001 A 
HETATM   15  C15 UNK     1       9.013   6.122   6.433  1.00  0.00     0.000 A 
HETATM   16  C13 UNK     1      10.249   6.158   5.786  1.00  0.00     0.001 A 
HETATM   17  C9  UNK     1      11.425   6.221   6.534  1.00  0.00     0.010 A 
ENDBRANCH   3  12
BRANCH  10  18
HETATM   18  O3  UNK     1      16.694  10.451  10.022  1.00  0.00    -0.356 OA
HETATM   19  C16 UNK     1      17.764  10.854   9.168  1.00  0.00     0.210 C 
ENDBRANCH  10  18
TORSDOF 2
ENDMDL
MODEL 4
REMARK VINA RESULT:      -7.9      2.577      7.265
REMARK  2 active torsions:
REMARK  status: ('A' for Active; 'I' for Inactive)
REMARK    1  A    between atoms: C11_14  and  O3_3 
REMARK    2  A    between atoms: C1_4  and  C3_6 
ROOT
HETATM    1  O1  UNK     1      18.650   0.835  33.197  1.00  0.00    -0.340 OA
HETATM    2  O2  UNK     1      17.927   4.853  32.789  1.00  0.00    -0.292 OA
HETATM    3  C1  UNK     1      17.811   1.528  34.133  1.00  0.00     0.169 C 
HETATM    4  C2  UNK     1      18.232   2.991  34.269  1.00  0.00     0.121 C 
HETATM    5  C4  UNK     1      18.419   2.789  31.755  1.00  0.00     0.043 A 
HETATM    6  C5  UNK     1      18.148   3.655  32.920  1.00  0.00     0.165 C 
HETATM    7  C6  UNK     1      18.678   1.430  31.962  1.00  0.00     0.086 A 
HETATM    8  C7  UNK     1      18.461   3.326  30.466  1.00  0.00     0.021 A 
HETATM    9  C8  UNK     1      19.013   0.615  30.880  1.00  0.00     0.074 A 
HETATM   10  C11 UNK     1      19.057   1.150  29.593  1.00  0.00     0.070 A 
HETATM   11  C12 UNK     1      18.776   2.501  29.386  1.00  0.00     0.038 A 
ENDROOT
BRANCH   3  12
HETATM   12  C3  UNK     1      17.886   0.813  35.466  1.00  0.00    -0.029 A 
HETATM   13  C10 UNK     1      18.299  -0.518  35.520  1.00  0.00     0.010 A 
HETATM   14  C14 UNK     1      18.368  -1.177  36.747  1.00  0.00     0.001 A 
HETATM   15  C15 UNK     1      18.025  -0.504  37.920  1.00  0.00     0.000 A 
HETATM   16  C13 UNK     1      17.612   0.827  37.866  1.00  0.00     0.001 A 
HETATM   17  C9  UNK     1      17.543   1.486  36.638  1.00  0.00     0.010 A 
ENDBRANCH   3  12
BRANCH  10  18
HETATM   18  O3  UNK     1      19.374   0.353  28.536  1.00  0.00    -0.356 OA
HETATM   19  C16 UNK     1      20.220  -0.766  28.797  1.00  0.00     0.210 C 
ENDBRANCH  10  18
TORSDOF 2
ENDMDL
MODEL 5
REMARK VINA RESULT:      -7.7     25.122     28.019
REMARK  2 active torsions:
REMARK  status: ('A' for Active; 'I' for Inactive)
REMARK    1  A    between atoms: C11_14  and  O3_3 
REMARK    2  A    between atoms: C1_4  and  C3_6 
ROOT
HETATM    1  O1  UNK     1      11.467   7.318   9.464  1.00  0.00    -0.340 OA
HETATM    2  O2  UNK     1      12.088   6.194   5.567  1.00  0.00    -0.292 OA
HETATM    3  C1  UNK     1      12.665   7.700   8.773  1.00  0.00     0.169 C 
HETATM    4  C2  UNK     1      13.044   6.663   7.716  1.00  0.00     0.121 C 
HETATM    5  C4  UNK     1      10.554   6.739   7.277  1.00  0.00     0.043 A 
HETATM    6  C5  UNK     1      11.911   6.524   6.734  1.00  0.00     0.165 C 
HETATM    7  C6  UNK     1      10.408   7.103   8.619  1.00  0.00     0.086 A 
HETATM    8  C7  UNK     1       9.429   6.541   6.474  1.00  0.00     0.021 A 
HETATM    9  C8  UNK     1       9.132   7.233   9.168  1.00  0.00     0.074 A 
HETATM   10  C11 UNK     1       8.007   7.033   8.368  1.00  0.00     0.070 A 
HETATM   11  C12 UNK     1       8.156   6.693   7.023  1.00  0.00     0.038 A 
ENDROOT
BRANCH   3  12
HETATM   12  C3  UNK     1      13.773   7.871   9.791  1.00  0.00    -0.029 A 
HETATM   13  C10 UNK     1      14.933   7.103   9.695  1.00  0.00     0.010 A 
HETATM   14  C14 UNK     1      15.953   7.262  10.633  1.00  0.00     0.001 A 
HETATM   15  C15 UNK     1      15.813   8.187  11.666  1.00  0.00     0.000 A 
HETATM   16  C13 UNK     1      14.652   8.956  11.763  1.00  0.00     0.001 A 
HETATM   17  C9  UNK     1      13.632   8.797  10.824  1.00  0.00     0.010 A 
ENDBRANCH   3  12
BRANCH  10  18
HETATM   18  O3  UNK     1       6.761   7.171   8.900  1.00  0.00    -0.356 OA
HETATM   19  C16 UNK     1       6.673   7.328  10.315  1.00  0.00     0.210 C 
ENDBRANCH  10  18
TORSDOF 2
ENDMDL
MODEL 6
REMARK VINA RESULT:      -7.7      1.728      6.150
REMARK  2 active torsions:
REMARK  status: ('A' for Active; 'I' for Inactive)
REMARK    1  A    between atoms: C11_14  and  O3_3 
REMARK    2  A    between atoms: C1_4  and  C3_6 
ROOT
HETATM    1  O1  UNK     1      18.810  -0.145  33.127  1.00  0.00    -0.340 OA
HETATM    2  O2  UNK     1      21.209  -3.419  32.523  1.00  0.00    -0.292 OA
HETATM    3  C1  UNK     1      19.583  -0.697  34.204  1.00  0.00     0.169 C 
HETATM    4  C2  UNK     1      19.785  -2.200  34.021  1.00  0.00     0.121 C 
HETATM    5  C4  UNK     1      20.197  -1.481  31.630  1.00  0.00     0.043 A 
HETATM    6  C5  UNK     1      20.487  -2.446  32.711  1.00  0.00     0.165 C 
HETATM    7  C6  UNK     1      19.356  -0.396  31.895  1.00  0.00     0.086 A 
HETATM    8  C7  UNK     1      20.721  -1.672  30.349  1.00  0.00     0.021 A 
HETATM    9  C8  UNK     1      19.009   0.480  30.865  1.00  0.00     0.074 A 
HETATM   10  C11 UNK     1      19.529   0.289  29.585  1.00  0.00     0.070 A 
HETATM   11  C12 UNK     1      20.387  -0.781  29.330  1.00  0.00     0.038 A 
ENDROOT
BRANCH   3  12
HETATM   12  C3  UNK     1      18.873  -0.397  35.507  1.00  0.00    -0.029 A 
HETATM   13  C10 UNK     1      18.528   0.916  35.827  1.00  0.00     0.010 A 
HETATM   14  C14 UNK     1      17.874   1.192  37.027  1.00  0.00     0.001 A 
HETATM   15  C15 UNK     1      17.565   0.156  37.908  1.00  0.00     0.000 A 
HETATM   16  C13 UNK     1      17.910  -1.158  37.588  1.00  0.00     0.001 A 
HETATM   17  C9  UNK     1      18.564  -1.434  36.387  1.00  0.00     0.010 A 
ENDBRANCH   3  12
BRANCH  10  18
HETATM   18  O3  UNK     1      19.200   1.150  28.583  1.00  0.00    -0.356 OA
HETATM   19  C16 UNK     1      17.922   1.779  28.660  1.00  0.00     0.210 C 
ENDBRANCH  10  18
TORSDOF 2
ENDMDL
MODEL 7
REMARK VINA RESULT:      -7.6      8.299     10.147
REMARK  2 active torsions:
REMARK  status: ('A' for Active; 'I' for Inactive)
REMARK    1  A    between atoms: C11_14  and  O3_3 
REMARK    2  A    between atoms: C1_4  and  C3_6 
ROOT
HETATM    1  O1  UNK     1      17.438   8.290  33.231  1.00  0.00    -0.340 OA
HETATM    2  O2  UNK     1      13.756   6.947  32.017  1.00  0.00    -0.292 OA
HETATM    3  C1  UNK     1      17.285   7.597  31.983  1.00  0.00     0.169 C 
HETATM    4  C2  UNK     1      16.129   6.600  32.047  1.00  0.00     0.121 C 
HETATM    5  C4  UNK     1      15.011   8.531  33.237  1.00  0.00     0.043 A 
HETATM    6  C5  UNK     1      14.859   7.338  32.380  1.00  0.00     0.165 C 
HETATM    7  C6  UNK     1      16.292   8.927  33.633  1.00  0.00     0.086 A 
HETATM    8  C7  UNK     1      13.887   9.232  33.683  1.00  0.00     0.021 A 
HETATM    9  C8  UNK     1      16.447  10.004  34.506  1.00  0.00     0.074 A 
HETATM   10  C11 UNK     1      15.326  10.704  34.954  1.00  0.00     0.070 A 
HETATM   11  C12 UNK     1      14.050  10.321  34.539  1.00  0.00     0.038 A 
ENDROOT
BRANCH   3  12
HETATM   12  C3  UNK     1      18.589   6.901  31.657  1.00  0.00    -0.029 A 
HETATM   13  C10 UNK     1      19.597   6.824  32.618  1.00  0.00     0.010 A 
HETATM   14  C14 UNK     1      20.798   6.182  32.318  1.00  0.00     0.001 A 
HETATM   15  C15 UNK     1      20.992   5.618  31.058  1.00  0.00     0.000 A 
HETATM   16  C13 UNK     1      19.983   5.695  30.096  1.00  0.00     0.001 A 
HETATM   17  C9  UNK     1      18.782   6.337  30.396  1.00  0.00     0.010 A 
ENDBRANCH   3  12
BRANCH  10  18
HETATM   18  O3  UNK     1      15.477  11.762  35.797  1.00  0.00    -0.356 OA
HETATM   19  C16 UNK     1      16.467  12.730  35.453  1.00  0.00     0.210 C 
ENDBRANCH  10  18
TORSDOF 2
ENDMDL
MODEL 8
REMARK VINA RESULT:      -7.4     24.422     26.949
REMARK  2 active torsions:
REMARK  status: ('A' for Active; 'I' for Inactive)
REMARK    1  A    between atoms: C11_14  and  O3_3 
REMARK    2  A    between atoms: C1_4  and  C3_6 
ROOT
HETATM    1  O1  UNK     1      12.467   7.682   9.283  1.00  0.00    -0.340 OA
HETATM    2  O2  UNK     1      15.774   5.269   9.007  1.00  0.00    -0.292 OA
HETATM    3  C1  UNK     1      12.352   6.332   8.808  1.00  0.00     0.169 C 
HETATM    4  C2  UNK     1      13.636   5.884   8.110  1.00  0.00     0.121 C 
HETATM    5  C4  UNK     1      14.686   7.065  10.086  1.00  0.00     0.043 A 
HETATM    6  C5  UNK     1      14.785   5.989   9.079  1.00  0.00     0.165 C 
HETATM    7  C6  UNK     1      13.540   7.866  10.116  1.00  0.00     0.086 A 
HETATM    8  C7  UNK     1      15.741   7.309  10.969  1.00  0.00     0.021 A 
HETATM    9  C8  UNK     1      13.465   8.936  11.008  1.00  0.00     0.074 A 
HETATM   10  C11 UNK     1      14.518   9.183  11.889  1.00  0.00     0.070 A 
HETATM   11  C12 UNK     1      15.650   8.368  11.873  1.00  0.00     0.038 A 
ENDROOT
BRANCH   3  12
HETATM   12  C3  UNK     1      11.166   6.252   7.871  1.00  0.00    -0.029 A 
HETATM   13  C10 UNK     1      11.363   6.291   6.492  1.00  0.00     0.010 A 
HETATM   14  C14 UNK     1      10.270   6.216   5.629  1.00  0.00     0.001 A 
HETATM   15  C15 UNK     1       8.980   6.104   6.146  1.00  0.00     0.000 A 
HETATM   16  C13 UNK     1       8.782   6.065   7.527  1.00  0.00     0.001 A 
HETATM   17  C9  UNK     1       9.875   6.139   8.389  1.00  0.00     0.010 A 
ENDBRANCH   3  12
BRANCH  10  18
HETATM   18  O3  UNK     1      14.440  10.220  12.768  1.00  0.00    -0.356 OA
HETATM   19  C16 UNK     1      13.250  10.323  13.548  1.00  0.00     0.210 C 
ENDBRANCH  10  18
TORSDOF 2
ENDMDL
MODEL 9
REMARK VINA RESULT:      -7.4      2.697      7.133
REMARK  2 active torsions:
REMARK  status: ('A' for Active; 'I' for Inactive)
REMARK    1  A    between atoms: C11_14  and  O3_3 
REMARK    2  A    between atoms: C1_4  and  C3_6 
ROOT
HETATM    1  O1  UNK     1      18.885   0.430  33.121  1.00  0.00    -0.340 OA
HETATM    2  O2  UNK     1      18.128   3.796  30.900  1.00  0.00    -0.292 OA
HETATM    3  C1  UNK     1      17.833   1.333  33.493  1.00  0.00     0.169 C 
HETATM    4  C2  UNK     1      18.160   2.763  33.065  1.00  0.00     0.121 C 
HETATM    5  C4  UNK     1      18.913   1.571  30.965  1.00  0.00     0.043 A 
HETATM    6  C5  UNK     1      18.356   2.797  31.572  1.00  0.00     0.165 C 
HETATM    7  C6  UNK     1      19.167   0.463  31.779  1.00  0.00     0.086 A 
HETATM    8  C7  UNK     1      19.223   1.531  29.603  1.00  0.00     0.021 A 
HETATM    9  C8  UNK     1      19.766  -0.674  31.236  1.00  0.00     0.074 A 
HETATM   10  C11 UNK     1      20.079  -0.715  29.878  1.00  0.00     0.070 A 
HETATM   11  C12 UNK     1      19.803   0.384  29.062  1.00  0.00     0.038 A 
ENDROOT
BRANCH   3  12
HETATM   12  C3  UNK     1      17.633   1.244  34.991  1.00  0.00    -0.029 A 
HETATM   13  C10 UNK     1      16.577   0.496  35.510  1.00  0.00     0.010 A 
HETATM   14  C14 UNK     1      16.394   0.414  36.891  1.00  0.00     0.001 A 
HETATM   15  C15 UNK     1      17.265   1.081  37.751  1.00  0.00     0.000 A 
HETATM   16  C13 UNK     1      18.321   1.831  37.231  1.00  0.00     0.001 A 
HETATM   17  C9  UNK     1      18.505   1.912  35.851  1.00  0.00     0.010 A 
ENDBRANCH   3  12
BRANCH  10  18
HETATM   18  O3  UNK     1      20.653  -1.829  29.345  1.00  0.00    -0.356 OA
HETATM   19  C16 UNK     1      20.870  -2.931  30.224  1.00  0.00     0.210 C 
ENDBRANCH  10  18
TORSDOF 2
ENDMDL
MODEL 10
REMARK VINA RESULT:      -7.4      1.525      3.190
REMARK  2 active torsions:
REMARK  status: ('A' for Active; 'I' for Inactive)
REMARK    1  A    between atoms: C11_14  and  O3_3 
REMARK    2  A    between atoms: C1_4  and  C3_6 
ROOT
HETATM    1  O1  UNK     1      19.774  -1.880  33.586  1.00  0.00    -0.340 OA
HETATM    2  O2  UNK     1      16.507   0.067  35.126  1.00  0.00    -0.292 OA
HETATM    3  C1  UNK     1      19.286  -0.673  32.980  1.00  0.00     0.169 C 
HETATM    4  C2  UNK     1      17.778  -0.529  33.181  1.00  0.00     0.121 C 
HETATM    5  C4  UNK     1      18.385  -1.312  35.509  1.00  0.00     0.043 A 
HETATM    6  C5  UNK     1      17.477  -0.516  34.657  1.00  0.00     0.165 C 
HETATM    7  C6  UNK     1      19.470  -1.968  34.920  1.00  0.00     0.086 A 
HETATM    8  C7  UNK     1      18.138  -1.444  36.878  1.00  0.00     0.021 A 
HETATM    9  C8  UNK     1      20.290  -2.787  35.697  1.00  0.00     0.074 A 
HETATM   10  C11 UNK     1      20.044  -2.922  37.064  1.00  0.00     0.070 A 
HETATM   11  C12 UNK     1      18.973  -2.248  37.653  1.00  0.00     0.038 A 
ENDROOT
BRANCH   3  12
HETATM   12  C3  UNK     1      19.640  -0.699  31.508  1.00  0.00    -0.029 A 
HETATM   13  C10 UNK     1      19.503   0.455  30.738  1.00  0.00     0.010 A 
HETATM   14  C14 UNK     1      19.830   0.431  29.382  1.00  0.00     0.001 A 
HETATM   15  C15 UNK     1      20.293  -0.747  28.797  1.00  0.00     0.000 A 
HETATM   16  C13 UNK     1      20.430  -1.902  29.567  1.00  0.00     0.001 A 
HETATM   17  C9  UNK     1      20.103  -1.878  30.923  1.00  0.00     0.010 A 
ENDBRANCH   3  12
BRANCH  10  18
HETATM   18  O3  UNK     1      20.850  -3.713  37.825  1.00  0.00    -0.356 OA
HETATM   19  C16 UNK     1      20.849  -5.110  37.536  1.00  0.00     0.210 C 
ENDBRANCH  10  18
TORSDOF 2
ENDMDL
