MODEL 1
REMARK VINA RESULT:      -7.7      0.000      0.000
REMARK  6 active torsions:
REMARK  status: ('A' for Active; 'I' for Inactive)
REMARK    1  A    between atoms: C6_10  and  O1_1 
REMARK    2  A    between atoms: C3_7  and  O2_2 
REMARK    3  A    between atoms: C13_17  and  O3_3 
REMARK    4  A    between atoms: C1_5  and  C5_9 
REMARK    5  A    between atoms: C2_6  and  C8_12 
REMARK    6  A    between atoms: C10_14  and  C5_9 
ROOT
HETATM    1  O4  UNK     1      17.571   3.433  31.489  1.00  0.00    -0.287 OA
HETATM    2  C5  UNK     1      18.343   3.053  30.616  1.00  0.00     0.184 C 
ENDROOT
BRANCH   2   3
HETATM    3  C1  UNK     1      18.927   1.691  30.694  1.00  0.00     0.047 A 
HETATM    4  C3  UNK     1      18.838   0.940  31.865  1.00  0.00     0.082 A 
HETATM    5  C7  UNK     1      19.394  -0.338  31.918  1.00  0.00     0.074 A 
HETATM    6  C6  UNK     1      20.039  -0.865  30.799  1.00  0.00     0.070 A 
HETATM    7  C9  UNK     1      20.129  -0.114  29.627  1.00  0.00     0.038 A 
HETATM    8  C4  UNK     1      19.573   1.165  29.574  1.00  0.00     0.021 A 
BRANCH   4   9
HETATM    9  O2  UNK     1      18.210   1.436  32.968  1.00  0.00    -0.360 OA
HETATM   10  H10 UNK     1      17.314   1.736  32.747  1.00  0.00     0.217 HD
ENDBRANCH   4   9
BRANCH   6  11
HETATM   11  O1  UNK     1      20.582  -2.112  30.851  1.00  0.00    -0.356 OA
HETATM   12  C16 UNK     1      20.891  -2.632  32.143  1.00  0.00     0.210 C 
ENDBRANCH   6  11
ENDBRANCH   2   3
BRANCH   2  13
HETATM   13  C10 UNK     1      18.706   3.895  29.442  1.00  0.00     0.056 C 
HETATM   14  C8  UNK     1      19.089   5.179  29.617  1.00  0.00     0.015 C 
BRANCH  14  15
HETATM   15  C2  UNK     1      19.190   5.858  30.898  1.00  0.00    -0.036 A 
HETATM   16  C11 UNK     1      18.099   6.571  31.397  1.00  0.00     0.014 A 
HETATM   17  C14 UNK     1      18.196   7.224  32.626  1.00  0.00     0.037 A 
HETATM   18  C13 UNK     1      19.383   7.163  33.357  1.00  0.00     0.068 A 
HETATM   19  C15 UNK     1      20.473   6.451  32.858  1.00  0.00     0.037 A 
HETATM   20  C12 UNK     1      20.377   5.798  31.629  1.00  0.00     0.014 A 
BRANCH  18  21
HETATM   21  O3  UNK     1      19.476   7.799  34.556  1.00  0.00    -0.356 OA
HETATM   22  C17 UNK     1      20.105   9.080  34.565  1.00  0.00     0.210 C 
ENDBRANCH  18  21
ENDBRANCH  14  15
ENDBRANCH   2  13
TORSDOF 6
ENDMDL
MODEL 2
REMARK VINA RESULT:      -7.5      2.579      4.186
REMARK  6 active torsions:
REMARK  status: ('A' for Active; 'I' for Inactive)
REMARK    1  A    between atoms: C6_10  and  O1_1 
REMARK    2  A    between atoms: C3_7  and  O2_2 
REMARK    3  A    between atoms: C13_17  and  O3_3 
REMARK    4  A    between atoms: C1_5  and  C5_9 
REMARK    5  A    between atoms: C2_6  and  C8_12 
REMARK    6  A    between atoms: C10_14  and  C5_9 
ROOT
HETATM    1  O4  UNK     1      17.860   4.960  34.008  1.00  0.00    -0.287 OA
HETATM    2  C5  UNK     1      18.657   5.157  33.098  1.00  0.00     0.184 C 
ENDROOT
BRANCH   2   3
HETATM    3  C1  UNK     1      18.558   4.362  31.849  1.00  0.00     0.047 A 
HETATM    4  C3  UNK     1      18.115   3.039  31.876  1.00  0.00     0.082 A 
HETATM    5  C7  UNK     1      18.030   2.309  30.691  1.00  0.00     0.074 A 
HETATM    6  C6  UNK     1      18.386   2.901  29.479  1.00  0.00     0.070 A 
HETATM    7  C9  UNK     1      18.828   4.224  29.452  1.00  0.00     0.038 A 
HETATM    8  C4  UNK     1      18.915   4.954  30.637  1.00  0.00     0.021 A 
BRANCH   4   9
HETATM    9  O2  UNK     1      17.761   2.445  33.049  1.00  0.00    -0.360 OA
HETATM   10  H10 UNK     1      17.617   1.494  32.923  1.00  0.00     0.217 HD
ENDBRANCH   4   9
BRANCH   6  11
HETATM   11  O1  UNK     1      18.302   2.188  28.323  1.00  0.00    -0.356 OA
HETATM   12  C16 UNK     1      18.542   0.784  28.408  1.00  0.00     0.210 C 
ENDBRANCH   6  11
ENDBRANCH   2   3
BRANCH   2  13
HETATM   13  C10 UNK     1      19.720   6.197  33.173  1.00  0.00     0.056 C 
HETATM   14  C8  UNK     1      19.391   7.508  33.208  1.00  0.00     0.015 C 
BRANCH  14  15
HETATM   15  C2  UNK     1      18.036   8.034  33.179  1.00  0.00    -0.036 A 
HETATM   16  C11 UNK     1      17.524   8.702  34.292  1.00  0.00     0.014 A 
HETATM   17  C14 UNK     1      16.223   9.205  34.264  1.00  0.00     0.037 A 
HETATM   18  C13 UNK     1      15.435   9.042  33.125  1.00  0.00     0.068 A 
HETATM   19  C15 UNK     1      15.948   8.373  32.013  1.00  0.00     0.037 A 
HETATM   20  C12 UNK     1      17.248   7.869  32.040  1.00  0.00     0.014 A 
BRANCH  18  21
HETATM   21  O3  UNK     1      14.167   9.533  33.098  1.00  0.00    -0.356 OA
HETATM   22  C17 UNK     1      13.823  10.499  34.091  1.00  0.00     0.210 C 
ENDBRANCH  18  21
ENDBRANCH  14  15
ENDBRANCH   2  13
TORSDOF 6
ENDMDL
MODEL 3
REMARK VINA RESULT:      -7.5      9.739     14.165
REMARK  6 active torsions:
REMARK  status: ('A' for Active; 'I' for Inactive)
REMARK    1  A    between atoms: C6_10  and  O1_1 
REMARK    2  A    between atoms: C3_7  and  O2_2 
REMARK    3  A    between atoms: C13_17  and  O3_3 
REMARK    4  A    between atoms: C1_5  and  C5_9 
REMARK    5  A    between atoms: C2_6  and  C8_12 
REMARK    6  A    between atoms: C10_14  and  C5_9 
ROOT
HETATM    1  O4  UNK     1      21.735 -10.398  34.373  1.00  0.00    -0.287 OA
HETATM    2  C5  UNK     1      21.985 -10.609  35.555  1.00  0.00     0.184 C 
ENDROOT
BRANCH   2   3
HETATM    3  C1  UNK     1      23.375 -10.459  36.050  1.00  0.00     0.047 A 
HETATM    4  C3  UNK     1      24.332 -11.444  35.804  1.00  0.00     0.082 A 
HETATM    5  C7  UNK     1      25.634 -11.284  36.279  1.00  0.00     0.074 A 
HETATM    6  C6  UNK     1      25.979 -10.140  36.999  1.00  0.00     0.070 A 
HETATM    7  C9  UNK     1      25.022  -9.156  37.245  1.00  0.00     0.038 A 
HETATM    8  C4  UNK     1      23.719  -9.315  36.771  1.00  0.00     0.021 A 
BRANCH   4   9
HETATM    9  O2  UNK     1      24.015 -12.567  35.101  1.00  0.00    -0.360 OA
HETATM   10  H10 UNK     1      24.470 -12.576  34.245  1.00  0.00     0.217 HD
ENDBRANCH   4   9
BRANCH   6  11
HETATM   11  O1  UNK     1      27.249  -9.985  37.463  1.00  0.00    -0.356 OA
HETATM   12  C16 UNK     1      27.416  -9.879  38.876  1.00  0.00     0.210 C 
ENDBRANCH   6  11
ENDBRANCH   2   3
BRANCH   2  13
HETATM   13  C10 UNK     1      20.935 -10.984  36.543  1.00  0.00     0.056 C 
HETATM   14  C8  UNK     1      20.133 -10.038  37.079  1.00  0.00     0.015 C 
BRANCH  14  15
HETATM   15  C2  UNK     1      20.191  -8.618  36.774  1.00  0.00    -0.036 A 
HETATM   16  C11 UNK     1      20.943  -7.762  37.580  1.00  0.00     0.014 A 
HETATM   17  C14 UNK     1      20.998  -6.399  37.289  1.00  0.00     0.037 A 
HETATM   18  C13 UNK     1      20.303  -5.891  36.191  1.00  0.00     0.068 A 
HETATM   19  C15 UNK     1      19.551  -6.747  35.386  1.00  0.00     0.037 A 
HETATM   20  C12 UNK     1      19.495  -8.110  35.677  1.00  0.00     0.014 A 
BRANCH  18  21
HETATM   21  O3  UNK     1      20.357  -4.562  35.907  1.00  0.00    -0.356 OA
HETATM   22  C17 UNK     1      20.264  -3.658  37.007  1.00  0.00     0.210 C 
ENDBRANCH  18  21
ENDBRANCH  14  15
ENDBRANCH   2  13
TORSDOF 6
ENDMDL
MODEL 4
REMARK VINA RESULT:      -7.5     12.196     13.744
REMARK  6 active torsions:
REMARK  status: ('A' for Active; 'I' for Inactive)
REMARK    1  A    between atoms: C6_10  and  O1_1 
REMARK    2  A    between atoms: C3_7  and  O2_2 
REMARK    3  A    between atoms: C13_17  and  O3_3 
REMARK    4  A    between atoms: C1_5  and  C5_9 
REMARK    5  A    between atoms: C2_6  and  C8_12 
REMARK    6  A    between atoms: C10_14  and  C5_9 
ROOT
HETATM    1  O4  UNK     1      18.803  -7.616  36.175  1.00  0.00    -0.287 OA
HETATM    2  C5  UNK     1      19.265  -8.455  36.940  1.00  0.00     0.184 C 
ENDROOT
BRANCH   2   3
HETATM    3  C1  UNK     1      20.345  -9.360  36.475  1.00  0.00     0.047 A 
HETATM    4  C3  UNK     1      21.178  -8.995  35.418  1.00  0.00     0.082 A 
HETATM    5  C7  UNK     1      22.188  -9.859  34.996  1.00  0.00     0.074 A 
HETATM    6  C6  UNK     1      22.365 -11.089  35.631  1.00  0.00     0.070 A 
HETATM    7  C9  UNK     1      21.531 -11.454  36.688  1.00  0.00     0.038 A 
HETATM    8  C4  UNK     1      20.521 -10.589  37.110  1.00  0.00     0.021 A 
BRANCH   4   9
HETATM    9  O2  UNK     1      21.023  -7.797  34.787  1.00  0.00    -0.360 OA
HETATM   10  H10 UNK     1      20.115  -7.696  34.461  1.00  0.00     0.217 HD
ENDBRANCH   4   9
BRANCH   6  11
HETATM   11  O1  UNK     1      23.350 -11.932  35.218  1.00  0.00    -0.356 OA
HETATM   12  C16 UNK     1      24.599 -11.855  35.903  1.00  0.00     0.210 C 
ENDBRANCH   6  11
ENDBRANCH   2   3
BRANCH   2  13
HETATM   13  C10 UNK     1      18.807  -8.593  38.351  1.00  0.00     0.056 C 
HETATM   14  C8  UNK     1      19.562  -8.112  39.363  1.00  0.00     0.015 C 
BRANCH  14  15
HETATM   15  C2  UNK     1      20.842  -7.440  39.209  1.00  0.00    -0.036 A 
HETATM   16  C11 UNK     1      20.893  -6.153  38.671  1.00  0.00     0.014 A 
HETATM   17  C14 UNK     1      22.121  -5.509  38.522  1.00  0.00     0.037 A 
HETATM   18  C13 UNK     1      23.298  -6.149  38.911  1.00  0.00     0.068 A 
HETATM   19  C15 UNK     1      23.246  -7.435  39.448  1.00  0.00     0.037 A 
HETATM   20  C12 UNK     1      22.019  -8.081  39.598  1.00  0.00     0.014 A 
BRANCH  18  21
HETATM   21  O3  UNK     1      24.495  -5.520  38.766  1.00  0.00    -0.356 OA
HETATM   22  C17 UNK     1      25.667  -6.331  38.820  1.00  0.00     0.210 C 
ENDBRANCH  18  21
ENDBRANCH  14  15
ENDBRANCH   2  13
TORSDOF 6
ENDMDL
MODEL 5
REMARK VINA RESULT:      -7.5     22.272     24.862
REMARK  6 active torsions:
REMARK  status: ('A' for Active; 'I' for Inactive)
REMARK    1  A    between atoms: C6_10  and  O1_1 
REMARK    2  A    between atoms: C3_7  and  O2_2 
REMARK    3  A    between atoms: C13_17  and  O3_3 
REMARK    4  A    between atoms: C1_5  and  C5_9 
REMARK    5  A    between atoms: C2_6  and  C8_12 
REMARK    6  A    between atoms: C10_14  and  C5_9 
ROOT
HETATM    1  O4  UNK     1      14.119   7.910  11.142  1.00  0.00    -0.287 OA
HETATM    2  C5  UNK     1      15.064   7.764  10.376  1.00  0.00     0.184 C 
ENDROOT
BRANCH   2   3
HETATM    3  C1  UNK     1      15.591   8.931   9.627  1.00  0.00     0.047 A 
HETATM    4  C3  UNK     1      14.757   9.688   8.802  1.00  0.00     0.082 A 
HETATM    5  C7  UNK     1      15.272  10.781   8.106  1.00  0.00     0.074 A 
HETATM    6  C6  UNK     1      16.619  11.119   8.234  1.00  0.00     0.070 A 
HETATM    7  C9  UNK     1      17.453  10.362   9.059  1.00  0.00     0.038 A 
HETATM    8  C4  UNK     1      16.939   9.268   9.755  1.00  0.00     0.021 A 
BRANCH   4   9
HETATM    9  O2  UNK     1      13.438   9.375   8.666  1.00  0.00    -0.360 OA
HETATM   10  H10 UNK     1      13.036   9.197   9.531  1.00  0.00     0.217 HD
ENDBRANCH   4   9
BRANCH   6  11
HETATM   11  O1  UNK     1      17.121  12.186   7.555  1.00  0.00    -0.356 OA
HETATM   12  C16 UNK     1      18.476  12.096   7.115  1.00  0.00     0.210 C 
ENDBRANCH   6  11
ENDBRANCH   2   3
BRANCH   2  13
HETATM   13  C10 UNK     1      15.743   6.453  10.179  1.00  0.00     0.056 C 
HETATM   14  C8  UNK     1      15.130   5.463   9.492  1.00  0.00     0.015 C 
BRANCH  14  15
HETATM   15  C2  UNK     1      13.808   5.552   8.893  1.00  0.00    -0.036 A 
HETATM   16  C11 UNK     1      13.656   6.088   7.614  1.00  0.00     0.014 A 
HETATM   17  C14 UNK     1      12.388   6.174   7.040  1.00  0.00     0.037 A 
HETATM   18  C13 UNK     1      11.271   5.724   7.745  1.00  0.00     0.068 A 
HETATM   19  C15 UNK     1      11.423   5.189   9.023  1.00  0.00     0.037 A 
HETATM   20  C12 UNK     1      12.691   5.102   9.598  1.00  0.00     0.014 A 
BRANCH  18  21
HETATM   21  O3  UNK     1      10.034   5.808   7.184  1.00  0.00    -0.356 OA
HETATM   22  C17 UNK     1       9.969   6.151   5.801  1.00  0.00     0.210 C 
ENDBRANCH  18  21
ENDBRANCH  14  15
ENDBRANCH   2  13
TORSDOF 6
ENDMDL
MODEL 6
REMARK VINA RESULT:      -7.5     11.464     13.388
REMARK  6 active torsions:
REMARK  status: ('A' for Active; 'I' for Inactive)
REMARK    1  A    between atoms: C6_10  and  O1_1 
REMARK    2  A    between atoms: C3_7  and  O2_2 
REMARK    3  A    between atoms: C13_17  and  O3_3 
REMARK    4  A    between atoms: C1_5  and  C5_9 
REMARK    5  A    between atoms: C2_6  and  C8_12 
REMARK    6  A    between atoms: C10_14  and  C5_9 
ROOT
HETATM    1  O4  UNK     1      21.129  -7.888  39.878  1.00  0.00    -0.287 OA
HETATM    2  C5  UNK     1      21.719  -7.597  38.844  1.00  0.00     0.184 C 
ENDROOT
BRANCH   2   3
HETATM    3  C1  UNK     1      22.106  -8.667  37.891  1.00  0.00     0.047 A 
HETATM    4  C3  UNK     1      21.187  -9.638  37.494  1.00  0.00     0.082 A 
HETATM    5  C7  UNK     1      21.571 -10.635  36.598  1.00  0.00     0.074 A 
HETATM    6  C6  UNK     1      22.873 -10.661  36.098  1.00  0.00     0.070 A 
HETATM    7  C9  UNK     1      23.792  -9.690  36.496  1.00  0.00     0.038 A 
HETATM    8  C4  UNK     1      23.409  -8.692  37.392  1.00  0.00     0.021 A 
BRANCH   4   9
HETATM    9  O2  UNK     1      19.910  -9.628  37.969  1.00  0.00    -0.360 OA
HETATM   10  H10 UNK     1      19.468 -10.472  37.786  1.00  0.00     0.217 HD
ENDBRANCH   4   9
BRANCH   6  11
HETATM   11  O1  UNK     1      23.247 -11.635  35.224  1.00  0.00    -0.356 OA
HETATM   12  C16 UNK     1      24.280 -12.524  35.646  1.00  0.00     0.210 C 
ENDBRANCH   6  11
ENDBRANCH   2   3
BRANCH   2  13
HETATM   13  C10 UNK     1      22.044  -6.191  38.475  1.00  0.00     0.056 C 
HETATM   14  C8  UNK     1      21.302  -5.539  37.552  1.00  0.00     0.015 C 
BRANCH  14  15
HETATM   15  C2  UNK     1      20.160  -6.097  36.847  1.00  0.00    -0.036 A 
HETATM   16  C11 UNK     1      18.911  -6.142  37.469  1.00  0.00     0.014 A 
HETATM   17  C14 UNK     1      17.816  -6.678  36.793  1.00  0.00     0.037 A 
HETATM   18  C13 UNK     1      17.967  -7.168  35.495  1.00  0.00     0.068 A 
HETATM   19  C15 UNK     1      19.215  -7.123  34.875  1.00  0.00     0.037 A 
HETATM   20  C12 UNK     1      20.312  -6.587  35.550  1.00  0.00     0.014 A 
BRANCH  18  21
HETATM   21  O3  UNK     1      16.898  -7.691  34.837  1.00  0.00    -0.356 OA
HETATM   22  C17 UNK     1      15.647  -7.023  34.995  1.00  0.00     0.210 C 
ENDBRANCH  18  21
ENDBRANCH  14  15
ENDBRANCH   2  13
TORSDOF 6
ENDMDL
MODEL 7
REMARK VINA RESULT:      -7.5     22.313     24.430
REMARK  6 active torsions:
REMARK  status: ('A' for Active; 'I' for Inactive)
REMARK    1  A    between atoms: C6_10  and  O1_1 
REMARK    2  A    between atoms: C3_7  and  O2_2 
REMARK    3  A    between atoms: C13_17  and  O3_3 
REMARK    4  A    between atoms: C1_5  and  C5_9 
REMARK    5  A    between atoms: C2_6  and  C8_12 
REMARK    6  A    between atoms: C10_14  and  C5_9 
ROOT
HETATM    1  O4  UNK     1      14.157   6.537   7.182  1.00  0.00    -0.287 OA
HETATM    2  C5  UNK     1      13.397   5.913   7.913  1.00  0.00     0.184 C 
ENDROOT
BRANCH   2   3
HETATM    3  C1  UNK     1      11.933   6.129   7.808  1.00  0.00     0.047 A 
HETATM    4  C3  UNK     1      11.314   6.245   6.563  1.00  0.00     0.082 A 
HETATM    5  C7  UNK     1       9.937   6.448   6.486  1.00  0.00     0.074 A 
HETATM    6  C6  UNK     1       9.177   6.534   7.653  1.00  0.00     0.070 A 
HETATM    7  C9  UNK     1       9.796   6.417   8.898  1.00  0.00     0.038 A 
HETATM    8  C4  UNK     1      11.174   6.215   8.976  1.00  0.00     0.021 A 
BRANCH   4   9
HETATM    9  O2  UNK     1      12.039   6.162   5.412  1.00  0.00    -0.360 OA
HETATM   10  H10 UNK     1      12.968   6.386   5.574  1.00  0.00     0.217 HD
ENDBRANCH   4   9
BRANCH   6  11
HETATM   11  O1  UNK     1       7.833   6.733   7.577  1.00  0.00    -0.356 OA
HETATM   12  C16 UNK     1       7.200   7.325   8.710  1.00  0.00     0.210 C 
ENDBRANCH   6  11
ENDBRANCH   2   3
BRANCH   2  13
HETATM   13  C10 UNK     1      13.878   4.905   8.898  1.00  0.00     0.056 C 
HETATM   14  C8  UNK     1      14.723   5.268   9.889  1.00  0.00     0.015 C 
BRANCH  14  15
HETATM   15  C2  UNK     1      15.237   6.611  10.102  1.00  0.00    -0.036 A 
HETATM   16  C11 UNK     1      16.590   6.882   9.893  1.00  0.00     0.014 A 
HETATM   17  C14 UNK     1      17.083   8.170  10.099  1.00  0.00     0.037 A 
HETATM   18  C13 UNK     1      16.223   9.188  10.514  1.00  0.00     0.068 A 
HETATM   19  C15 UNK     1      14.872   8.917  10.724  1.00  0.00     0.037 A 
HETATM   20  C12 UNK     1      14.378   7.629  10.518  1.00  0.00     0.014 A 
BRANCH  18  21
HETATM   21  O3  UNK     1      16.705  10.445  10.714  1.00  0.00    -0.356 OA
HETATM   22  C17 UNK     1      17.766  10.878   9.865  1.00  0.00     0.210 C 
ENDBRANCH  18  21
ENDBRANCH  14  15
ENDBRANCH   2  13
TORSDOF 6
ENDMDL
MODEL 8
REMARK VINA RESULT:      -7.4     22.025     24.011
REMARK  6 active torsions:
REMARK  status: ('A' for Active; 'I' for Inactive)
REMARK    1  A    between atoms: C6_10  and  O1_1 
REMARK    2  A    between atoms: C3_7  and  O2_2 
REMARK    3  A    between atoms: C13_17  and  O3_3 
REMARK    4  A    between atoms: C1_5  and  C5_9 
REMARK    5  A    between atoms: C2_6  and  C8_12 
REMARK    6  A    between atoms: C10_14  and  C5_9 
ROOT
HETATM    1  O4  UNK     1      16.918   6.713   9.715  1.00  0.00    -0.287 OA
HETATM    2  C5  UNK     1      15.784   7.016  10.069  1.00  0.00     0.184 C 
ENDROOT
BRANCH   2   3
HETATM    3  C1  UNK     1      14.618   6.564   9.272  1.00  0.00     0.047 A 
HETATM    4  C3  UNK     1      14.198   5.234   9.310  1.00  0.00     0.082 A 
HETATM    5  C7  UNK     1      13.099   4.828   8.553  1.00  0.00     0.074 A 
HETATM    6  C6  UNK     1      12.419   5.752   7.759  1.00  0.00     0.070 A 
HETATM    7  C9  UNK     1      12.839   7.082   7.721  1.00  0.00     0.038 A 
HETATM    8  C4  UNK     1      13.939   7.488   8.478  1.00  0.00     0.021 A 
BRANCH   4   9
HETATM    9  O2  UNK     1      14.848   4.318  10.081  1.00  0.00    -0.360 OA
HETATM   10  H10 UNK     1      14.885   4.610  11.005  1.00  0.00     0.217 HD
ENDBRANCH   4   9
BRANCH   6  11
HETATM   11  O1  UNK     1      11.347   5.356   7.020  1.00  0.00    -0.356 OA
HETATM   12  C16 UNK     1      10.853   6.277   6.049  1.00  0.00     0.210 C 
ENDBRANCH   6  11
ENDBRANCH   2   3
BRANCH   2  13
HETATM   13  C10 UNK     1      15.514   7.807  11.303  1.00  0.00     0.056 C 
HETATM   14  C8  UNK     1      15.659   9.150  11.297  1.00  0.00     0.015 C 
BRANCH  14  15
HETATM   15  C2  UNK     1      16.072   9.945  10.152  1.00  0.00    -0.036 A 
HETATM   16  C11 UNK     1      15.111  10.547   9.339  1.00  0.00     0.014 A 
HETATM   17  C14 UNK     1      15.508  11.309   8.239  1.00  0.00     0.037 A 
HETATM   18  C13 UNK     1      16.864  11.469   7.954  1.00  0.00     0.068 A 
HETATM   19  C15 UNK     1      17.823  10.866   8.767  1.00  0.00     0.037 A 
HETATM   20  C12 UNK     1      17.428  10.105   9.866  1.00  0.00     0.014 A 
BRANCH  18  21
HETATM   21  O3  UNK     1      17.250  12.212   6.882  1.00  0.00    -0.356 OA
HETATM   22  C17 UNK     1      18.645  12.251   6.586  1.00  0.00     0.210 C 
ENDBRANCH  18  21
ENDBRANCH  14  15
ENDBRANCH   2  13
TORSDOF 6
ENDMDL
MODEL 9
REMARK VINA RESULT:      -7.3     22.768     24.946
REMARK  6 active torsions:
REMARK  status: ('A' for Active; 'I' for Inactive)
REMARK    1  A    between atoms: C6_10  and  O1_1 
REMARK    2  A    between atoms: C3_7  and  O2_2 
REMARK    3  A    between atoms: C13_17  and  O3_3 
REMARK    4  A    between atoms: C1_5  and  C5_9 
REMARK    5  A    between atoms: C2_6  and  C8_12 
REMARK    6  A    between atoms: C10_14  and  C5_9 
ROOT
HETATM    1  O4  UNK     1       9.608   7.660   9.261  1.00  0.00    -0.287 OA
HETATM    2  C5  UNK     1       8.863   6.815   8.779  1.00  0.00     0.184 C 
ENDROOT
BRANCH   2   3
HETATM    3  C1  UNK     1       8.008   5.993   9.670  1.00  0.00     0.047 A 
HETATM    4  C3  UNK     1       7.365   6.562  10.770  1.00  0.00     0.082 A 
HETATM    5  C7  UNK     1       6.566   5.772  11.596  1.00  0.00     0.074 A 
HETATM    6  C6  UNK     1       6.410   4.413  11.323  1.00  0.00     0.070 A 
HETATM    7  C9  UNK     1       7.053   3.844  10.223  1.00  0.00     0.038 A 
HETATM    8  C4  UNK     1       7.852   4.634   9.397  1.00  0.00     0.021 A 
BRANCH   4   9
HETATM    9  O2  UNK     1       7.504   7.888  11.052  1.00  0.00    -0.360 OA
HETATM   10  H10 UNK     1       6.900   8.154  11.762  1.00  0.00     0.217 HD
ENDBRANCH   4   9
BRANCH   6  11
HETATM   11  O1  UNK     1       5.630   3.642  12.129  1.00  0.00    -0.356 OA
HETATM   12  C16 UNK     1       5.287   2.343  11.650  1.00  0.00     0.210 C 
ENDBRANCH   6  11
ENDBRANCH   2   3
BRANCH   2  13
HETATM   13  C10 UNK     1       8.748   6.591   7.311  1.00  0.00     0.056 C 
HETATM   14  C8  UNK     1       9.833   6.236   6.588  1.00  0.00     0.015 C 
BRANCH  14  15
HETATM   15  C2  UNK     1      11.171   6.042   7.123  1.00  0.00    -0.036 A 
HETATM   16  C11 UNK     1      12.194   6.926   6.782  1.00  0.00     0.014 A 
HETATM   17  C14 UNK     1      13.478   6.738   7.295  1.00  0.00     0.037 A 
HETATM   18  C13 UNK     1      13.738   5.667   8.150  1.00  0.00     0.068 A 
HETATM   19  C15 UNK     1      12.715   4.782   8.490  1.00  0.00     0.037 A 
HETATM   20  C12 UNK     1      11.431   4.970   7.977  1.00  0.00     0.014 A 
BRANCH  18  21
HETATM   21  O3  UNK     1      14.990   5.485   8.650  1.00  0.00    -0.356 OA
HETATM   22  C17 UNK     1      15.103   4.753   9.869  1.00  0.00     0.210 C 
ENDBRANCH  18  21
ENDBRANCH  14  15
ENDBRANCH   2  13
TORSDOF 6
ENDMDL
MODEL 10
REMARK VINA RESULT:      -7.3     22.455     24.680
REMARK  6 active torsions:
REMARK  status: ('A' for Active; 'I' for Inactive)
REMARK    1  A    between atoms: C6_10  and  O1_1 
REMARK    2  A    between atoms: C3_7  and  O2_2 
REMARK    3  A    between atoms: C13_17  and  O3_3 
REMARK    4  A    between atoms: C1_5  and  C5_9 
REMARK    5  A    between atoms: C2_6  and  C8_12 
REMARK    6  A    between atoms: C10_14  and  C5_9 
ROOT
HETATM    1  O4  UNK     1      11.983   4.414   8.284  1.00  0.00    -0.287 OA
HETATM    2  C5  UNK     1      12.429   5.453   7.811  1.00  0.00     0.184 C 
ENDROOT
BRANCH   2   3
HETATM    3  C1  UNK     1      13.474   6.207   8.547  1.00  0.00     0.047 A 
HETATM    4  C3  UNK     1      14.346   5.556   9.419  1.00  0.00     0.082 A 
HETATM    5  C7  UNK     1      15.322   6.283  10.101  1.00  0.00     0.074 A 
HETATM    6  C6  UNK     1      15.425   7.661   9.912  1.00  0.00     0.070 A 
HETATM    7  C9  UNK     1      14.552   8.313   9.040  1.00  0.00     0.038 A 
HETATM    8  C4  UNK     1      13.576   7.586   8.357  1.00  0.00     0.021 A 
BRANCH   4   9
HETATM    9  O2  UNK     1      14.262   4.210   9.615  1.00  0.00    -0.360 OA
HETATM   10  H10 UNK     1      13.566   3.999  10.257  1.00  0.00     0.217 HD
ENDBRANCH   4   9
BRANCH   6  11
HETATM   11  O1  UNK     1      16.377   8.370  10.578  1.00  0.00    -0.356 OA
HETATM   12  C16 UNK     1      17.037   9.408   9.855  1.00  0.00     0.210 C 
ENDBRANCH   6  11
ENDBRANCH   2   3
BRANCH   2  13
HETATM   13  C10 UNK     1      11.987   5.990   6.494  1.00  0.00     0.056 C 
HETATM   14  C8  UNK     1      10.760   6.539   6.358  1.00  0.00     0.015 C 
BRANCH  14  15
HETATM   15  C2  UNK     1       9.775   6.666   7.420  1.00  0.00    -0.036 A 
HETATM   16  C11 UNK     1       8.696   5.783   7.480  1.00  0.00     0.014 A 
HETATM   17  C14 UNK     1       7.751   5.905   8.499  1.00  0.00     0.037 A 
HETATM   18  C13 UNK     1       7.885   6.910   9.458  1.00  0.00     0.068 A 
HETATM   19  C15 UNK     1       8.962   7.793   9.397  1.00  0.00     0.037 A 
HETATM   20  C12 UNK     1       9.908   7.671   8.379  1.00  0.00     0.014 A 
BRANCH  18  21
HETATM   21  O3  UNK     1       6.963   7.029  10.451  1.00  0.00    -0.356 OA
HETATM   22  C17 UNK     1       6.799   5.911  11.323  1.00  0.00     0.210 C 
ENDBRANCH  18  21
ENDBRANCH  14  15
ENDBRANCH   2  13
TORSDOF 6
ENDMDL
