MODEL 1
REMARK VINA RESULT:      -9.4      0.000      0.000
REMARK  7 active torsions:
REMARK  status: ('A' for Active; 'I' for Inactive)
REMARK    1  A    between atoms: C14_24  and  O1_5 
REMARK    2  A    between atoms: C6_16  and  O1_5 
REMARK    3  A    between atoms: C3_13  and  N1_10 
REMARK       I    between atoms: C9_19  and  N1_10 
REMARK    4  A    between atoms: C1_11  and  C4_14 
REMARK    5  A    between atoms: C2_12  and  C6_16 
REMARK    6  A    between atoms: C7_17  and  C9_19 
REMARK    7  A    between atoms: C14_24  and  C15_25 
ROOT
HETATM    1  S1  UNK     1      17.868  -0.609  37.037  1.00  0.00    -0.082 SA
HETATM    2  C1  UNK     1      19.394  -2.664  36.817  1.00  0.00     0.001 A 
HETATM    3  C2  UNK     1      19.695  -1.828  35.703  1.00  0.00     0.085 A 
HETATM    4  C3  UNK     1      18.936  -0.701  35.719  1.00  0.00     0.094 A 
HETATM    5  C5  UNK     1      18.418  -2.122  37.623  1.00  0.00     0.065 A 
ENDROOT
BRANCH   4   6
HETATM    6  N1  UNK     1      18.900   0.380  34.833  1.00  0.00    -0.316 N 
HETATM    7  C9  UNK     1      17.769   0.889  34.210  1.00  0.00     0.262 C 
HETATM    8  O4  UNK     1      16.603   0.507  34.304  1.00  0.00    -0.267 OA
HETATM    9  H2  UNK     1      19.808   0.793  34.639  1.00  0.00     0.169 HD
BRANCH   7  10
HETATM   10  C7  UNK     1      18.088   2.028  33.341  1.00  0.00     0.108 A 
HETATM   11  C12 UNK     1      18.020   3.239  33.904  1.00  0.00     0.037 A 
HETATM   12  C8  UNK     1      18.319   4.429  33.122  1.00  0.00     0.001 A 
HETATM   13  C13 UNK     1      18.676   4.284  31.786  1.00  0.00     0.089 A 
HETATM   14  C17 UNK     1      18.259   5.714  33.668  1.00  0.00     0.038 A 
HETATM   15  O2  UNK     1      18.748   3.005  31.199  1.00  0.00    -0.274 OA
HETATM   16  C20 UNK     1      18.975   5.383  30.982  1.00  0.00     0.040 A 
HETATM   17  C16 UNK     1      18.467   1.849  31.920  1.00  0.00     0.304 A 
HETATM   18  O5  UNK     1      18.532   0.741  31.401  1.00  0.00    -0.259 OA
HETATM   19  C23 UNK     1      18.913   6.660  31.535  1.00  0.00     0.026 A 
HETATM   20  C22 UNK     1      18.556   6.826  32.875  1.00  0.00     0.035 A 
HETATM   21 Cl3  UNK     1      18.481   8.407  33.552  1.00  0.00    -0.084 Cl
ENDBRANCH   7  10
ENDBRANCH   4   6
BRANCH   3  22
HETATM   22  C6  UNK     1      20.668  -2.113  34.678  1.00  0.00     0.297 C 
HETATM   23  O3  UNK     1      21.897  -2.136  34.831  1.00  0.00    -0.259 OA
BRANCH  22  24
HETATM   24  O1  UNK     1      20.069  -2.367  33.467  1.00  0.00    -0.317 OA
BRANCH  24  25
HETATM   25  C14 UNK     1      20.852  -2.114  32.294  1.00  0.00     0.178 C 
BRANCH  25  26
HETATM   26  C15 UNK     1      20.011  -2.424  31.065  1.00  0.00     0.022 C 
HETATM   27  C24 UNK     1      20.513  -1.686  29.836  1.00  0.00     0.007 C 
ENDBRANCH  25  26
ENDBRANCH  24  25
ENDBRANCH  22  24
ENDBRANCH   3  22
BRANCH   2  28
HETATM   28  C4  UNK     1      19.984  -3.936  37.148  1.00  0.00    -0.003 A 
HETATM   29  C10 UNK     1      19.298  -5.136  36.961  1.00  0.00     0.046 A 
HETATM   30 Cl1  UNK     1      17.691  -5.184  36.321  1.00  0.00    -0.083 Cl
HETATM   31  C18 UNK     1      19.906  -6.345  37.294  1.00  0.00     0.048 A 
HETATM   32  C21 UNK     1      21.201  -6.355  37.815  1.00  0.00     0.035 A 
HETATM   33  C19 UNK     1      21.886  -5.155  38.000  1.00  0.00     0.025 A 
HETATM   34 Cl2  UNK     1      21.953  -7.848  38.226  1.00  0.00    -0.084 Cl
HETATM   35  C11 UNK     1      21.278  -3.946  37.667  1.00  0.00     0.016 A 
ENDBRANCH   2  28
TORSDOF 7
ENDMDL
MODEL 2
REMARK VINA RESULT:      -9.2      3.445      9.934
REMARK  7 active torsions:
REMARK  status: ('A' for Active; 'I' for Inactive)
REMARK    1  A    between atoms: C14_24  and  O1_5 
REMARK    2  A    between atoms: C6_16  and  O1_5 
REMARK    3  A    between atoms: C3_13  and  N1_10 
REMARK       I    between atoms: C9_19  and  N1_10 
REMARK    4  A    between atoms: C1_11  and  C4_14 
REMARK    5  A    between atoms: C2_12  and  C6_16 
REMARK    6  A    between atoms: C7_17  and  C9_19 
REMARK    7  A    between atoms: C14_24  and  C15_25 
ROOT
HETATM    1  S1  UNK     1      19.011   5.109  29.543  1.00  0.00    -0.082 SA
HETATM    2  C1  UNK     1      18.108   6.376  31.586  1.00  0.00     0.001 A 
HETATM    3  C2  UNK     1      18.327   5.036  32.018  1.00  0.00     0.085 A 
HETATM    4  C3  UNK     1      18.809   4.269  31.006  1.00  0.00     0.094 A 
HETATM    5  C5  UNK     1      18.438   6.554  30.262  1.00  0.00     0.065 A 
ENDROOT
BRANCH   4   6
HETATM    6  N1  UNK     1      19.160   2.916  30.982  1.00  0.00    -0.316 N 
HETATM    7  C9  UNK     1      18.521   1.918  30.259  1.00  0.00     0.262 C 
HETATM    8  O4  UNK     1      17.546   2.014  29.515  1.00  0.00    -0.267 OA
HETATM    9  H2  UNK     1      19.950   2.678  31.575  1.00  0.00     0.169 HD
BRANCH   7  10
HETATM   10  C7  UNK     1      19.149   0.607  30.463  1.00  0.00     0.108 A 
HETATM   11  C12 UNK     1      19.152   0.141  31.717  1.00  0.00     0.037 A 
HETATM   12  C8  UNK     1      19.752  -1.150  32.018  1.00  0.00     0.001 A 
HETATM   13  C13 UNK     1      20.319  -1.887  30.983  1.00  0.00     0.089 A 
HETATM   14  C17 UNK     1      19.779  -1.675  33.312  1.00  0.00     0.038 A 
HETATM   15  O2  UNK     1      20.311  -1.391  29.664  1.00  0.00    -0.274 OA
HETATM   16  C20 UNK     1      20.909  -3.129  31.204  1.00  0.00     0.040 A 
HETATM   17  C16 UNK     1      19.746  -0.160  29.345  1.00  0.00     0.304 A 
HETATM   18  O5  UNK     1      19.744   0.264  28.195  1.00  0.00    -0.259 OA
HETATM   19  C23 UNK     1      20.931  -3.645  32.498  1.00  0.00     0.026 A 
HETATM   20  C22 UNK     1      20.368  -2.921  33.550  1.00  0.00     0.035 A 
HETATM   21 Cl3  UNK     1      20.398  -3.564  35.146  1.00  0.00    -0.084 Cl
ENDBRANCH   7  10
ENDBRANCH   4   6
BRANCH   3  22
HETATM   22  C6  UNK     1      18.079   4.531  33.346  1.00  0.00     0.297 C 
HETATM   23  O3  UNK     1      17.982   5.212  34.375  1.00  0.00    -0.259 OA
BRANCH  22  24
HETATM   24  O1  UNK     1      17.954   3.161  33.352  1.00  0.00    -0.317 OA
BRANCH  24  25
HETATM   25  C14 UNK     1      18.365   2.481  34.544  1.00  0.00     0.178 C 
BRANCH  25  26
HETATM   26  C15 UNK     1      17.570   1.191  34.673  1.00  0.00     0.022 C 
HETATM   27  C24 UNK     1      17.991   0.388  35.891  1.00  0.00     0.007 C 
ENDBRANCH  25  26
ENDBRANCH  24  25
ENDBRANCH  22  24
ENDBRANCH   3  22
BRANCH   2  28
HETATM   28  C4  UNK     1      17.607   7.481  32.364  1.00  0.00    -0.003 A 
HETATM   29  C10 UNK     1      18.412   8.168  33.271  1.00  0.00     0.046 A 
HETATM   30 Cl1  UNK     1      20.070   7.745  33.529  1.00  0.00    -0.083 Cl
HETATM   31  C18 UNK     1      17.886   9.232  34.003  1.00  0.00     0.048 A 
HETATM   32  C21 UNK     1      16.555   9.608  33.829  1.00  0.00     0.035 A 
HETATM   33  C19 UNK     1      15.750   8.921  32.921  1.00  0.00     0.025 A 
HETATM   34 Cl2  UNK     1      15.904  10.921  34.732  1.00  0.00    -0.084 Cl
HETATM   35  C11 UNK     1      16.275   7.857  32.188  1.00  0.00     0.016 A 
ENDBRANCH   2  28
TORSDOF 7
ENDMDL
MODEL 3
REMARK VINA RESULT:      -9.1      7.548     11.195
REMARK  7 active torsions:
REMARK  status: ('A' for Active; 'I' for Inactive)
REMARK    1  A    between atoms: C14_24  and  O1_5 
REMARK    2  A    between atoms: C6_16  and  O1_5 
REMARK    3  A    between atoms: C3_13  and  N1_10 
REMARK       I    between atoms: C9_19  and  N1_10 
REMARK    4  A    between atoms: C1_11  and  C4_14 
REMARK    5  A    between atoms: C2_12  and  C6_16 
REMARK    6  A    between atoms: C7_17  and  C9_19 
REMARK    7  A    between atoms: C14_24  and  C15_25 
ROOT
HETATM    1  S1  UNK     1      19.786   8.509  34.317  1.00  0.00    -0.082 SA
HETATM    2  C1  UNK     1      18.819   6.839  32.622  1.00  0.00     0.001 A 
HETATM    3  C2  UNK     1      17.828   7.849  32.791  1.00  0.00     0.085 A 
HETATM    4  C3  UNK     1      18.239   8.794  33.676  1.00  0.00     0.094 A 
HETATM    5  C5  UNK     1      19.935   7.074  33.393  1.00  0.00     0.065 A 
ENDROOT
BRANCH   4   6
HETATM    6  N1  UNK     1      17.595   9.947  34.135  1.00  0.00    -0.316 N 
HETATM    7  C9  UNK     1      18.008  11.255  33.921  1.00  0.00     0.262 C 
HETATM    8  O4  UNK     1      18.993  11.657  33.304  1.00  0.00    -0.267 OA
HETATM    9  H2  UNK     1      16.761   9.768  34.689  1.00  0.00     0.169 HD
BRANCH   7  10
HETATM   10  C7  UNK     1      17.099  12.224  34.544  1.00  0.00     0.108 A 
HETATM   11  C12 UNK     1      16.004  11.721  35.125  1.00  0.00     0.037 A 
HETATM   12  C8  UNK     1      15.044  12.604  35.769  1.00  0.00     0.001 A 
HETATM   13  C13 UNK     1      15.285  13.974  35.770  1.00  0.00     0.089 A 
HETATM   14  C17 UNK     1      13.887  12.123  36.387  1.00  0.00     0.038 A 
HETATM   15  O2  UNK     1      16.441  14.498  35.158  1.00  0.00    -0.274 OA
HETATM   16  C20 UNK     1      14.405  14.874  36.369  1.00  0.00     0.040 A 
HETATM   17  C16 UNK     1      17.377  13.679  34.533  1.00  0.00     0.304 A 
HETATM   18  O5  UNK     1      18.379  14.144  34.003  1.00  0.00    -0.259 OA
HETATM   19  C23 UNK     1      13.254  14.385  36.983  1.00  0.00     0.026 A 
HETATM   20  C22 UNK     1      12.995  13.013  36.992  1.00  0.00     0.035 A 
HETATM   21 Cl3  UNK     1      11.571  12.415  37.753  1.00  0.00    -0.084 Cl
ENDBRANCH   7  10
ENDBRANCH   4   6
BRANCH   3  22
HETATM   22  C6  UNK     1      16.549   7.890  32.125  1.00  0.00     0.297 C 
HETATM   23  O3  UNK     1      16.297   8.496  31.075  1.00  0.00    -0.259 OA
BRANCH  22  24
HETATM   24  O1  UNK     1      15.601   7.159  32.803  1.00  0.00    -0.317 OA
BRANCH  24  25
HETATM   25  C14 UNK     1      14.265   7.676  32.802  1.00  0.00     0.178 C 
BRANCH  25  26
HETATM   26  C15 UNK     1      14.174   8.805  33.818  1.00  0.00     0.022 C 
HETATM   27  C24 UNK     1      13.737  10.109  33.175  1.00  0.00     0.007 C 
ENDBRANCH  25  26
ENDBRANCH  24  25
ENDBRANCH  22  24
ENDBRANCH   3  22
BRANCH   2  28
HETATM   28  C4  UNK     1      18.756   5.677  31.773  1.00  0.00    -0.003 A 
HETATM   29  C10 UNK     1      18.407   4.421  32.268  1.00  0.00     0.046 A 
HETATM   30 Cl1  UNK     1      18.026   4.167  33.936  1.00  0.00    -0.083 Cl
HETATM   31  C18 UNK     1      18.358   3.323  31.411  1.00  0.00     0.048 A 
HETATM   32  C21 UNK     1      18.658   3.480  30.057  1.00  0.00     0.035 A 
HETATM   33  C19 UNK     1      19.006   4.736  29.562  1.00  0.00     0.025 A 
HETATM   34 Cl2  UNK     1      18.598   2.125  28.998  1.00  0.00    -0.084 Cl
HETATM   35  C11 UNK     1      19.055   5.835  30.420  1.00  0.00     0.016 A 
ENDBRANCH   2  28
TORSDOF 7
ENDMDL
MODEL 4
REMARK VINA RESULT:      -9.1     17.070     20.414
REMARK  7 active torsions:
REMARK  status: ('A' for Active; 'I' for Inactive)
REMARK    1  A    between atoms: C14_24  and  O1_5 
REMARK    2  A    between atoms: C6_16  and  O1_5 
REMARK    3  A    between atoms: C3_13  and  N1_10 
REMARK       I    between atoms: C9_19  and  N1_10 
REMARK    4  A    between atoms: C1_11  and  C4_14 
REMARK    5  A    between atoms: C2_12  and  C6_16 
REMARK    6  A    between atoms: C7_17  and  C9_19 
REMARK    7  A    between atoms: C14_24  and  C15_25 
ROOT
HETATM    1  S1  UNK     1      19.519  -4.062  11.496  1.00  0.00    -0.082 SA
HETATM    2  C1  UNK     1      20.311  -6.312  12.452  1.00  0.00     0.001 A 
HETATM    3  C2  UNK     1      20.310  -5.397  13.544  1.00  0.00     0.085 A 
HETATM    4  C3  UNK     1      19.904  -4.162  13.148  1.00  0.00     0.094 A 
HETATM    5  C5  UNK     1      19.902  -5.718  11.279  1.00  0.00     0.065 A 
ENDROOT
BRANCH   4   6
HETATM    6  N1  UNK     1      19.756  -2.979  13.878  1.00  0.00    -0.316 N 
HETATM    7  C9  UNK     1      18.820  -2.745  14.876  1.00  0.00     0.262 C 
HETATM    8  O4  UNK     1      17.955  -3.505  15.310  1.00  0.00    -0.267 OA
HETATM    9  H2  UNK     1      20.400  -2.240  13.611  1.00  0.00     0.169 HD
BRANCH   7  10
HETATM   10  C7  UNK     1      18.942  -1.394  15.435  1.00  0.00     0.108 A 
HETATM   11  C12 UNK     1      18.862  -1.294  16.767  1.00  0.00     0.037 A 
HETATM   12  C8  UNK     1      18.972   0.004  17.413  1.00  0.00     0.001 A 
HETATM   13  C13 UNK     1      19.161   1.135  16.625  1.00  0.00     0.089 A 
HETATM   14  C17 UNK     1      18.892   0.156  18.800  1.00  0.00     0.038 A 
HETATM   15  O2  UNK     1      19.246   1.023  15.222  1.00  0.00    -0.274 OA
HETATM   16  C20 UNK     1      19.273   2.408  17.181  1.00  0.00     0.040 A 
HETATM   17  C16 UNK     1      19.144  -0.205  14.575  1.00  0.00     0.304 A 
HETATM   18  O5  UNK     1      19.218  -0.292  13.355  1.00  0.00    -0.259 OA
HETATM   19  C23 UNK     1      19.193   2.548  18.565  1.00  0.00     0.026 A 
HETATM   20  C22 UNK     1      19.004   1.426  19.372  1.00  0.00     0.035 A 
HETATM   21 Cl3  UNK     1      18.907   1.607  21.082  1.00  0.00    -0.084 Cl
ENDBRANCH   7  10
ENDBRANCH   4   6
BRANCH   3  22
HETATM   22  C6  UNK     1      20.685  -5.709  14.902  1.00  0.00     0.297 C 
HETATM   23  O3  UNK     1      19.938  -6.178  15.771  1.00  0.00    -0.259 OA
BRANCH  22  24
HETATM   24  O1  UNK     1      22.009  -5.423  15.140  1.00  0.00    -0.317 OA
BRANCH  24  25
HETATM   25  C14 UNK     1      22.369  -5.113  16.492  1.00  0.00     0.178 C 
BRANCH  25  26
HETATM   26  C15 UNK     1      22.111  -3.635  16.742  1.00  0.00     0.022 C 
HETATM   27  C24 UNK     1      22.892  -3.121  17.939  1.00  0.00     0.007 C 
ENDBRANCH  25  26
ENDBRANCH  24  25
ENDBRANCH  22  24
ENDBRANCH   3  22
BRANCH   2  28
HETATM   28  C4  UNK     1      20.676  -7.705  12.471  1.00  0.00    -0.003 A 
HETATM   29  C10 UNK     1      19.725  -8.713  12.633  1.00  0.00     0.046 A 
HETATM   30 Cl1  UNK     1      18.042  -8.364  12.822  1.00  0.00    -0.083 Cl
HETATM   31  C18 UNK     1      20.123 -10.050  12.645  1.00  0.00     0.048 A 
HETATM   32  C21 UNK     1      21.470 -10.379  12.496  1.00  0.00     0.035 A 
HETATM   33  C19 UNK     1      22.420  -9.371  12.333  1.00  0.00     0.025 A 
HETATM   34 Cl2  UNK     1      21.961 -12.028  12.510  1.00  0.00    -0.084 Cl
HETATM   35  C11 UNK     1      22.023  -8.034  12.321  1.00  0.00     0.016 A 
ENDBRANCH   2  28
TORSDOF 7
ENDMDL
MODEL 5
REMARK VINA RESULT:      -9.1      9.784     13.413
REMARK  7 active torsions:
REMARK  status: ('A' for Active; 'I' for Inactive)
REMARK    1  A    between atoms: C14_24  and  O1_5 
REMARK    2  A    between atoms: C6_16  and  O1_5 
REMARK    3  A    between atoms: C3_13  and  N1_10 
REMARK       I    between atoms: C9_19  and  N1_10 
REMARK    4  A    between atoms: C1_11  and  C4_14 
REMARK    5  A    between atoms: C2_12  and  C6_16 
REMARK    6  A    between atoms: C7_17  and  C9_19 
REMARK    7  A    between atoms: C14_24  and  C15_25 
ROOT
HETATM    1  S1  UNK     1      28.290  -9.374  35.683  1.00  0.00    -0.082 SA
HETATM    2  C1  UNK     1      30.443  -8.025  36.060  1.00  0.00     0.001 A 
HETATM    3  C2  UNK     1      29.414  -7.329  36.758  1.00  0.00     0.085 A 
HETATM    4  C3  UNK     1      28.219  -7.961  36.624  1.00  0.00     0.094 A 
HETATM    5  C5  UNK     1      29.970  -9.155  35.432  1.00  0.00     0.065 A 
ENDROOT
BRANCH   4   6
HETATM    6  N1  UNK     1      26.958  -7.634  37.132  1.00  0.00    -0.316 N 
HETATM    7  C9  UNK     1      26.485  -7.934  38.402  1.00  0.00     0.262 C 
HETATM    8  O4  UNK     1      27.058  -8.530  39.313  1.00  0.00    -0.267 OA
HETATM    9  H2  UNK     1      26.355  -7.148  36.474  1.00  0.00     0.169 HD
BRANCH   7  10
HETATM   10  C7  UNK     1      25.117  -7.444  38.607  1.00  0.00     0.108 A 
HETATM   11  C12 UNK     1      24.147  -8.364  38.569  1.00  0.00     0.037 A 
HETATM   12  C8  UNK     1      22.758  -7.974  38.761  1.00  0.00     0.001 A 
HETATM   13  C13 UNK     1      22.460  -6.634  38.985  1.00  0.00     0.089 A 
HETATM   14  C17 UNK     1      21.713  -8.901  38.728  1.00  0.00     0.038 A 
HETATM   15  O2  UNK     1      23.487  -5.669  39.026  1.00  0.00    -0.274 OA
HETATM   16  C20 UNK     1      21.152  -6.195  39.176  1.00  0.00     0.040 A 
HETATM   17  C16 UNK     1      24.824  -6.011  38.844  1.00  0.00     0.304 A 
HETATM   18  O5  UNK     1      25.710  -5.166  38.881  1.00  0.00    -0.259 OA
HETATM   19  C23 UNK     1      20.116  -7.126  39.142  1.00  0.00     0.026 A 
HETATM   20  C22 UNK     1      20.395  -8.475  38.918  1.00  0.00     0.035 A 
HETATM   21 Cl3  UNK     1      19.110  -9.621  38.878  1.00  0.00    -0.084 Cl
ENDBRANCH   7  10
ENDBRANCH   4   6
BRANCH   3  22
HETATM   22  C6  UNK     1      29.586  -6.112  37.513  1.00  0.00     0.297 C 
HETATM   23  O3  UNK     1      29.398  -5.982  38.730  1.00  0.00    -0.259 OA
BRANCH  22  24
HETATM   24  O1  UNK     1      29.996  -5.072  36.712  1.00  0.00    -0.317 OA
BRANCH  24  25
HETATM   25  C14 UNK     1      30.689  -3.996  37.358  1.00  0.00     0.178 C 
BRANCH  25  26
HETATM   26  C15 UNK     1      32.186  -4.203  37.187  1.00  0.00     0.022 C 
HETATM   27  C24 UNK     1      32.694  -3.607  35.886  1.00  0.00     0.007 C 
ENDBRANCH  25  26
ENDBRANCH  24  25
ENDBRANCH  22  24
ENDBRANCH   3  22
BRANCH   2  28
HETATM   28  C4  UNK     1      31.837  -7.672  35.966  1.00  0.00    -0.003 A 
HETATM   29  C10 UNK     1      32.702  -7.793  37.052  1.00  0.00     0.046 A 
HETATM   30 Cl1  UNK     1      32.167  -8.376  38.590  1.00  0.00    -0.083 Cl
HETATM   31  C18 UNK     1      34.044  -7.440  36.916  1.00  0.00     0.048 A 
HETATM   32  C21 UNK     1      34.521  -6.964  35.695  1.00  0.00     0.035 A 
HETATM   33  C19 UNK     1      33.655  -6.843  34.608  1.00  0.00     0.025 A 
HETATM   34 Cl2  UNK     1      36.177  -6.528  35.526  1.00  0.00    -0.084 Cl
HETATM   35  C11 UNK     1      32.312  -7.197  34.744  1.00  0.00     0.016 A 
ENDBRANCH   2  28
TORSDOF 7
ENDMDL
MODEL 6
REMARK VINA RESULT:      -8.9      8.572     12.799
REMARK  7 active torsions:
REMARK  status: ('A' for Active; 'I' for Inactive)
REMARK    1  A    between atoms: C14_24  and  O1_5 
REMARK    2  A    between atoms: C6_16  and  O1_5 
REMARK    3  A    between atoms: C3_13  and  N1_10 
REMARK       I    between atoms: C9_19  and  N1_10 
REMARK    4  A    between atoms: C1_11  and  C4_14 
REMARK    5  A    between atoms: C2_12  and  C6_16 
REMARK    6  A    between atoms: C7_17  and  C9_19 
REMARK    7  A    between atoms: C14_24  and  C15_25 
ROOT
HETATM    1  S1  UNK     1      22.672  -7.383  39.980  1.00  0.00    -0.082 SA
HETATM    2  C1  UNK     1      21.055  -7.711  38.012  1.00  0.00     0.001 A 
HETATM    3  C2  UNK     1      22.308  -8.240  37.585  1.00  0.00     0.085 A 
HETATM    4  C3  UNK     1      23.247  -8.116  38.559  1.00  0.00     0.094 A 
HETATM    5  C5  UNK     1      21.112  -7.213  39.294  1.00  0.00     0.065 A 
ENDROOT
BRANCH   4   6
HETATM    6  N1  UNK     1      24.593  -8.493  38.573  1.00  0.00    -0.316 N 
HETATM    7  C9  UNK     1      25.683  -7.635  38.604  1.00  0.00     0.262 C 
HETATM    8  O4  UNK     1      25.691  -6.405  38.624  1.00  0.00    -0.267 OA
HETATM    9  H2  UNK     1      24.746  -9.498  38.539  1.00  0.00     0.169 HD
BRANCH   7  10
HETATM   10  C7  UNK     1      26.955  -8.366  38.611  1.00  0.00     0.108 A 
HETATM   11  C12 UNK     1      27.910  -7.899  37.798  1.00  0.00     0.037 A 
HETATM   12  C8  UNK     1      29.206  -8.557  37.735  1.00  0.00     0.001 A 
HETATM   13  C13 UNK     1      29.433  -9.675  38.533  1.00  0.00     0.089 A 
HETATM   14  C17 UNK     1      30.232  -8.106  36.901  1.00  0.00     0.038 A 
HETATM   15  O2  UNK     1      28.424 -10.161  39.388  1.00  0.00    -0.274 OA
HETATM   16  C20 UNK     1      30.651 -10.351  38.520  1.00  0.00     0.040 A 
HETATM   17  C16 UNK     1      27.174  -9.553  39.469  1.00  0.00     0.304 A 
HETATM   18  O5  UNK     1      26.302  -9.983  40.215  1.00  0.00    -0.259 OA
HETATM   19  C23 UNK     1      31.668  -9.893  37.684  1.00  0.00     0.026 A 
HETATM   20  C22 UNK     1      31.459  -8.774  36.877  1.00  0.00     0.035 A 
HETATM   21 Cl3  UNK     1      32.720  -8.213  35.847  1.00  0.00    -0.084 Cl
ENDBRANCH   7  10
ENDBRANCH   4   6
BRANCH   3  22
HETATM   22  C6  UNK     1      22.575  -8.832  36.298  1.00  0.00     0.297 C 
HETATM   23  O3  UNK     1      22.039  -8.514  35.228  1.00  0.00    -0.259 OA
BRANCH  22  24
HETATM   24  O1  UNK     1      23.525  -9.824  36.383  1.00  0.00    -0.317 OA
BRANCH  24  25
HETATM   25  C14 UNK     1      23.181 -11.095  35.819  1.00  0.00     0.178 C 
BRANCH  25  26
HETATM   26  C15 UNK     1      24.379 -12.025  35.937  1.00  0.00     0.022 C 
HETATM   27  C24 UNK     1      25.625 -11.285  36.391  1.00  0.00     0.007 C 
ENDBRANCH  25  26
ENDBRANCH  24  25
ENDBRANCH  22  24
ENDBRANCH   3  22
BRANCH   2  28
HETATM   28  C4  UNK     1      19.822  -7.659  37.267  1.00  0.00    -0.003 A 
HETATM   29  C10 UNK     1      19.083  -8.808  36.986  1.00  0.00     0.046 A 
HETATM   30 Cl1  UNK     1      19.592 -10.376  37.509  1.00  0.00    -0.083 Cl
HETATM   31  C18 UNK     1      17.895  -8.712  36.262  1.00  0.00     0.048 A 
HETATM   32  C21 UNK     1      17.446  -7.468  35.819  1.00  0.00     0.035 A 
HETATM   33  C19 UNK     1      18.186  -6.320  36.101  1.00  0.00     0.025 A 
HETATM   34 Cl2  UNK     1      15.980  -7.349  34.926  1.00  0.00    -0.084 Cl
HETATM   35  C11 UNK     1      19.374  -6.415  36.825  1.00  0.00     0.016 A 
ENDBRANCH   2  28
TORSDOF 7
ENDMDL
MODEL 7
REMARK VINA RESULT:      -8.9      9.437     13.424
REMARK  7 active torsions:
REMARK  status: ('A' for Active; 'I' for Inactive)
REMARK    1  A    between atoms: C14_24  and  O1_5 
REMARK    2  A    between atoms: C6_16  and  O1_5 
REMARK    3  A    between atoms: C3_13  and  N1_10 
REMARK       I    between atoms: C9_19  and  N1_10 
REMARK    4  A    between atoms: C1_11  and  C4_14 
REMARK    5  A    between atoms: C2_12  and  C6_16 
REMARK    6  A    between atoms: C7_17  and  C9_19 
REMARK    7  A    between atoms: C14_24  and  C15_25 
ROOT
HETATM    1  S1  UNK     1      29.194  -9.496  38.518  1.00  0.00    -0.082 SA
HETATM    2  C1  UNK     1      30.982  -8.169  37.237  1.00  0.00     0.001 A 
HETATM    3  C2  UNK     1      29.787  -7.397  37.160  1.00  0.00     0.085 A 
HETATM    4  C3  UNK     1      28.765  -8.012  37.811  1.00  0.00     0.094 A 
HETATM    5  C5  UNK     1      30.801  -9.335  37.947  1.00  0.00     0.065 A 
ENDROOT
BRANCH   4   6
HETATM    6  N1  UNK     1      27.435  -7.618  37.986  1.00  0.00    -0.316 N 
HETATM    7  C9  UNK     1      26.566  -8.083  38.964  1.00  0.00     0.262 C 
HETATM    8  O4  UNK     1      26.779  -8.911  39.848  1.00  0.00    -0.267 OA
HETATM    9  H2  UNK     1      27.106  -6.940  37.304  1.00  0.00     0.169 HD
BRANCH   7  10
HETATM   10  C7  UNK     1      25.242  -7.460  38.861  1.00  0.00     0.108 A 
HETATM   11  C12 UNK     1      24.197  -8.294  38.810  1.00  0.00     0.037 A 
HETATM   12  C8  UNK     1      22.844  -7.770  38.707  1.00  0.00     0.001 A 
HETATM   13  C13 UNK     1      22.658  -6.391  38.664  1.00  0.00     0.089 A 
HETATM   14  C17 UNK     1      21.724  -8.603  38.650  1.00  0.00     0.038 A 
HETATM   15  O2  UNK     1      23.762  -5.518  38.719  1.00  0.00    -0.274 OA
HETATM   16  C20 UNK     1      21.389  -5.825  38.565  1.00  0.00     0.040 A 
HETATM   17  C16 UNK     1      25.068  -5.989  38.817  1.00  0.00     0.304 A 
HETATM   18  O5  UNK     1      26.022  -5.222  38.864  1.00  0.00    -0.259 OA
HETATM   19  C23 UNK     1      20.278  -6.664  38.509  1.00  0.00     0.026 A 
HETATM   20  C22 UNK     1      20.444  -8.049  38.551  1.00  0.00     0.035 A 
HETATM   21 Cl3  UNK     1      19.067  -9.080  38.482  1.00  0.00    -0.084 Cl
ENDBRANCH   7  10
ENDBRANCH   4   6
BRANCH   3  22
HETATM   22  C6  UNK     1      29.648  -6.128  36.488  1.00  0.00     0.297 C 
HETATM   23  O3  UNK     1      29.628  -5.956  35.262  1.00  0.00    -0.259 OA
BRANCH  22  24
HETATM   24  O1  UNK     1      29.536  -5.090  37.383  1.00  0.00    -0.317 OA
BRANCH  24  25
HETATM   25  C14 UNK     1      30.757  -4.571  37.925  1.00  0.00     0.178 C 
BRANCH  25  26
HETATM   26  C15 UNK     1      31.275  -3.474  37.008  1.00  0.00     0.022 C 
HETATM   27  C24 UNK     1      32.475  -3.934  36.199  1.00  0.00     0.007 C 
ENDBRANCH  25  26
ENDBRANCH  24  25
ENDBRANCH  22  24
ENDBRANCH   3  22
BRANCH   2  28
HETATM   28  C4  UNK     1      32.271  -7.855  36.675  1.00  0.00    -0.003 A 
HETATM   29  C10 UNK     1      32.566  -8.089  35.333  1.00  0.00     0.046 A 
HETATM   30 Cl1  UNK     1      31.408  -8.773  34.245  1.00  0.00    -0.083 Cl
HETATM   31  C18 UNK     1      33.827  -7.769  34.831  1.00  0.00     0.048 A 
HETATM   32  C21 UNK     1      34.793  -7.216  35.671  1.00  0.00     0.035 A 
HETATM   33  C19 UNK     1      34.497  -6.982  37.013  1.00  0.00     0.025 A 
HETATM   34 Cl2  UNK     1      36.350  -6.821  35.052  1.00  0.00    -0.084 Cl
HETATM   35  C11 UNK     1      33.236  -7.301  37.516  1.00  0.00     0.016 A 
ENDBRANCH   2  28
TORSDOF 7
ENDMDL
MODEL 8
REMARK VINA RESULT:      -8.8      6.959     10.665
REMARK  7 active torsions:
REMARK  status: ('A' for Active; 'I' for Inactive)
REMARK    1  A    between atoms: C14_24  and  O1_5 
REMARK    2  A    between atoms: C6_16  and  O1_5 
REMARK    3  A    between atoms: C3_13  and  N1_10 
REMARK       I    between atoms: C9_19  and  N1_10 
REMARK    4  A    between atoms: C1_11  and  C4_14 
REMARK    5  A    between atoms: C2_12  and  C6_16 
REMARK    6  A    between atoms: C7_17  and  C9_19 
REMARK    7  A    between atoms: C14_24  and  C15_25 
ROOT
HETATM    1  S1  UNK     1      19.561   8.149  34.315  1.00  0.00    -0.082 SA
HETATM    2  C1  UNK     1      18.745   6.305  32.724  1.00  0.00     0.001 A 
HETATM    3  C2  UNK     1      17.867   7.411  32.530  1.00  0.00     0.085 A 
HETATM    4  C3  UNK     1      18.210   8.453  33.331  1.00  0.00     0.094 A 
HETATM    5  C5  UNK     1      19.712   6.571  33.666  1.00  0.00     0.065 A 
ENDROOT
BRANCH   4   6
HETATM    6  N1  UNK     1      17.632   9.718  33.469  1.00  0.00    -0.316 N 
HETATM    7  C9  UNK     1      16.662  10.078  34.395  1.00  0.00     0.262 C 
HETATM    8  O4  UNK     1      16.126   9.381  35.256  1.00  0.00    -0.267 OA
HETATM    9  H2  UNK     1      17.966  10.407  32.800  1.00  0.00     0.169 HD
BRANCH   7  10
HETATM   10  C7  UNK     1      16.276  11.488  34.263  1.00  0.00     0.108 A 
HETATM   11  C12 UNK     1      14.991  11.727  33.978  1.00  0.00     0.037 A 
HETATM   12  C8  UNK     1      14.513  13.093  33.829  1.00  0.00     0.001 A 
HETATM   13  C13 UNK     1      15.414  14.141  33.988  1.00  0.00     0.089 A 
HETATM   14  C17 UNK     1      13.181  13.388  33.530  1.00  0.00     0.038 A 
HETATM   15  O2  UNK     1      16.766  13.884  34.289  1.00  0.00    -0.274 OA
HETATM   16  C20 UNK     1      15.022  15.472  33.857  1.00  0.00     0.040 A 
HETATM   17  C16 UNK     1      17.252  12.588  34.438  1.00  0.00     0.304 A 
HETATM   18  O5  UNK     1      18.430  12.374  34.699  1.00  0.00    -0.259 OA
HETATM   19  C23 UNK     1      13.690  15.757  33.560  1.00  0.00     0.026 A 
HETATM   20  C22 UNK     1      12.772  14.718  33.397  1.00  0.00     0.035 A 
HETATM   21 Cl3  UNK     1      11.129  15.077  33.030  1.00  0.00    -0.084 Cl
ENDBRANCH   7  10
ENDBRANCH   4   6
BRANCH   3  22
HETATM   22  C6  UNK     1      16.753   7.449  31.615  1.00  0.00     0.297 C 
HETATM   23  O3  UNK     1      16.690   8.121  30.576  1.00  0.00    -0.259 OA
BRANCH  22  24
HETATM   24  O1  UNK     1      15.729   6.629  32.029  1.00  0.00    -0.317 OA
BRANCH  24  25
HETATM   25  C14 UNK     1      14.398   7.041  31.693  1.00  0.00     0.178 C 
BRANCH  25  26
HETATM   26  C15 UNK     1      13.831   7.857  32.845  1.00  0.00     0.022 C 
HETATM   27  C24 UNK     1      14.217   7.275  34.193  1.00  0.00     0.007 C 
ENDBRANCH  25  26
ENDBRANCH  24  25
ENDBRANCH  22  24
ENDBRANCH   3  22
BRANCH   2  28
HETATM   28  C4  UNK     1      18.708   5.026  32.062  1.00  0.00    -0.003 A 
HETATM   29  C10 UNK     1      19.189   4.854  30.765  1.00  0.00     0.046 A 
HETATM   30 Cl1  UNK     1      19.864   6.162  29.856  1.00  0.00    -0.083 Cl
HETATM   31  C18 UNK     1      19.134   3.597  30.163  1.00  0.00     0.048 A 
HETATM   32  C21 UNK     1      18.597   2.513  30.857  1.00  0.00     0.035 A 
HETATM   33  C19 UNK     1      18.117   2.686  32.155  1.00  0.00     0.025 A 
HETATM   34 Cl2  UNK     1      18.529   0.962  30.115  1.00  0.00    -0.084 Cl
HETATM   35  C11 UNK     1      18.172   3.942  32.757  1.00  0.00     0.016 A 
ENDBRANCH   2  28
TORSDOF 7
ENDMDL
MODEL 9
REMARK VINA RESULT:      -8.8      9.517     12.461
REMARK  7 active torsions:
REMARK  status: ('A' for Active; 'I' for Inactive)
REMARK    1  A    between atoms: C14_24  and  O1_5 
REMARK    2  A    between atoms: C6_16  and  O1_5 
REMARK    3  A    between atoms: C3_13  and  N1_10 
REMARK       I    between atoms: C9_19  and  N1_10 
REMARK    4  A    between atoms: C1_11  and  C4_14 
REMARK    5  A    between atoms: C2_12  and  C6_16 
REMARK    6  A    between atoms: C7_17  and  C9_19 
REMARK    7  A    between atoms: C14_24  and  C15_25 
ROOT
HETATM    1  S1  UNK     1      27.205 -10.175  39.405  1.00  0.00    -0.082 SA
HETATM    2  C1  UNK     1      29.000  -8.862  38.120  1.00  0.00     0.001 A 
HETATM    3  C2  UNK     1      27.760  -8.226  37.826  1.00  0.00     0.085 A 
HETATM    4  C3  UNK     1      26.730  -8.846  38.459  1.00  0.00     0.094 A 
HETATM    5  C5  UNK     1      28.844  -9.936  38.967  1.00  0.00     0.065 A 
ENDROOT
BRANCH   4   6
HETATM    6  N1  UNK     1      25.361  -8.563  38.454  1.00  0.00    -0.316 N 
HETATM    7  C9  UNK     1      24.436  -9.014  37.522  1.00  0.00     0.262 C 
HETATM    8  O4  UNK     1      24.624  -9.730  36.539  1.00  0.00    -0.267 OA
HETATM    9  H2  UNK     1      25.056  -7.954  39.208  1.00  0.00     0.169 HD
BRANCH   7  10
HETATM   10  C7  UNK     1      23.083  -8.528  37.815  1.00  0.00     0.108 A 
HETATM   11  C12 UNK     1      22.226  -8.505  36.787  1.00  0.00     0.037 A 
HETATM   12  C8  UNK     1      20.862  -8.040  36.979  1.00  0.00     0.001 A 
HETATM   13  C13 UNK     1      20.465  -7.622  38.246  1.00  0.00     0.089 A 
HETATM   14  C17 UNK     1      19.935  -7.997  35.935  1.00  0.00     0.038 A 
HETATM   15  O2  UNK     1      21.371  -7.650  39.325  1.00  0.00    -0.274 OA
HETATM   16  C20 UNK     1      19.173  -7.164  38.497  1.00  0.00     0.040 A 
HETATM   17  C16 UNK     1      22.683  -8.089  39.172  1.00  0.00     0.304 A 
HETATM   18  O5  UNK     1      23.464  -8.109  40.116  1.00  0.00    -0.259 OA
HETATM   19  C23 UNK     1      18.256  -7.126  37.449  1.00  0.00     0.026 A 
HETATM   20  C22 UNK     1      18.635  -7.541  36.172  1.00  0.00     0.035 A 
HETATM   21 Cl3  UNK     1      17.496  -7.491  34.882  1.00  0.00    -0.084 Cl
ENDBRANCH   7  10
ENDBRANCH   4   6
BRANCH   3  22
HETATM   22  C6  UNK     1      27.587  -7.076  36.971  1.00  0.00     0.297 C 
HETATM   23  O3  UNK     1      27.923  -7.000  35.782  1.00  0.00    -0.259 OA
BRANCH  22  24
HETATM   24  O1  UNK     1      26.987  -6.034  37.639  1.00  0.00    -0.317 OA
BRANCH  24  25
HETATM   25  C14 UNK     1      27.718  -5.463  38.732  1.00  0.00     0.178 C 
BRANCH  25  26
HETATM   26  C15 UNK     1      28.990  -4.827  38.194  1.00  0.00     0.022 C 
HETATM   27  C24 UNK     1      29.718  -4.031  39.262  1.00  0.00     0.007 C 
ENDBRANCH  25  26
ENDBRANCH  24  25
ENDBRANCH  22  24
ENDBRANCH   3  22
BRANCH   2  28
HETATM   28  C4  UNK     1      30.310  -8.500  37.642  1.00  0.00    -0.003 A 
HETATM   29  C10 UNK     1      30.777  -8.911  36.394  1.00  0.00     0.046 A 
HETATM   30 Cl1  UNK     1      29.819  -9.882  35.330  1.00  0.00    -0.083 Cl
HETATM   31  C18 UNK     1      32.052  -8.538  35.969  1.00  0.00     0.048 A 
HETATM   32  C21 UNK     1      32.861  -7.755  36.794  1.00  0.00     0.035 A 
HETATM   33  C19 UNK     1      32.393  -7.345  38.042  1.00  0.00     0.025 A 
HETATM   34 Cl2  UNK     1      34.434  -7.294  36.271  1.00  0.00    -0.084 Cl
HETATM   35  C11 UNK     1      31.118  -7.717  38.466  1.00  0.00     0.016 A 
ENDBRANCH   2  28
TORSDOF 7
ENDMDL
MODEL 10
REMARK VINA RESULT:      -8.6      1.812      2.384
REMARK  7 active torsions:
REMARK  status: ('A' for Active; 'I' for Inactive)
REMARK    1  A    between atoms: C14_24  and  O1_5 
REMARK    2  A    between atoms: C6_16  and  O1_5 
REMARK    3  A    between atoms: C3_13  and  N1_10 
REMARK       I    between atoms: C9_19  and  N1_10 
REMARK    4  A    between atoms: C1_11  and  C4_14 
REMARK    5  A    between atoms: C2_12  and  C6_16 
REMARK    6  A    between atoms: C7_17  and  C9_19 
REMARK    7  A    between atoms: C14_24  and  C15_25 
ROOT
HETATM    1  S1  UNK     1      17.717  -2.108  36.929  1.00  0.00    -0.082 SA
HETATM    2  C1  UNK     1      19.385  -3.908  36.169  1.00  0.00     0.001 A 
HETATM    3  C2  UNK     1      19.783  -2.702  35.522  1.00  0.00     0.085 A 
HETATM    4  C3  UNK     1      18.960  -1.674  35.855  1.00  0.00     0.094 A 
HETATM    5  C5  UNK     1      18.276  -3.727  36.965  1.00  0.00     0.065 A 
ENDROOT
BRANCH   4   6
HETATM    6  N1  UNK     1      18.978  -0.334  35.458  1.00  0.00    -0.316 N 
HETATM    7  C9  UNK     1      18.072   0.278  34.602  1.00  0.00     0.262 C 
HETATM    8  O4  UNK     1      17.099  -0.216  34.034  1.00  0.00    -0.267 OA
HETATM    9  H2  UNK     1      19.751   0.205  35.838  1.00  0.00     0.169 HD
BRANCH   7  10
HETATM   10  C7  UNK     1      18.385   1.697  34.398  1.00  0.00     0.108 A 
HETATM   11  C12 UNK     1      18.221   2.167  33.156  1.00  0.00     0.037 A 
HETATM   12  C8  UNK     1      18.506   3.561  32.855  1.00  0.00     0.001 A 
HETATM   13  C13 UNK     1      18.948   4.394  33.878  1.00  0.00     0.089 A 
HETATM   14  C17 UNK     1      18.351   4.094  31.573  1.00  0.00     0.038 A 
HETATM   15  O2  UNK     1      19.117   3.894  35.185  1.00  0.00    -0.274 OA
HETATM   16  C20 UNK     1      19.239   5.738  33.657  1.00  0.00     0.040 A 
HETATM   17  C16 UNK     1      18.854   2.565  35.503  1.00  0.00     0.304 A 
HETATM   18  O5  UNK     1      19.004   2.139  36.642  1.00  0.00    -0.259 OA
HETATM   19  C23 UNK     1      19.081   6.261  32.375  1.00  0.00     0.026 A 
HETATM   20  C22 UNK     1      18.638   5.441  31.335  1.00  0.00     0.035 A 
HETATM   21 Cl3  UNK     1      18.444   6.093  29.754  1.00  0.00    -0.084 Cl
ENDBRANCH   7  10
ENDBRANCH   4   6
BRANCH   3  22
HETATM   22  C6  UNK     1      20.903  -2.561  34.625  1.00  0.00     0.297 C 
HETATM   23  O3  UNK     1      22.010  -2.087  34.916  1.00  0.00    -0.259 OA
BRANCH  22  24
HETATM   24  O1  UNK     1      20.606  -3.026  33.365  1.00  0.00    -0.317 OA
BRANCH  24  25
HETATM   25  C14 UNK     1      20.096  -2.070  32.428  1.00  0.00     0.178 C 
BRANCH  25  26
HETATM   26  C15 UNK     1      20.584  -2.437  31.035  1.00  0.00     0.022 C 
HETATM   27  C24 UNK     1      20.488  -1.264  30.076  1.00  0.00     0.007 C 
ENDBRANCH  25  26
ENDBRANCH  24  25
ENDBRANCH  22  24
ENDBRANCH   3  22
BRANCH   2  28
HETATM   28  C4  UNK     1      20.002  -5.206  36.070  1.00  0.00    -0.003 A 
HETATM   29  C10 UNK     1      20.878  -5.681  37.045  1.00  0.00     0.046 A 
HETATM   30 Cl1  UNK     1      21.287  -4.748  38.444  1.00  0.00    -0.083 Cl
HETATM   31  C18 UNK     1      21.454  -6.944  36.909  1.00  0.00     0.048 A 
HETATM   32  C21 UNK     1      21.154  -7.731  35.797  1.00  0.00     0.035 A 
HETATM   33  C19 UNK     1      20.277  -7.256  34.823  1.00  0.00     0.025 A 
HETATM   34 Cl2  UNK     1      21.863  -9.290  35.629  1.00  0.00    -0.084 Cl
HETATM   35  C11 UNK     1      19.702  -5.992  34.959  1.00  0.00     0.016 A 
ENDBRANCH   2  28
TORSDOF 7
ENDMDL
