MODEL 1
REMARK VINA RESULT:      -9.5      0.000      0.000
REMARK  11 active torsions:
REMARK  status: ('A' for Active; 'I' for Inactive)
REMARK    1  A    between atoms: C6_14  and  O2_2 
REMARK    2  A    between atoms: C9_17  and  O3_3 
REMARK    3  A    between atoms: C14_22  and  O4_4 
REMARK    4  A    between atoms: C15_23  and  O5_5 
REMARK    5  A    between atoms: C19_27  and  O7_7 
REMARK    6  A    between atoms: C4_12  and  C5_13 
REMARK    7  A    between atoms: C13_21  and  C5_13 
REMARK    8  A    between atoms: C16_24  and  C8_16 
REMARK    9  A    between atoms: C16_24  and  C21_29 
REMARK   10  A    between atoms: C18_26  and  C22_30 
REMARK   11  A    between atoms: C23_31  and  C25_33 
ROOT
HETATM    1  O1  UNK     1      34.494  -8.343  33.255  1.00  0.00    -0.335 OA
HETATM    2  C1  UNK     1      35.716  -7.614  33.007  1.00  0.00     0.078 A 
HETATM    3  C2  UNK     1      33.936  -8.308  34.501  1.00  0.00     0.100 A 
HETATM    4  C3  UNK     1      34.485  -7.602  35.574  1.00  0.00     0.032 A 
HETATM    5  C4  UNK     1      32.659  -8.350  36.983  1.00  0.00     0.015 A 
HETATM    6  C6  UNK     1      33.841  -7.626  36.817  1.00  0.00     0.088 A 
HETATM    7  C7  UNK     1      36.288  -6.862  34.187  1.00  0.00     0.012 A 
HETATM    8  C8  UNK     1      32.754  -9.032  34.670  1.00  0.00     0.082 A 
HETATM    9  C9  UNK     1      32.116  -9.053  35.909  1.00  0.00     0.092 A 
HETATM   10  C10 UNK     1      35.715  -6.852  35.392  1.00  0.00     0.016 A 
HETATM   11  C11 UNK     1      36.741  -8.644  32.520  1.00  0.00     0.051 C 
HETATM   12  C12 UNK     1      35.406  -6.624  31.879  1.00  0.00     0.051 C 
ENDROOT
BRANCH   5  13
HETATM   13  C5  UNK     1      31.974  -8.373  38.313  1.00  0.00     0.088 C 
BRANCH  13  14
HETATM   14  C13 UNK     1      30.731  -7.511  38.374  1.00  0.00     0.014 A 
HETATM   15  C14 UNK     1      30.863  -6.137  38.501  1.00  0.00     0.083 A 
HETATM   16  C17 UNK     1      29.718  -5.343  38.557  1.00  0.00     0.006 A 
HETATM   17  C19 UNK     1      28.456  -5.933  38.486  1.00  0.00     0.091 A 
HETATM   18  C20 UNK     1      29.843  -3.859  38.694  1.00  0.00     0.054 C 
HETATM   19  C18 UNK     1      28.339  -7.317  38.359  1.00  0.00     0.077 A 
HETATM   20  C15 UNK     1      29.485  -8.111  38.302  1.00  0.00     0.091 A 
BRANCH  15  21
HETATM   21  O4  UNK     1      32.097  -5.560  38.570  1.00  0.00    -0.359 OA
HETATM   22  H17 UNK     1      32.016  -4.593  38.542  1.00  0.00     0.217 HD
ENDBRANCH  15  21
BRANCH  17  23
HETATM   23  O7  UNK     1      27.337  -5.153  38.542  1.00  0.00    -0.359 OA
HETATM   24  H23 UNK     1      27.093  -4.856  37.652  1.00  0.00     0.217 HD
ENDBRANCH  17  23
BRANCH  19  25
HETATM   25  C22 UNK     1      27.019  -7.934  38.285  1.00  0.00     0.161 C 
HETATM   26  O8  UNK     1      26.286  -7.774  37.291  1.00  0.00    -0.293 OA
HETATM   27  C24 UNK     1      26.511  -8.793  39.435  1.00  0.00     0.097 C 
ENDBRANCH  19  25
BRANCH  20  28
HETATM   28  O5  UNK     1      29.373  -9.466  38.178  1.00  0.00    -0.359 OA
HETATM   29  H18 UNK     1      29.989  -9.921  38.773  1.00  0.00     0.217 HD
ENDBRANCH  20  28
ENDBRANCH  13  14
ENDBRANCH   5  13
BRANCH   6  30
HETATM   30  O2  UNK     1      34.354  -6.944  37.884  1.00  0.00    -0.359 OA
HETATM   31  H11 UNK     1      33.667  -6.791  38.551  1.00  0.00     0.217 HD
ENDBRANCH   6  30
BRANCH   9  32
HETATM   32  O3  UNK     1      30.961  -9.760  36.076  1.00  0.00    -0.359 OA
HETATM   33  H12 UNK     1      30.187  -9.175  36.053  1.00  0.00     0.217 HD
ENDBRANCH   9  32
BRANCH   8  34
HETATM   34  C16 UNK     1      32.176  -9.771  33.551  1.00  0.00     0.187 C 
HETATM   35  O6  UNK     1      32.492 -10.951  33.344  1.00  0.00    -0.287 OA
BRANCH  34  36
HETATM   36  C21 UNK     1      31.217  -9.059  32.643  1.00  0.00     0.056 C 
HETATM   37  C23 UNK     1      29.898  -9.104  32.878  1.00  0.00     0.015 C 
BRANCH  37  38
HETATM   38  C25 UNK     1      28.878  -8.453  32.039  1.00  0.00    -0.036 A 
HETATM   39  C26 UNK     1      28.490  -9.054  30.853  1.00  0.00     0.011 A 
HETATM   40  C28 UNK     1      27.524  -8.437  30.057  1.00  0.00     0.001 A 
HETATM   41  C30 UNK     1      26.959  -7.228  30.459  1.00  0.00     0.000 A 
HETATM   42  C29 UNK     1      27.359  -6.634  31.657  1.00  0.00     0.001 A 
HETATM   43  C27 UNK     1      28.325  -7.250  32.451  1.00  0.00     0.011 A 
ENDBRANCH  37  38
ENDBRANCH  34  36
ENDBRANCH   8  34
TORSDOF 11
ENDMDL
MODEL 2
REMARK VINA RESULT:      -9.4      0.573      2.444
REMARK  11 active torsions:
REMARK  status: ('A' for Active; 'I' for Inactive)
REMARK    1  A    between atoms: C6_14  and  O2_2 
REMARK    2  A    between atoms: C9_17  and  O3_3 
REMARK    3  A    between atoms: C14_22  and  O4_4 
REMARK    4  A    between atoms: C15_23  and  O5_5 
REMARK    5  A    between atoms: C19_27  and  O7_7 
REMARK    6  A    between atoms: C4_12  and  C5_13 
REMARK    7  A    between atoms: C13_21  and  C5_13 
REMARK    8  A    between atoms: C16_24  and  C8_16 
REMARK    9  A    between atoms: C16_24  and  C21_29 
REMARK   10  A    between atoms: C18_26  and  C22_30 
REMARK   11  A    between atoms: C23_31  and  C25_33 
ROOT
HETATM    1  O1  UNK     1      34.358  -8.391  33.208  1.00  0.00    -0.335 OA
HETATM    2  C1  UNK     1      35.562  -7.637  32.945  1.00  0.00     0.078 A 
HETATM    3  C2  UNK     1      33.838  -8.399  34.471  1.00  0.00     0.100 A 
HETATM    4  C3  UNK     1      34.409  -7.715  35.547  1.00  0.00     0.032 A 
HETATM    5  C4  UNK     1      32.637  -8.530  36.988  1.00  0.00     0.015 A 
HETATM    6  C6  UNK     1      33.804  -7.784  36.807  1.00  0.00     0.088 A 
HETATM    7  C7  UNK     1      36.159  -6.910  34.128  1.00  0.00     0.012 A 
HETATM    8  C8  UNK     1      32.672  -9.145  34.655  1.00  0.00     0.082 A 
HETATM    9  C9  UNK     1      32.072  -9.210  35.911  1.00  0.00     0.092 A 
HETATM   10  C10 UNK     1      35.623  -6.942  35.350  1.00  0.00     0.016 A 
HETATM   11  C11 UNK     1      36.586  -8.638  32.398  1.00  0.00     0.051 C 
HETATM   12  C12 UNK     1      35.204  -6.621  31.855  1.00  0.00     0.051 C 
ENDROOT
BRANCH   5  13
HETATM   13  C5  UNK     1      31.994  -8.599  38.336  1.00  0.00     0.088 C 
BRANCH  13  14
HETATM   14  C13 UNK     1      30.752  -7.743  38.465  1.00  0.00     0.014 A 
HETATM   15  C14 UNK     1      29.505  -8.346  38.440  1.00  0.00     0.083 A 
HETATM   16  C17 UNK     1      28.361  -7.558  38.558  1.00  0.00     0.006 A 
HETATM   17  C19 UNK     1      28.480  -6.175  38.701  1.00  0.00     0.091 A 
HETATM   18  C20 UNK     1      27.009  -8.193  38.532  1.00  0.00     0.054 C 
HETATM   19  C18 UNK     1      29.741  -5.581  38.724  1.00  0.00     0.077 A 
HETATM   20  C15 UNK     1      30.886  -6.371  38.606  1.00  0.00     0.091 A 
BRANCH  15  21
HETATM   21  O4  UNK     1      29.390  -9.699  38.301  1.00  0.00    -0.359 OA
HETATM   22  H17 UNK     1      29.101 -10.097  39.138  1.00  0.00     0.217 HD
ENDBRANCH  15  21
BRANCH  17  23
HETATM   23  O7  UNK     1      27.358  -5.406  38.816  1.00  0.00    -0.359 OA
HETATM   24  H23 UNK     1      26.609  -5.841  38.379  1.00  0.00     0.217 HD
ENDBRANCH  17  23
BRANCH  19  25
HETATM   25  C22 UNK     1      29.865  -4.135  38.873  1.00  0.00     0.161 C 
HETATM   26  O8  UNK     1      29.543  -3.565  39.932  1.00  0.00    -0.293 OA
HETATM   27  C24 UNK     1      30.396  -3.291  37.723  1.00  0.00     0.097 C 
ENDBRANCH  19  25
BRANCH  20  28
HETATM   28  O5  UNK     1      32.122  -5.793  38.629  1.00  0.00    -0.359 OA
HETATM   29  H18 UNK     1      32.705  -6.192  37.965  1.00  0.00     0.217 HD
ENDBRANCH  20  28
ENDBRANCH  13  14
ENDBRANCH   5  13
BRANCH   6  30
HETATM   30  O2  UNK     1      34.340  -7.124  37.878  1.00  0.00    -0.359 OA
HETATM   31  H11 UNK     1      35.113  -7.600  38.216  1.00  0.00     0.217 HD
ENDBRANCH   6  30
BRANCH   9  32
HETATM   32  O3  UNK     1      30.932  -9.938  36.092  1.00  0.00    -0.359 OA
HETATM   33  H12 UNK     1      31.134 -10.881  36.203  1.00  0.00     0.217 HD
ENDBRANCH   9  32
BRANCH   8  34
HETATM   34  C16 UNK     1      32.070  -9.861  33.533  1.00  0.00     0.187 C 
HETATM   35  O6  UNK     1      32.356 -11.046  33.315  1.00  0.00    -0.287 OA
BRANCH  34  36
HETATM   36  C21 UNK     1      31.125  -9.118  32.635  1.00  0.00     0.056 C 
HETATM   37  C23 UNK     1      29.810  -9.100  32.900  1.00  0.00     0.015 C 
BRANCH  37  38
HETATM   38  C25 UNK     1      28.802  -8.414  32.074  1.00  0.00    -0.036 A 
HETATM   39  C26 UNK     1      28.273  -7.210  32.508  1.00  0.00     0.011 A 
HETATM   40  C28 UNK     1      27.318  -6.560  31.725  1.00  0.00     0.001 A 
HETATM   41  C30 UNK     1      26.904  -7.124  30.520  1.00  0.00     0.000 A 
HETATM   42  C29 UNK     1      27.445  -8.338  30.095  1.00  0.00     0.001 A 
HETATM   43  C27 UNK     1      28.400  -8.988  30.877  1.00  0.00     0.011 A 
ENDBRANCH  37  38
ENDBRANCH  34  36
ENDBRANCH   8  34
TORSDOF 11
ENDMDL
MODEL 3
REMARK VINA RESULT:      -8.7      1.679      2.997
REMARK  11 active torsions:
REMARK  status: ('A' for Active; 'I' for Inactive)
REMARK    1  A    between atoms: C6_14  and  O2_2 
REMARK    2  A    between atoms: C9_17  and  O3_3 
REMARK    3  A    between atoms: C14_22  and  O4_4 
REMARK    4  A    between atoms: C15_23  and  O5_5 
REMARK    5  A    between atoms: C19_27  and  O7_7 
REMARK    6  A    between atoms: C4_12  and  C5_13 
REMARK    7  A    between atoms: C13_21  and  C5_13 
REMARK    8  A    between atoms: C16_24  and  C8_16 
REMARK    9  A    between atoms: C16_24  and  C21_29 
REMARK   10  A    between atoms: C18_26  and  C22_30 
REMARK   11  A    between atoms: C23_31  and  C25_33 
ROOT
HETATM    1  O1  UNK     1      32.246 -10.556  32.883  1.00  0.00    -0.335 OA
HETATM    2  C1  UNK     1      32.035 -11.957  32.598  1.00  0.00     0.078 A 
HETATM    3  C2  UNK     1      32.125 -10.111  34.169  1.00  0.00     0.100 A 
HETATM    4  C3  UNK     1      31.800 -10.938  35.246  1.00  0.00     0.032 A 
HETATM    5  C4  UNK     1      31.918  -9.026  36.732  1.00  0.00     0.015 A 
HETATM    6  C6  UNK     1      31.697 -10.389  36.530  1.00  0.00     0.088 A 
HETATM    7  C7  UNK     1      31.682 -12.827  33.783  1.00  0.00     0.012 A 
HETATM    8  C8  UNK     1      32.345  -8.747  34.374  1.00  0.00     0.082 A 
HETATM    9  C9  UNK     1      32.242  -8.205  35.654  1.00  0.00     0.092 A 
HETATM   10  C10 UNK     1      31.571 -12.355  35.026  1.00  0.00     0.016 A 
HETATM   11  C11 UNK     1      30.901 -12.021  31.569  1.00  0.00     0.051 C 
HETATM   12  C12 UNK     1      33.334 -12.468  31.965  1.00  0.00     0.051 C 
ENDROOT
BRANCH   5  13
HETATM   13  C5  UNK     1      31.808  -8.444  38.106  1.00  0.00     0.088 C 
BRANCH  13  14
HETATM   14  C13 UNK     1      30.566  -7.604  38.315  1.00  0.00     0.014 A 
HETATM   15  C14 UNK     1      30.695  -6.239  38.516  1.00  0.00     0.083 A 
HETATM   16  C17 UNK     1      29.551  -5.464  38.708  1.00  0.00     0.006 A 
HETATM   17  C19 UNK     1      28.292  -6.066  38.696  1.00  0.00     0.091 A 
HETATM   18  C20 UNK     1      29.674  -3.991  38.927  1.00  0.00     0.054 C 
HETATM   19  C18 UNK     1      28.177  -7.440  38.493  1.00  0.00     0.077 A 
HETATM   20  C15 UNK     1      29.322  -8.215  38.300  1.00  0.00     0.091 A 
BRANCH  15  21
HETATM   21  O4  UNK     1      31.926  -5.651  38.527  1.00  0.00    -0.359 OA
HETATM   22  H17 UNK     1      32.602  -6.297  38.789  1.00  0.00     0.217 HD
ENDBRANCH  15  21
BRANCH  17  23
HETATM   23  O7  UNK     1      27.175  -5.305  38.885  1.00  0.00    -0.359 OA
HETATM   24  H23 UNK     1      27.422  -4.423  39.203  1.00  0.00     0.217 HD
ENDBRANCH  17  23
BRANCH  19  25
HETATM   25  C22 UNK     1      26.861  -8.069  38.480  1.00  0.00     0.161 C 
HETATM   26  O8  UNK     1      26.022  -7.795  37.602  1.00  0.00    -0.293 OA
HETATM   27  C24 UNK     1      26.487  -9.082  39.554  1.00  0.00     0.097 C 
ENDBRANCH  19  25
BRANCH  20  28
HETATM   28  O5  UNK     1      29.213  -9.560  38.100  1.00  0.00    -0.359 OA
HETATM   29  H18 UNK     1      28.488  -9.932  38.627  1.00  0.00     0.217 HD
ENDBRANCH  20  28
ENDBRANCH  13  14
ENDBRANCH   5  13
BRANCH   6  30
HETATM   30  O2  UNK     1      31.382 -11.174  37.604  1.00  0.00    -0.359 OA
HETATM   31  H11 UNK     1      32.077 -11.124  38.276  1.00  0.00     0.217 HD
ENDBRANCH   6  30
BRANCH   9  32
HETATM   32  O3  UNK     1      32.457  -6.873  35.856  1.00  0.00    -0.359 OA
HETATM   33  H12 UNK     1      31.776  -6.493  36.433  1.00  0.00     0.217 HD
ENDBRANCH   9  32
BRANCH   8  34
HETATM   34  C16 UNK     1      32.686  -7.878  33.250  1.00  0.00     0.187 C 
HETATM   35  O6  UNK     1      33.844  -7.466  33.100  1.00  0.00    -0.287 OA
BRANCH  34  36
HETATM   36  C21 UNK     1      31.595  -7.474  32.303  1.00  0.00     0.056 C 
HETATM   37  C23 UNK     1      30.325  -7.835  32.535  1.00  0.00     0.015 C 
BRANCH  37  38
HETATM   38  C25 UNK     1      29.189  -7.501  31.659  1.00  0.00    -0.036 A 
HETATM   39  C26 UNK     1      28.260  -8.481  31.349  1.00  0.00     0.011 A 
HETATM   40  C28 UNK     1      27.184  -8.165  30.519  1.00  0.00     0.001 A 
HETATM   41  C30 UNK     1      27.051  -6.874  30.011  1.00  0.00     0.000 A 
HETATM   42  C29 UNK     1      27.995  -5.897  30.332  1.00  0.00     0.001 A 
HETATM   43  C27 UNK     1      29.071  -6.213  31.161  1.00  0.00     0.011 A 
ENDBRANCH  37  38
ENDBRANCH  34  36
ENDBRANCH   8  34
TORSDOF 11
ENDMDL
MODEL 4
REMARK VINA RESULT:      -8.7      1.772      3.867
REMARK  11 active torsions:
REMARK  status: ('A' for Active; 'I' for Inactive)
REMARK    1  A    between atoms: C6_14  and  O2_2 
REMARK    2  A    between atoms: C9_17  and  O3_3 
REMARK    3  A    between atoms: C14_22  and  O4_4 
REMARK    4  A    between atoms: C15_23  and  O5_5 
REMARK    5  A    between atoms: C19_27  and  O7_7 
REMARK    6  A    between atoms: C4_12  and  C5_13 
REMARK    7  A    between atoms: C13_21  and  C5_13 
REMARK    8  A    between atoms: C16_24  and  C8_16 
REMARK    9  A    between atoms: C16_24  and  C21_29 
REMARK   10  A    between atoms: C18_26  and  C22_30 
REMARK   11  A    between atoms: C23_31  and  C25_33 
ROOT
HETATM    1  O1  UNK     1      32.186 -10.594  32.685  1.00  0.00    -0.335 OA
HETATM    2  C1  UNK     1      31.939 -11.972  32.328  1.00  0.00     0.078 A 
HETATM    3  C2  UNK     1      32.111 -10.221  33.997  1.00  0.00     0.100 A 
HETATM    4  C3  UNK     1      31.800 -11.101  35.034  1.00  0.00     0.032 A 
HETATM    5  C4  UNK     1      31.999  -9.279  36.622  1.00  0.00     0.015 A 
HETATM    6  C6  UNK     1      31.745 -10.624  36.350  1.00  0.00     0.088 A 
HETATM    7  C7  UNK     1      31.603 -12.901  33.471  1.00  0.00     0.012 A 
HETATM    8  C8  UNK     1      32.365  -8.875  34.271  1.00  0.00     0.082 A 
HETATM    9  C9  UNK     1      32.309  -8.405  35.582  1.00  0.00     0.092 A 
HETATM   10  C10 UNK     1      31.536 -12.499  34.742  1.00  0.00     0.016 A 
HETATM   11  C11 UNK     1      30.776 -11.956  31.330  1.00  0.00     0.051 C 
HETATM   12  C12 UNK     1      33.209 -12.470  31.628  1.00  0.00     0.051 C 
ENDROOT
BRANCH   5  13
HETATM   13  C5  UNK     1      31.939  -8.775  38.029  1.00  0.00     0.088 C 
BRANCH  13  14
HETATM   14  C13 UNK     1      30.712  -7.939  38.326  1.00  0.00     0.014 A 
HETATM   15  C14 UNK     1      29.484  -8.563  38.476  1.00  0.00     0.083 A 
HETATM   16  C17 UNK     1      28.354  -7.793  38.749  1.00  0.00     0.006 A 
HETATM   17  C19 UNK     1      28.467  -6.408  38.869  1.00  0.00     0.091 A 
HETATM   18  C20 UNK     1      27.022  -8.452  38.913  1.00  0.00     0.054 C 
HETATM   19  C18 UNK     1      29.709  -5.793  38.715  1.00  0.00     0.077 A 
HETATM   20  C15 UNK     1      30.840  -6.564  38.442  1.00  0.00     0.091 A 
BRANCH  15  21
HETATM   21  O4  UNK     1      29.374  -9.919  38.359  1.00  0.00    -0.359 OA
HETATM   22  H17 UNK     1      28.934 -10.286  39.141  1.00  0.00     0.217 HD
ENDBRANCH  15  21
BRANCH  17  23
HETATM   23  O7  UNK     1      27.358  -5.657  39.136  1.00  0.00    -0.359 OA
HETATM   24  H23 UNK     1      27.070  -5.803  40.050  1.00  0.00     0.217 HD
ENDBRANCH  17  23
BRANCH  19  25
HETATM   25  C22 UNK     1      29.827  -4.344  38.840  1.00  0.00     0.161 C 
HETATM   26  O8  UNK     1      29.552  -3.764  39.907  1.00  0.00    -0.293 OA
HETATM   27  C24 UNK     1      30.293  -3.510  37.655  1.00  0.00     0.097 C 
ENDBRANCH  19  25
BRANCH  20  28
HETATM   28  O5  UNK     1      32.057  -5.965  38.292  1.00  0.00    -0.359 OA
HETATM   29  H18 UNK     1      32.667  -6.236  38.995  1.00  0.00     0.217 HD
ENDBRANCH  20  28
ENDBRANCH  13  14
ENDBRANCH   5  13
BRANCH   6  30
HETATM   30  O2  UNK     1      31.444 -11.464  37.386  1.00  0.00    -0.359 OA
HETATM   31  H11 UNK     1      31.576 -12.387  37.123  1.00  0.00     0.217 HD
ENDBRANCH   6  30
BRANCH   9  32
HETATM   32  O3  UNK     1      32.556  -7.090  35.852  1.00  0.00    -0.359 OA
HETATM   33  H12 UNK     1      32.570  -6.927  36.809  1.00  0.00     0.217 HD
ENDBRANCH   9  32
BRANCH   8  34
HETATM   34  C16 UNK     1      32.691  -7.950  33.189  1.00  0.00     0.187 C 
HETATM   35  O6  UNK     1      33.838  -7.497  33.070  1.00  0.00    -0.287 OA
BRANCH  34  36
HETATM   36  C21 UNK     1      31.599  -7.538  32.247  1.00  0.00     0.056 C 
HETATM   37  C23 UNK     1      30.319  -7.829  32.521  1.00  0.00     0.015 C 
BRANCH  37  38
HETATM   38  C25 UNK     1      29.180  -7.483  31.654  1.00  0.00    -0.036 A 
HETATM   39  C26 UNK     1      29.056  -6.187  31.181  1.00  0.00     0.011 A 
HETATM   40  C28 UNK     1      27.977  -5.858  30.360  1.00  0.00     0.001 A 
HETATM   41  C30 UNK     1      27.036  -6.830  30.024  1.00  0.00     0.000 A 
HETATM   42  C29 UNK     1      27.173  -8.131  30.508  1.00  0.00     0.001 A 
HETATM   43  C27 UNK     1      28.252  -8.460  31.329  1.00  0.00     0.011 A 
ENDBRANCH  37  38
ENDBRANCH  34  36
ENDBRANCH   8  34
TORSDOF 11
ENDMDL
MODEL 5
REMARK VINA RESULT:      -8.5      2.273      3.661
REMARK  11 active torsions:
REMARK  status: ('A' for Active; 'I' for Inactive)
REMARK    1  A    between atoms: C6_14  and  O2_2 
REMARK    2  A    between atoms: C9_17  and  O3_3 
REMARK    3  A    between atoms: C14_22  and  O4_4 
REMARK    4  A    between atoms: C15_23  and  O5_5 
REMARK    5  A    between atoms: C19_27  and  O7_7 
REMARK    6  A    between atoms: C4_12  and  C5_13 
REMARK    7  A    between atoms: C13_21  and  C5_13 
REMARK    8  A    between atoms: C16_24  and  C8_16 
REMARK    9  A    between atoms: C16_24  and  C21_29 
REMARK   10  A    between atoms: C18_26  and  C22_30 
REMARK   11  A    between atoms: C23_31  and  C25_33 
ROOT
HETATM    1  O1  UNK     1      34.589  -8.458  33.263  1.00  0.00    -0.335 OA
HETATM    2  C1  UNK     1      35.808  -7.722  33.021  1.00  0.00     0.078 A 
HETATM    3  C2  UNK     1      34.008  -8.399  34.498  1.00  0.00     0.100 A 
HETATM    4  C3  UNK     1      34.529  -7.662  35.563  1.00  0.00     0.032 A 
HETATM    5  C4  UNK     1      32.685  -8.396  36.956  1.00  0.00     0.015 A 
HETATM    6  C6  UNK     1      33.862  -7.664  36.795  1.00  0.00     0.088 A 
HETATM    7  C7  UNK     1      36.350  -6.936  34.192  1.00  0.00     0.012 A 
HETATM    8  C8  UNK     1      32.830  -9.131  34.662  1.00  0.00     0.082 A 
HETATM    9  C9  UNK     1      32.169  -9.130  35.889  1.00  0.00     0.092 A 
HETATM   10  C10 UNK     1      35.755  -6.904  35.387  1.00  0.00     0.016 A 
HETATM   11  C11 UNK     1      36.853  -8.752  32.577  1.00  0.00     0.051 C 
HETATM   12  C12 UNK     1      35.509  -6.762  31.863  1.00  0.00     0.051 C 
ENDROOT
BRANCH   5  13
HETATM   13  C5  UNK     1      31.976  -8.395  38.273  1.00  0.00     0.088 C 
BRANCH  13  14
HETATM   14  C13 UNK     1      30.727  -7.538  38.293  1.00  0.00     0.014 A 
HETATM   15  C14 UNK     1      30.850  -6.160  38.367  1.00  0.00     0.083 A 
HETATM   16  C17 UNK     1      29.700  -5.371  38.385  1.00  0.00     0.006 A 
HETATM   17  C19 UNK     1      28.442  -5.971  38.330  1.00  0.00     0.091 A 
HETATM   18  C20 UNK     1      29.816  -3.883  38.465  1.00  0.00     0.054 C 
HETATM   19  C18 UNK     1      28.334  -7.360  38.256  1.00  0.00     0.077 A 
HETATM   20  C15 UNK     1      29.485  -8.149  38.237  1.00  0.00     0.091 A 
BRANCH  15  21
HETATM   21  O4  UNK     1      32.081  -5.573  38.421  1.00  0.00    -0.359 OA
HETATM   22  H17 UNK     1      32.274  -5.287  39.328  1.00  0.00     0.217 HD
ENDBRANCH  15  21
BRANCH  17  23
HETATM   23  O7  UNK     1      27.318  -5.196  38.348  1.00  0.00    -0.359 OA
HETATM   24  H23 UNK     1      26.708  -5.510  39.033  1.00  0.00     0.217 HD
ENDBRANCH  17  23
BRANCH  19  25
HETATM   25  C22 UNK     1      27.018  -7.988  38.197  1.00  0.00     0.161 C 
HETATM   26  O8  UNK     1      26.303  -7.896  37.182  1.00  0.00    -0.293 OA
HETATM   27  C24 UNK     1      26.492  -8.773  39.391  1.00  0.00     0.097 C 
ENDBRANCH  19  25
BRANCH  20  28
HETATM   28  O5  UNK     1      29.382  -9.508  38.164  1.00  0.00    -0.359 OA
HETATM   29  H18 UNK     1      28.489  -9.802  38.403  1.00  0.00     0.217 HD
ENDBRANCH  20  28
ENDBRANCH  13  14
ENDBRANCH   5  13
BRANCH   6  30
HETATM   30  O2  UNK     1      34.348  -6.951  37.855  1.00  0.00    -0.359 OA
HETATM   31  H11 UNK     1      35.039  -6.338  37.562  1.00  0.00     0.217 HD
ENDBRANCH   6  30
BRANCH   9  32
HETATM   32  O3  UNK     1      31.018  -9.845  36.051  1.00  0.00    -0.359 OA
HETATM   33  H12 UNK     1      30.360  -9.604  35.379  1.00  0.00     0.217 HD
ENDBRANCH   9  32
BRANCH   8  34
HETATM   34  C16 UNK     1      32.280  -9.903  33.550  1.00  0.00     0.187 C 
HETATM   35  O6  UNK     1      31.484  -9.385  32.755  1.00  0.00    -0.287 OA
BRANCH  34  36
HETATM   36  C21 UNK     1      32.678 -11.343  33.413  1.00  0.00     0.056 C 
HETATM   37  C23 UNK     1      31.753 -12.312  33.471  1.00  0.00     0.015 C 
BRANCH  37  38
HETATM   38  C25 UNK     1      32.045 -13.751  33.363  1.00  0.00    -0.036 A 
HETATM   39  C26 UNK     1      31.020 -14.630  33.051  1.00  0.00     0.011 A 
HETATM   40  C28 UNK     1      31.295 -15.994  32.949  1.00  0.00     0.001 A 
HETATM   41  C30 UNK     1      32.591 -16.460  33.160  1.00  0.00     0.000 A 
HETATM   42  C29 UNK     1      33.614 -15.564  33.472  1.00  0.00     0.001 A 
HETATM   43  C27 UNK     1      33.339 -14.201  33.575  1.00  0.00     0.011 A 
ENDBRANCH  37  38
ENDBRANCH  34  36
ENDBRANCH   8  34
TORSDOF 11
ENDMDL
MODEL 6
REMARK VINA RESULT:      -8.4      2.662      4.257
REMARK  11 active torsions:
REMARK  status: ('A' for Active; 'I' for Inactive)
REMARK    1  A    between atoms: C6_14  and  O2_2 
REMARK    2  A    between atoms: C9_17  and  O3_3 
REMARK    3  A    between atoms: C14_22  and  O4_4 
REMARK    4  A    between atoms: C15_23  and  O5_5 
REMARK    5  A    between atoms: C19_27  and  O7_7 
REMARK    6  A    between atoms: C4_12  and  C5_13 
REMARK    7  A    between atoms: C13_21  and  C5_13 
REMARK    8  A    between atoms: C16_24  and  C8_16 
REMARK    9  A    between atoms: C16_24  and  C21_29 
REMARK   10  A    between atoms: C18_26  and  C22_30 
REMARK   11  A    between atoms: C23_31  and  C25_33 
ROOT
HETATM    1  O1  UNK     1      32.482  -8.985  32.476  1.00  0.00    -0.335 OA
HETATM    2  C1  UNK     1      33.820  -8.569  32.122  1.00  0.00     0.078 A 
HETATM    3  C2  UNK     1      32.113  -9.001  33.791  1.00  0.00     0.100 A 
HETATM    4  C3  UNK     1      32.964  -8.637  34.836  1.00  0.00     0.032 A 
HETATM    5  C4  UNK     1      31.188  -9.096  36.422  1.00  0.00     0.015 A 
HETATM    6  C6  UNK     1      32.496  -8.686  36.155  1.00  0.00     0.088 A 
HETATM    7  C7  UNK     1      34.718  -8.183  33.275  1.00  0.00     0.012 A 
HETATM    8  C8  UNK     1      30.805  -9.410  34.061  1.00  0.00     0.082 A 
HETATM    9  C9  UNK     1      30.344  -9.457  35.375  1.00  0.00     0.092 A 
HETATM   10  C10 UNK     1      34.323  -8.213  34.549  1.00  0.00     0.016 A 
HETATM   11  C11 UNK     1      34.449  -9.741  31.361  1.00  0.00     0.051 C 
HETATM   12  C12 UNK     1      33.663  -7.369  31.181  1.00  0.00     0.051 C 
ENDROOT
BRANCH   5  13
HETATM   13  C5  UNK     1      30.692  -9.146  37.833  1.00  0.00     0.088 C 
BRANCH  13  14
HETATM   14  C13 UNK     1      29.700  -8.054  38.171  1.00  0.00     0.014 A 
HETATM   15  C14 UNK     1      28.354  -8.367  38.276  1.00  0.00     0.083 A 
HETATM   16  C17 UNK     1      27.440  -7.361  38.587  1.00  0.00     0.006 A 
HETATM   17  C19 UNK     1      27.884  -6.054  38.788  1.00  0.00     0.091 A 
HETATM   18  C20 UNK     1      25.985  -7.683  38.703  1.00  0.00     0.054 C 
HETATM   19  C18 UNK     1      29.241  -5.753  38.679  1.00  0.00     0.077 A 
HETATM   20  C15 UNK     1      30.155  -6.760  38.369  1.00  0.00     0.091 A 
BRANCH  15  21
HETATM   21  O4  UNK     1      27.921  -9.646  38.078  1.00  0.00    -0.359 OA
HETATM   22  H17 UNK     1      28.484 -10.268  38.566  1.00  0.00     0.217 HD
ENDBRANCH  15  21
BRANCH  17  23
HETATM   23  O7  UNK     1      26.986  -5.072  39.092  1.00  0.00    -0.359 OA
HETATM   24  H23 UNK     1      26.959  -4.930  40.051  1.00  0.00     0.217 HD
ENDBRANCH  17  23
BRANCH  19  25
HETATM   25  C22 UNK     1      29.705  -4.386  38.890  1.00  0.00     0.161 C 
HETATM   26  O8  UNK     1      29.585  -3.827  39.996  1.00  0.00    -0.293 OA
HETATM   27  C24 UNK     1      30.350  -3.613  37.749  1.00  0.00     0.097 C 
ENDBRANCH  19  25
BRANCH  20  28
HETATM   28  O5  UNK     1      31.484  -6.469  38.261  1.00  0.00    -0.359 OA
HETATM   29  H18 UNK     1      31.627  -5.699  37.690  1.00  0.00     0.217 HD
ENDBRANCH  20  28
ENDBRANCH  13  14
ENDBRANCH   5  13
BRANCH   6  30
HETATM   30  O2  UNK     1      33.305  -8.335  37.199  1.00  0.00    -0.359 OA
HETATM   31  H11 UNK     1      33.655  -7.441  37.070  1.00  0.00     0.217 HD
ENDBRANCH   6  30
BRANCH   9  32
HETATM   32  O3  UNK     1      29.066  -9.858  35.641  1.00  0.00    -0.359 OA
HETATM   33  H12 UNK     1      28.440  -9.468  35.010  1.00  0.00     0.217 HD
ENDBRANCH   9  32
BRANCH   8  34
HETATM   34  C16 UNK     1      29.912  -9.791  32.970  1.00  0.00     0.187 C 
HETATM   35  O6  UNK     1      29.018  -9.022  32.589  1.00  0.00    -0.287 OA
BRANCH  34  36
HETATM   36  C21 UNK     1      30.082 -11.144  32.345  1.00  0.00     0.056 C 
HETATM   37  C23 UNK     1      30.765 -12.105  32.983  1.00  0.00     0.015 C 
BRANCH  37  38
HETATM   38  C25 UNK     1      31.000 -13.458  32.448  1.00  0.00    -0.036 A 
HETATM   39  C26 UNK     1      31.282 -14.494  33.323  1.00  0.00     0.011 A 
HETATM   40  C28 UNK     1      31.505 -15.775  32.816  1.00  0.00     0.001 A 
HETATM   41  C30 UNK     1      31.442 -16.002  31.442  1.00  0.00     0.000 A 
HETATM   42  C29 UNK     1      31.157 -14.948  30.573  1.00  0.00     0.001 A 
HETATM   43  C27 UNK     1      30.935 -13.667  31.079  1.00  0.00     0.011 A 
ENDBRANCH  37  38
ENDBRANCH  34  36
ENDBRANCH   8  34
TORSDOF 11
ENDMDL
MODEL 7
REMARK VINA RESULT:      -8.1      4.541      9.038
REMARK  11 active torsions:
REMARK  status: ('A' for Active; 'I' for Inactive)
REMARK    1  A    between atoms: C6_14  and  O2_2 
REMARK    2  A    between atoms: C9_17  and  O3_3 
REMARK    3  A    between atoms: C14_22  and  O4_4 
REMARK    4  A    between atoms: C15_23  and  O5_5 
REMARK    5  A    between atoms: C19_27  and  O7_7 
REMARK    6  A    between atoms: C4_12  and  C5_13 
REMARK    7  A    between atoms: C13_21  and  C5_13 
REMARK    8  A    between atoms: C16_24  and  C8_16 
REMARK    9  A    between atoms: C16_24  and  C21_29 
REMARK   10  A    between atoms: C18_26  and  C22_30 
REMARK   11  A    between atoms: C23_31  and  C25_33 
ROOT
HETATM    1  O1  UNK     1      27.747  -7.645  37.197  1.00  0.00    -0.335 OA
HETATM    2  C1  UNK     1      28.106  -8.799  36.405  1.00  0.00     0.078 A 
HETATM    3  C2  UNK     1      26.498  -7.573  37.744  1.00  0.00     0.100 A 
HETATM    4  C3  UNK     1      25.524  -8.560  37.581  1.00  0.00     0.032 A 
HETATM    5  C4  UNK     1      23.994  -7.255  38.935  1.00  0.00     0.015 A 
HETATM    6  C6  UNK     1      24.269  -8.396  38.180  1.00  0.00     0.088 A 
HETATM    7  C7  UNK     1      27.031  -9.850  36.245  1.00  0.00     0.012 A 
HETATM    8  C8  UNK     1      26.219  -6.431  38.500  1.00  0.00     0.082 A 
HETATM    9  C9  UNK     1      24.969  -6.273  39.094  1.00  0.00     0.092 A 
HETATM   10  C10 UNK     1      25.820  -9.744  36.793  1.00  0.00     0.016 A 
HETATM   11  C11 UNK     1      28.504  -8.268  35.024  1.00  0.00     0.051 C 
HETATM   12  C12 UNK     1      29.328  -9.426  37.087  1.00  0.00     0.051 C 
ENDROOT
BRANCH   5  13
HETATM   13  C5  UNK     1      22.652  -7.085  39.574  1.00  0.00     0.088 C 
BRANCH  13  14
HETATM   14  C13 UNK     1      21.526  -6.877  38.583  1.00  0.00     0.014 A 
HETATM   15  C14 UNK     1      20.639  -7.912  38.335  1.00  0.00     0.083 A 
HETATM   16  C17 UNK     1      19.602  -7.721  37.422  1.00  0.00     0.006 A 
HETATM   17  C19 UNK     1      19.467  -6.496  36.768  1.00  0.00     0.091 A 
HETATM   18  C20 UNK     1      18.637  -8.828  37.144  1.00  0.00     0.054 C 
HETATM   19  C18 UNK     1      20.367  -5.463  37.027  1.00  0.00     0.077 A 
HETATM   20  C15 UNK     1      21.404  -5.655  37.941  1.00  0.00     0.091 A 
BRANCH  15  21
HETATM   21  O4  UNK     1      20.772  -9.110  38.975  1.00  0.00    -0.359 OA
HETATM   22  H17 UNK     1      21.105  -9.782  38.359  1.00  0.00     0.217 HD
ENDBRANCH  15  21
BRANCH  17  23
HETATM   23  O7  UNK     1      18.451  -6.312  35.875  1.00  0.00    -0.359 OA
HETATM   24  H23 UNK     1      17.596  -6.359  36.329  1.00  0.00     0.217 HD
ENDBRANCH  17  23
BRANCH  19  25
HETATM   25  C22 UNK     1      20.226  -4.182  36.343  1.00  0.00     0.161 C 
HETATM   26  O8  UNK     1      20.394  -4.084  35.113  1.00  0.00    -0.293 OA
HETATM   27  C24 UNK     1      19.867  -2.931  37.132  1.00  0.00     0.097 C 
ENDBRANCH  19  25
BRANCH  20  28
HETATM   28  O5  UNK     1      22.287  -4.646  38.197  1.00  0.00    -0.359 OA
HETATM   29  H18 UNK     1      22.532  -4.183  37.380  1.00  0.00     0.217 HD
ENDBRANCH  20  28
ENDBRANCH  13  14
ENDBRANCH   5  13
BRANCH   6  30
HETATM   30  O2  UNK     1      23.297  -9.347  38.039  1.00  0.00    -0.359 OA
HETATM   31  H11 UNK     1      23.344  -9.989  38.763  1.00  0.00     0.217 HD
ENDBRANCH   6  30
BRANCH   9  32
HETATM   32  O3  UNK     1      24.696  -5.158  39.833  1.00  0.00    -0.359 OA
HETATM   33  H12 UNK     1      23.757  -5.123  40.077  1.00  0.00     0.217 HD
ENDBRANCH   9  32
BRANCH   8  34
HETATM   34  C16 UNK     1      27.235  -5.396  38.673  1.00  0.00     0.187 C 
HETATM   35  O6  UNK     1      26.908  -4.215  38.849  1.00  0.00    -0.287 OA
BRANCH  34  36
HETATM   36  C21 UNK     1      28.680  -5.793  38.602  1.00  0.00     0.056 C 
HETATM   37  C23 UNK     1      29.538  -5.101  37.839  1.00  0.00     0.015 C 
BRANCH  37  38
HETATM   38  C25 UNK     1      30.969  -5.419  37.691  1.00  0.00    -0.036 A 
HETATM   39  C26 UNK     1      31.777  -4.579  36.945  1.00  0.00     0.011 A 
HETATM   40  C28 UNK     1      33.133  -4.880  36.804  1.00  0.00     0.001 A 
HETATM   41  C30 UNK     1      33.660  -6.019  37.412  1.00  0.00     0.000 A 
HETATM   42  C29 UNK     1      32.833  -6.856  38.161  1.00  0.00     0.001 A 
HETATM   43  C27 UNK     1      31.478  -6.555  38.301  1.00  0.00     0.011 A 
ENDBRANCH  37  38
ENDBRANCH  34  36
ENDBRANCH   8  34
TORSDOF 11
ENDMDL
MODEL 8
REMARK VINA RESULT:      -8.1      1.828      5.718
REMARK  11 active torsions:
REMARK  status: ('A' for Active; 'I' for Inactive)
REMARK    1  A    between atoms: C6_14  and  O2_2 
REMARK    2  A    between atoms: C9_17  and  O3_3 
REMARK    3  A    between atoms: C14_22  and  O4_4 
REMARK    4  A    between atoms: C15_23  and  O5_5 
REMARK    5  A    between atoms: C19_27  and  O7_7 
REMARK    6  A    between atoms: C4_12  and  C5_13 
REMARK    7  A    between atoms: C13_21  and  C5_13 
REMARK    8  A    between atoms: C16_24  and  C8_16 
REMARK    9  A    between atoms: C16_24  and  C21_29 
REMARK   10  A    between atoms: C18_26  and  C22_30 
REMARK   11  A    between atoms: C23_31  and  C25_33 
ROOT
HETATM    1  O1  UNK     1      32.276  -8.749  32.215  1.00  0.00    -0.335 OA
HETATM    2  C1  UNK     1      31.437  -9.162  31.114  1.00  0.00     0.078 A 
HETATM    3  C2  UNK     1      31.809  -8.871  33.493  1.00  0.00     0.100 A 
HETATM    4  C3  UNK     1      30.546  -9.375  33.810  1.00  0.00     0.032 A 
HETATM    5  C4  UNK     1      31.020  -9.045  36.165  1.00  0.00     0.015 A 
HETATM    6  C6  UNK     1      30.154  -9.460  35.151  1.00  0.00     0.088 A 
HETATM    7  C7  UNK     1      30.075  -9.702  31.487  1.00  0.00     0.012 A 
HETATM    8  C8  UNK     1      32.673  -8.456  34.509  1.00  0.00     0.082 A 
HETATM    9  C9  UNK     1      32.279  -8.543  35.843  1.00  0.00     0.092 A 
HETATM   10  C10 UNK     1      29.652  -9.804  32.748  1.00  0.00     0.016 A 
HETATM   11  C11 UNK     1      31.265  -7.931  30.218  1.00  0.00     0.051 C 
HETATM   12  C12 UNK     1      32.219 -10.243  30.359  1.00  0.00     0.051 C 
ENDROOT
BRANCH   5  13
HETATM   13  C5  UNK     1      30.596  -9.139  37.596  1.00  0.00     0.088 C 
BRANCH  13  14
HETATM   14  C13 UNK     1      29.617  -8.063  38.015  1.00  0.00     0.014 A 
HETATM   15  C14 UNK     1      28.278  -8.384  38.167  1.00  0.00     0.083 A 
HETATM   16  C17 UNK     1      27.376  -7.393  38.552  1.00  0.00     0.006 A 
HETATM   17  C19 UNK     1      27.826  -6.092  38.781  1.00  0.00     0.091 A 
HETATM   18  C20 UNK     1      25.928  -7.724  38.720  1.00  0.00     0.054 C 
HETATM   19  C18 UNK     1      29.176  -5.783  38.624  1.00  0.00     0.077 A 
HETATM   20  C15 UNK     1      30.078  -6.775  38.238  1.00  0.00     0.091 A 
BRANCH  15  21
HETATM   21  O4  UNK     1      27.839  -9.657  37.943  1.00  0.00    -0.359 OA
HETATM   22  H17 UNK     1      27.480 -10.035  38.763  1.00  0.00     0.217 HD
ENDBRANCH  15  21
BRANCH  17  23
HETATM   23  O7  UNK     1      26.940  -5.124  39.157  1.00  0.00    -0.359 OA
HETATM   24  H23 UNK     1      27.125  -4.838  40.065  1.00  0.00     0.217 HD
ENDBRANCH  17  23
BRANCH  19  25
HETATM   25  C22 UNK     1      29.646  -4.423  38.862  1.00  0.00     0.161 C 
HETATM   26  O8  UNK     1      29.529  -3.886  39.980  1.00  0.00    -0.293 OA
HETATM   27  C24 UNK     1      30.294  -3.629  37.737  1.00  0.00     0.097 C 
ENDBRANCH  19  25
BRANCH  20  28
HETATM   28  O5  UNK     1      31.401  -6.476  38.084  1.00  0.00    -0.359 OA
HETATM   29  H18 UNK     1      31.521  -5.736  37.468  1.00  0.00     0.217 HD
ENDBRANCH  20  28
ENDBRANCH  13  14
ENDBRANCH   5  13
BRANCH   6  30
HETATM   30  O2  UNK     1      28.924  -9.951  35.491  1.00  0.00    -0.359 OA
HETATM   31  H11 UNK     1      28.879 -10.903  35.315  1.00  0.00     0.217 HD
ENDBRANCH   6  30
BRANCH   9  32
HETATM   32  O3  UNK     1      33.122  -8.137  36.837  1.00  0.00    -0.359 OA
HETATM   33  H12 UNK     1      33.650  -7.373  36.556  1.00  0.00     0.217 HD
ENDBRANCH   9  32
BRANCH   8  34
HETATM   34  C16 UNK     1      33.995  -7.928  34.183  1.00  0.00     0.187 C 
HETATM   35  O6  UNK     1      34.237  -6.719  34.295  1.00  0.00    -0.287 OA
BRANCH  34  36
HETATM   36  C21 UNK     1      35.040  -8.880  33.680  1.00  0.00     0.056 C 
HETATM   37  C23 UNK     1      35.764  -8.581  32.591  1.00  0.00     0.015 C 
BRANCH  37  38
HETATM   38  C25 UNK     1      36.800  -9.454  32.012  1.00  0.00    -0.036 A 
HETATM   39  C26 UNK     1      37.852  -9.878  32.807  1.00  0.00     0.011 A 
HETATM   40  C28 UNK     1      38.834 -10.704  32.259  1.00  0.00     0.001 A 
HETATM   41  C30 UNK     1      38.750 -11.094  30.924  1.00  0.00     0.000 A 
HETATM   42  C29 UNK     1      37.684 -10.660  30.135  1.00  0.00     0.001 A 
HETATM   43  C27 UNK     1      36.703  -9.834  30.683  1.00  0.00     0.011 A 
ENDBRANCH  37  38
ENDBRANCH  34  36
ENDBRANCH   8  34
TORSDOF 11
ENDMDL
MODEL 9
REMARK VINA RESULT:      -8.1      2.931      8.412
REMARK  11 active torsions:
REMARK  status: ('A' for Active; 'I' for Inactive)
REMARK    1  A    between atoms: C6_14  and  O2_2 
REMARK    2  A    between atoms: C9_17  and  O3_3 
REMARK    3  A    between atoms: C14_22  and  O4_4 
REMARK    4  A    between atoms: C15_23  and  O5_5 
REMARK    5  A    between atoms: C19_27  and  O7_7 
REMARK    6  A    between atoms: C4_12  and  C5_13 
REMARK    7  A    between atoms: C13_21  and  C5_13 
REMARK    8  A    between atoms: C16_24  and  C8_16 
REMARK    9  A    between atoms: C16_24  and  C21_29 
REMARK   10  A    between atoms: C18_26  and  C22_30 
REMARK   11  A    between atoms: C23_31  and  C25_33 
ROOT
HETATM    1  O1  UNK     1      30.024  -7.474  36.870  1.00  0.00    -0.335 OA
HETATM    2  C1  UNK     1      29.294  -8.490  37.591  1.00  0.00     0.078 A 
HETATM    3  C2  UNK     1      29.753  -7.269  35.547  1.00  0.00     0.100 A 
HETATM    4  C3  UNK     1      28.800  -7.997  34.832  1.00  0.00     0.032 A 
HETATM    5  C4  UNK     1      29.333  -6.715  32.844  1.00  0.00     0.015 A 
HETATM    6  C6  UNK     1      28.593  -7.716  33.475  1.00  0.00     0.088 A 
HETATM    7  C7  UNK     1      28.271  -9.263  36.791  1.00  0.00     0.012 A 
HETATM    8  C8  UNK     1      30.492  -6.269  34.912  1.00  0.00     0.082 A 
HETATM    9  C9  UNK     1      30.283  -5.992  33.562  1.00  0.00     0.092 A 
HETATM   10  C10 UNK     1      28.035  -9.037  35.497  1.00  0.00     0.016 A 
HETATM   11  C11 UNK     1      30.342  -9.462  38.145  1.00  0.00     0.051 C 
HETATM   12  C12 UNK     1      28.592  -7.775  38.752  1.00  0.00     0.051 C 
ENDROOT
BRANCH   5  13
HETATM   13  C5  UNK     1      29.108  -6.419  31.395  1.00  0.00     0.088 C 
BRANCH  13  14
HETATM   14  C13 UNK     1      29.568  -7.524  30.467  1.00  0.00     0.014 A 
HETATM   15  C14 UNK     1      28.625  -8.289  29.801  1.00  0.00     0.083 A 
HETATM   16  C17 UNK     1      29.049  -9.306  28.947  1.00  0.00     0.006 A 
HETATM   17  C19 UNK     1      30.412  -9.545  28.770  1.00  0.00     0.091 A 
HETATM   18  C20 UNK     1      28.043 -10.141  28.221  1.00  0.00     0.054 C 
HETATM   19  C18 UNK     1      31.350  -8.767  29.447  1.00  0.00     0.077 A 
HETATM   20  C15 UNK     1      30.926  -7.749  30.301  1.00  0.00     0.091 A 
BRANCH  15  21
HETATM   21  O4  UNK     1      27.292  -8.055  29.975  1.00  0.00    -0.359 OA
HETATM   22  H17 UNK     1      27.056  -8.144  30.912  1.00  0.00     0.217 HD
ENDBRANCH  15  21
BRANCH  17  23
HETATM   23  O7  UNK     1      30.823 -10.542  27.933  1.00  0.00    -0.359 OA
HETATM   24  H23 UNK     1      30.282 -11.335  28.068  1.00  0.00     0.217 HD
ENDBRANCH  17  23
BRANCH  19  25
HETATM   25  C22 UNK     1      32.776  -9.017  29.262  1.00  0.00     0.161 C 
HETATM   26  O8  UNK     1      33.363  -8.668  28.220  1.00  0.00    -0.293 OA
HETATM   27  C24 UNK     1      33.577  -9.716  30.351  1.00  0.00     0.097 C 
ENDBRANCH  19  25
BRANCH  20  28
HETATM   28  O5  UNK     1      31.842  -6.985  30.965  1.00  0.00    -0.359 OA
HETATM   29  H18 UNK     1      32.066  -6.190  30.456  1.00  0.00     0.217 HD
ENDBRANCH  20  28
ENDBRANCH  13  14
ENDBRANCH   5  13
BRANCH   6  30
HETATM   30  O2  UNK     1      27.667  -8.412  32.750  1.00  0.00    -0.359 OA
HETATM   31  H11 UNK     1      27.370  -7.890  31.990  1.00  0.00     0.217 HD
ENDBRANCH   6  30
BRANCH   9  32
HETATM   32  O3  UNK     1      31.005  -5.015  32.940  1.00  0.00    -0.359 OA
HETATM   33  H12 UNK     1      30.722  -4.133  33.232  1.00  0.00     0.217 HD
ENDBRANCH   9  32
BRANCH   8  34
HETATM   34  C16 UNK     1      31.490  -5.504  35.657  1.00  0.00     0.187 C 
HETATM   35  O6  UNK     1      31.144  -4.592  36.420  1.00  0.00    -0.287 OA
BRANCH  34  36
HETATM   36  C21 UNK     1      32.940  -5.829  35.451  1.00  0.00     0.056 C 
HETATM   37  C23 UNK     1      33.300  -6.915  34.752  1.00  0.00     0.015 C 
BRANCH  37  38
HETATM   38  C25 UNK     1      34.693  -7.327  34.508  1.00  0.00    -0.036 A 
HETATM   39  C26 UNK     1      34.947  -8.396  33.666  1.00  0.00     0.011 A 
HETATM   40  C28 UNK     1      36.267  -8.787  33.434  1.00  0.00     0.001 A 
HETATM   41  C30 UNK     1      37.313  -8.103  34.050  1.00  0.00     0.000 A 
HETATM   42  C29 UNK     1      37.042  -7.027  34.896  1.00  0.00     0.001 A 
HETATM   43  C27 UNK     1      35.724  -6.637  35.128  1.00  0.00     0.011 A 
ENDBRANCH  37  38
ENDBRANCH  34  36
ENDBRANCH   8  34
TORSDOF 11
ENDMDL
MODEL 10
REMARK VINA RESULT:      -8.1     32.003     35.825
REMARK  11 active torsions:
REMARK  status: ('A' for Active; 'I' for Inactive)
REMARK    1  A    between atoms: C6_14  and  O2_2 
REMARK    2  A    between atoms: C9_17  and  O3_3 
REMARK    3  A    between atoms: C14_22  and  O4_4 
REMARK    4  A    between atoms: C15_23  and  O5_5 
REMARK    5  A    between atoms: C19_27  and  O7_7 
REMARK    6  A    between atoms: C4_12  and  C5_13 
REMARK    7  A    between atoms: C13_21  and  C5_13 
REMARK    8  A    between atoms: C16_24  and  C8_16 
REMARK    9  A    between atoms: C16_24  and  C21_29 
REMARK   10  A    between atoms: C18_26  and  C22_30 
REMARK   11  A    between atoms: C23_31  and  C25_33 
ROOT
HETATM    1  O1  UNK     1      17.480  13.610   7.490  1.00  0.00    -0.335 OA
HETATM    2  C1  UNK     1      16.783  14.780   7.009  1.00  0.00     0.078 A 
HETATM    3  C2  UNK     1      16.810  12.704   8.262  1.00  0.00     0.100 A 
HETATM    4  C3  UNK     1      15.469  12.842   8.628  1.00  0.00     0.032 A 
HETATM    5  C4  UNK     1      15.602  10.752   9.850  1.00  0.00     0.015 A 
HETATM    6  C6  UNK     1      14.868  11.860   9.425  1.00  0.00     0.088 A 
HETATM    7  C7  UNK     1      15.335  14.903   7.422  1.00  0.00     0.012 A 
HETATM    8  C8  UNK     1      17.543  11.594   8.690  1.00  0.00     0.082 A 
HETATM    9  C9  UNK     1      16.940  10.620   9.483  1.00  0.00     0.092 A 
HETATM   10  C10 UNK     1      14.713  13.998   8.181  1.00  0.00     0.016 A 
HETATM   11  C11 UNK     1      17.563  15.991   7.533  1.00  0.00     0.051 C 
HETATM   12  C12 UNK     1      16.870  14.735   5.479  1.00  0.00     0.051 C 
ENDROOT
BRANCH   5  13
HETATM   13  C5  UNK     1      14.955   9.706  10.701  1.00  0.00     0.088 C 
BRANCH  13  14
HETATM   14  C13 UNK     1      14.610   8.436   9.951  1.00  0.00     0.014 A 
HETATM   15  C14 UNK     1      15.404   7.313  10.116  1.00  0.00     0.083 A 
HETATM   16  C17 UNK     1      15.086   6.144   9.425  1.00  0.00     0.006 A 
HETATM   17  C19 UNK     1      13.978   6.114   8.578  1.00  0.00     0.091 A 
HETATM   18  C20 UNK     1      15.934   4.923   9.592  1.00  0.00     0.054 C 
HETATM   19  C18 UNK     1      13.188   7.252   8.422  1.00  0.00     0.077 A 
HETATM   20  C15 UNK     1      13.506   8.421   9.114  1.00  0.00     0.091 A 
BRANCH  15  21
HETATM   21  O4  UNK     1      16.488   7.343  10.945  1.00  0.00    -0.359 OA
HETATM   22  H17 UNK     1      17.094   6.616  10.728  1.00  0.00     0.217 HD
ENDBRANCH  15  21
BRANCH  17  23
HETATM   23  O7  UNK     1      13.671   4.968   7.903  1.00  0.00    -0.359 OA
HETATM   24  H23 UNK     1      14.443   4.657   7.405  1.00  0.00     0.217 HD
ENDBRANCH  17  23
BRANCH  19  25
HETATM   25  C22 UNK     1      12.029   7.221   7.536  1.00  0.00     0.161 C 
HETATM   26  O8  UNK     1      12.158   7.040   6.311  1.00  0.00    -0.293 OA
HETATM   27  C24 UNK     1      10.629   7.411   8.103  1.00  0.00     0.097 C 
ENDBRANCH  19  25
BRANCH  20  28
HETATM   28  O5  UNK     1      12.735   9.537   8.963  1.00  0.00    -0.359 OA
HETATM   29  H18 UNK     1      13.280  10.339   8.960  1.00  0.00     0.217 HD
ENDBRANCH  20  28
ENDBRANCH  13  14
ENDBRANCH   5  13
BRANCH   6  30
HETATM   30  O2  UNK     1      13.557  11.968   9.797  1.00  0.00    -0.359 OA
HETATM   31  H11 UNK     1      12.977  11.874   9.026  1.00  0.00     0.217 HD
ENDBRANCH   6  30
BRANCH   9  32
HETATM   32  O3  UNK     1      17.654   9.535   9.902  1.00  0.00    -0.359 OA
HETATM   33  H12 UNK     1      17.235   9.117  10.671  1.00  0.00     0.217 HD
ENDBRANCH   9  32
BRANCH   8  34
HETATM   34  C16 UNK     1      18.945  11.446   8.310  1.00  0.00     0.187 C 
HETATM   35  O6  UNK     1      19.269  10.705   7.372  1.00  0.00    -0.287 OA
BRANCH  34  36
HETATM   36  C21 UNK     1      19.983  12.186   9.101  1.00  0.00     0.056 C 
HETATM   37  C23 UNK     1      20.395  11.717  10.287  1.00  0.00     0.015 C 
BRANCH  37  38
HETATM   38  C25 UNK     1      21.395  12.377  11.144  1.00  0.00    -0.036 A 
HETATM   39  C26 UNK     1      21.226  12.362  12.519  1.00  0.00     0.011 A 
HETATM   40  C28 UNK     1      22.173  12.988  13.331  1.00  0.00     0.001 A 
HETATM   41  C30 UNK     1      23.275  13.619  12.757  1.00  0.00     0.000 A 
HETATM   42  C29 UNK     1      23.432  13.625  11.370  1.00  0.00     0.001 A 
HETATM   43  C27 UNK     1      22.485  13.001  10.559  1.00  0.00     0.011 A 
ENDBRANCH  37  38
ENDBRANCH  34  36
ENDBRANCH   8  34
TORSDOF 11
ENDMDL
