MODEL 1
REMARK VINA RESULT:      -8.3      0.000      0.000
REMARK  4 active torsions:
REMARK  status: ('A' for Active; 'I' for Inactive)
REMARK    1  A    between atoms: C4_9  and  O2_2 
REMARK    2  A    between atoms: C9_14  and  O3_3 
REMARK    3  A    between atoms: C10_15  and  O4_4 
REMARK    4  A    between atoms: C3_8  and  C7_12 
ROOT
HETATM    1  O1  UNK     1      19.223  -0.826  17.074  1.00  0.00    -0.309 OA
HETATM    2  O5  UNK     1      19.304   3.182  16.350  1.00  0.00    -0.287 OA
HETATM    3  C1  UNK     1      19.324   1.438  17.945  1.00  0.00     0.084 A 
HETATM    4  C2  UNK     1      19.294   0.056  18.122  1.00  0.00     0.096 A 
HETATM    5  C3  UNK     1      19.172  -0.319  15.785  1.00  0.00     0.090 A 
HETATM    6  C4  UNK     1      19.396   2.290  19.050  1.00  0.00     0.118 A 
HETATM    7  C5  UNK     1      19.278   1.980  16.579  1.00  0.00     0.190 A 
HETATM    8  C6  UNK     1      19.201   0.990  15.486  1.00  0.00     0.094 A 
HETATM    9  C8  UNK     1      19.338  -0.484  19.408  1.00  0.00     0.077 A 
HETATM   10  C9  UNK     1      19.439   1.748  20.335  1.00  0.00     0.133 A 
HETATM   11  C10 UNK     1      19.410   0.364  20.514  1.00  0.00     0.104 A 
ENDROOT
BRANCH   5  12
HETATM   12  C7  UNK     1      19.104  -1.355  14.735  1.00  0.00    -0.002 A 
HETATM   13  C11 UNK     1      18.674  -2.647  15.049  1.00  0.00     0.014 A 
HETATM   14  C13 UNK     1      18.611  -3.625  14.057  1.00  0.00     0.001 A 
HETATM   15  C15 UNK     1      18.979  -3.315  12.747  1.00  0.00     0.000 A 
HETATM   16  C14 UNK     1      19.409  -2.027  12.430  1.00  0.00     0.001 A 
HETATM   17  C12 UNK     1      19.471  -1.048  13.421  1.00  0.00     0.014 A 
ENDBRANCH   5  12
BRANCH   6  18
HETATM   18  O2  UNK     1      19.427   3.647  18.916  1.00  0.00    -0.357 OA
HETATM   19  H8  UNK     1      20.267   3.935  18.529  1.00  0.00     0.217 HD
ENDBRANCH   6  18
BRANCH  11  20
HETATM   20  O4  UNK     1      19.451  -0.173  21.765  1.00  0.00    -0.358 OA
HETATM   21  H10 UNK     1      19.431   0.553  22.411  1.00  0.00     0.217 HD
ENDBRANCH  11  20
BRANCH  10  22
HETATM   22  O3  UNK     1      19.511   2.569  21.421  1.00  0.00    -0.356 OA
HETATM   23  H9  UNK     1      19.908   3.412  21.143  1.00  0.00     0.218 HD
ENDBRANCH  10  22
TORSDOF 4
ENDMDL
MODEL 2
REMARK VINA RESULT:      -8.3     12.723     17.022
REMARK  4 active torsions:
REMARK  status: ('A' for Active; 'I' for Inactive)
REMARK    1  A    between atoms: C4_9  and  O2_2 
REMARK    2  A    between atoms: C9_14  and  O3_3 
REMARK    3  A    between atoms: C10_15  and  O4_4 
REMARK    4  A    between atoms: C3_8  and  C7_12 
ROOT
HETATM    1  O1  UNK     1      19.048  -0.566  33.542  1.00  0.00    -0.309 OA
HETATM    2  O5  UNK     1      18.391   2.810  31.358  1.00  0.00    -0.287 OA
HETATM    3  C1  UNK     1      19.166   0.578  31.404  1.00  0.00     0.084 A 
HETATM    4  C2  UNK     1      19.364  -0.543  32.208  1.00  0.00     0.096 A 
HETATM    5  C3  UNK     1      18.516   0.579  34.116  1.00  0.00     0.090 A 
HETATM    6  C4  UNK     1      19.507   0.544  30.049  1.00  0.00     0.118 A 
HETATM    7  C5  UNK     1      18.595   1.792  32.005  1.00  0.00     0.190 A 
HETATM    8  C6  UNK     1      18.273   1.716  33.445  1.00  0.00     0.094 A 
HETATM    9  C8  UNK     1      19.903  -1.708  31.661  1.00  0.00     0.077 A 
HETATM   10  C9  UNK     1      20.047  -0.622  29.505  1.00  0.00     0.133 A 
HETATM   11  C10 UNK     1      20.245  -1.746  30.309  1.00  0.00     0.104 A 
ENDROOT
BRANCH   5  12
HETATM   12  C7  UNK     1      18.207   0.443  35.553  1.00  0.00    -0.002 A 
HETATM   13  C11 UNK     1      17.866   1.568  36.308  1.00  0.00     0.014 A 
HETATM   14  C13 UNK     1      17.575   1.440  37.666  1.00  0.00     0.001 A 
HETATM   15  C15 UNK     1      17.623   0.184  38.273  1.00  0.00     0.000 A 
HETATM   16  C14 UNK     1      17.962  -0.941  37.523  1.00  0.00     0.001 A 
HETATM   17  C12 UNK     1      18.253  -0.812  36.165  1.00  0.00     0.014 A 
ENDBRANCH   5  12
BRANCH   6  18
HETATM   18  O2  UNK     1      19.329   1.620  29.232  1.00  0.00    -0.357 OA
HETATM   19  H8  UNK     1      18.606   2.181  29.554  1.00  0.00     0.217 HD
ENDBRANCH   6  18
BRANCH  11  20
HETATM   20  O4  UNK     1      20.772  -2.887  29.785  1.00  0.00    -0.358 OA
HETATM   21  H10 UNK     1      20.055  -3.387  29.357  1.00  0.00     0.217 HD
ENDBRANCH  11  20
BRANCH  10  22
HETATM   22  O3  UNK     1      20.383  -0.668  28.184  1.00  0.00    -0.356 OA
HETATM   23  H9  UNK     1      20.091  -1.523  27.822  1.00  0.00     0.218 HD
ENDBRANCH  10  22
TORSDOF 4
ENDMDL
MODEL 3
REMARK VINA RESULT:      -7.9     13.626     17.164
REMARK  4 active torsions:
REMARK  status: ('A' for Active; 'I' for Inactive)
REMARK    1  A    between atoms: C4_9  and  O2_2 
REMARK    2  A    between atoms: C9_14  and  O3_3 
REMARK    3  A    between atoms: C10_15  and  O4_4 
REMARK    4  A    between atoms: C3_8  and  C7_12 
ROOT
HETATM    1  O1  UNK     1      19.767  -1.603  33.475  1.00  0.00    -0.309 OA
HETATM    2  O5  UNK     1      17.210   1.118  35.105  1.00  0.00    -0.287 OA
HETATM    3  C1  UNK     1      18.603  -0.763  35.433  1.00  0.00     0.084 A 
HETATM    4  C2  UNK     1      19.470  -1.660  34.813  1.00  0.00     0.096 A 
HETATM    5  C3  UNK     1      19.173  -0.612  32.707  1.00  0.00     0.090 A 
HETATM    6  C4  UNK     1      18.336  -0.869  36.800  1.00  0.00     0.118 A 
HETATM    7  C5  UNK     1      17.977   0.294  34.625  1.00  0.00     0.190 A 
HETATM    8  C6  UNK     1      18.329   0.313  33.191  1.00  0.00     0.094 A 
HETATM    9  C8  UNK     1      20.077  -2.672  35.557  1.00  0.00     0.077 A 
HETATM   10  C9  UNK     1      18.945  -1.882  37.543  1.00  0.00     0.133 A 
HETATM   11  C10 UNK     1      19.813  -2.781  36.923  1.00  0.00     0.104 A 
ENDROOT
BRANCH   5  12
HETATM   12  C7  UNK     1      19.567  -0.638  31.285  1.00  0.00    -0.002 A 
HETATM   13  C11 UNK     1      20.110  -1.799  30.727  1.00  0.00     0.014 A 
HETATM   14  C13 UNK     1      20.483  -1.822  29.383  1.00  0.00     0.001 A 
HETATM   15  C15 UNK     1      20.316  -0.684  28.593  1.00  0.00     0.000 A 
HETATM   16  C14 UNK     1      19.775   0.476  29.146  1.00  0.00     0.001 A 
HETATM   17  C12 UNK     1      19.401   0.500  30.490  1.00  0.00     0.014 A 
ENDBRANCH   5  12
BRANCH   6  18
HETATM   18  O2  UNK     1      17.494  -0.010  37.442  1.00  0.00    -0.357 OA
HETATM   19  H8  UNK     1      17.992   0.700  37.875  1.00  0.00     0.217 HD
ENDBRANCH   6  18
BRANCH  11  20
HETATM   20  O4  UNK     1      20.411  -3.773  37.641  1.00  0.00    -0.358 OA
HETATM   21  H10 UNK     1      20.989  -4.277  37.043  1.00  0.00     0.217 HD
ENDBRANCH  11  20
BRANCH  10  22
HETATM   22  O3  UNK     1      18.693  -1.996  38.878  1.00  0.00    -0.356 OA
HETATM   23  H9  UNK     1      18.426  -1.124  39.216  1.00  0.00     0.218 HD
ENDBRANCH  10  22
TORSDOF 4
ENDMDL
MODEL 4
REMARK VINA RESULT:      -7.8     13.368     16.813
REMARK  4 active torsions:
REMARK  status: ('A' for Active; 'I' for Inactive)
REMARK    1  A    between atoms: C4_9  and  O2_2 
REMARK    2  A    between atoms: C9_14  and  O3_3 
REMARK    3  A    between atoms: C10_15  and  O4_4 
REMARK    4  A    between atoms: C3_8  and  C7_12 
ROOT
HETATM    1  O1  UNK     1      19.026  -0.642  33.388  1.00  0.00    -0.309 OA
HETATM    2  O5  UNK     1      17.969   3.164  34.386  1.00  0.00    -0.287 OA
HETATM    3  C1  UNK     1      18.338   0.940  35.096  1.00  0.00     0.084 A 
HETATM    4  C2  UNK     1      18.709  -0.340  34.687  1.00  0.00     0.096 A 
HETATM    5  C3  UNK     1      18.967   0.369  32.440  1.00  0.00     0.090 A 
HETATM    6  C4  UNK     1      18.025   1.191  36.434  1.00  0.00     0.118 A 
HETATM    7  C5  UNK     1      18.283   2.017  34.096  1.00  0.00     0.190 A 
HETATM    8  C6  UNK     1      18.632   1.640  32.712  1.00  0.00     0.094 A 
HETATM    9  C8  UNK     1      18.769  -1.379  35.616  1.00  0.00     0.077 A 
HETATM   10  C9  UNK     1      18.086   0.150  37.362  1.00  0.00     0.133 A 
HETATM   11  C10 UNK     1      18.457  -1.132  36.954  1.00  0.00     0.104 A 
ENDROOT
BRANCH   5  12
HETATM   12  C7  UNK     1      19.335  -0.064  31.077  1.00  0.00    -0.002 A 
HETATM   13  C11 UNK     1      19.996  -1.280  30.880  1.00  0.00     0.014 A 
HETATM   14  C13 UNK     1      20.344  -1.688  29.593  1.00  0.00     0.001 A 
HETATM   15  C15 UNK     1      20.031  -0.882  28.498  1.00  0.00     0.000 A 
HETATM   16  C14 UNK     1      19.371   0.331  28.690  1.00  0.00     0.001 A 
HETATM   17  C12 UNK     1      19.023   0.740  29.977  1.00  0.00     0.014 A 
ENDBRANCH   5  12
BRANCH   6  18
HETATM   18  O2  UNK     1      17.658   2.429  36.871  1.00  0.00    -0.357 OA
HETATM   19  H8  UNK     1      16.873   2.742  36.397  1.00  0.00     0.217 HD
ENDBRANCH   6  18
BRANCH  11  20
HETATM   20  O4  UNK     1      18.520  -2.154  37.852  1.00  0.00    -0.358 OA
HETATM   21  H10 UNK     1      17.867  -2.828  37.595  1.00  0.00     0.217 HD
ENDBRANCH  11  20
BRANCH  10  22
HETATM   22  O3  UNK     1      17.784   0.382  38.671  1.00  0.00    -0.356 OA
HETATM   23  H9  UNK     1      16.854   0.135  38.820  1.00  0.00     0.218 HD
ENDBRANCH  10  22
TORSDOF 4
ENDMDL
MODEL 5
REMARK VINA RESULT:      -7.8     11.335     13.041
REMARK  4 active torsions:
REMARK  status: ('A' for Active; 'I' for Inactive)
REMARK    1  A    between atoms: C4_9  and  O2_2 
REMARK    2  A    between atoms: C9_14  and  O3_3 
REMARK    3  A    between atoms: C10_15  and  O4_4 
REMARK    4  A    between atoms: C3_8  and  C7_12 
ROOT
HETATM    1  O1  UNK     1      12.810   6.545   8.517  1.00  0.00    -0.309 OA
HETATM    2  O5  UNK     1      13.785  10.182  10.074  1.00  0.00    -0.287 OA
HETATM    3  C1  UNK     1      14.469   7.979   9.560  1.00  0.00     0.084 A 
HETATM    4  C2  UNK     1      14.071   6.761   9.012  1.00  0.00     0.096 A 
HETATM    5  C3  UNK     1      11.892   7.583   8.571  1.00  0.00     0.090 A 
HETATM    6  C4  UNK     1      15.767   8.142  10.049  1.00  0.00     0.118 A 
HETATM    7  C5  UNK     1      13.502   9.085   9.611  1.00  0.00     0.190 A 
HETATM    8  C6  UNK     1      12.158   8.802   9.066  1.00  0.00     0.094 A 
HETATM    9  C8  UNK     1      14.970   5.696   8.951  1.00  0.00     0.077 A 
HETATM   10  C9  UNK     1      16.665   7.075   9.987  1.00  0.00     0.133 A 
HETATM   11  C10 UNK     1      16.267   5.855   9.440  1.00  0.00     0.104 A 
ENDROOT
BRANCH   5  12
HETATM   12  C7  UNK     1      10.571   7.246   8.005  1.00  0.00    -0.002 A 
HETATM   13  C11 UNK     1       9.412   7.439   8.762  1.00  0.00     0.014 A 
HETATM   14  C13 UNK     1       8.164   7.119   8.228  1.00  0.00     0.001 A 
HETATM   15  C15 UNK     1       8.070   6.604   6.935  1.00  0.00     0.000 A 
HETATM   16  C14 UNK     1       9.224   6.410   6.176  1.00  0.00     0.001 A 
HETATM   17  C12 UNK     1      10.472   6.730   6.710  1.00  0.00     0.014 A 
ENDBRANCH   5  12
BRANCH   6  18
HETATM   18  O2  UNK     1      16.193   9.318  10.592  1.00  0.00    -0.357 OA
HETATM   19  H8  UNK     1      15.455   9.795  11.001  1.00  0.00     0.217 HD
ENDBRANCH   6  18
BRANCH  11  20
HETATM   20  O4  UNK     1      17.137   4.808   9.376  1.00  0.00    -0.358 OA
HETATM   21  H10 UNK     1      16.937   4.199  10.107  1.00  0.00     0.217 HD
ENDBRANCH  11  20
BRANCH  10  22
HETATM   22  O3  UNK     1      17.935   7.222  10.462  1.00  0.00    -0.356 OA
HETATM   23  H9  UNK     1      18.084   6.552  11.152  1.00  0.00     0.218 HD
ENDBRANCH  10  22
TORSDOF 4
ENDMDL
MODEL 6
REMARK VINA RESULT:      -7.8     15.193     17.756
REMARK  4 active torsions:
REMARK  status: ('A' for Active; 'I' for Inactive)
REMARK    1  A    between atoms: C4_9  and  O2_2 
REMARK    2  A    between atoms: C9_14  and  O3_3 
REMARK    3  A    between atoms: C10_15  and  O4_4 
REMARK    4  A    between atoms: C3_8  and  C7_12 
ROOT
HETATM    1  O1  UNK     1      18.310   3.819  34.348  1.00  0.00    -0.309 OA
HETATM    2  O5  UNK     1      18.289   1.823  30.796  1.00  0.00    -0.287 OA
HETATM    3  C1  UNK     1      18.338   1.704  33.156  1.00  0.00     0.084 A 
HETATM    4  C2  UNK     1      18.342   2.447  34.335  1.00  0.00     0.096 A 
HETATM    5  C3  UNK     1      18.280   4.492  33.136  1.00  0.00     0.090 A 
HETATM    6  C4  UNK     1      18.372   0.308  33.202  1.00  0.00     0.118 A 
HETATM    7  C5  UNK     1      18.299   2.413  31.868  1.00  0.00     0.190 A 
HETATM    8  C6  UNK     1      18.266   3.888  31.937  1.00  0.00     0.094 A 
HETATM    9  C8  UNK     1      18.378   1.799  35.569  1.00  0.00     0.077 A 
HETATM   10  C9  UNK     1      18.409  -0.339  34.438  1.00  0.00     0.133 A 
HETATM   11  C10 UNK     1      18.412   0.405  35.619  1.00  0.00     0.104 A 
ENDROOT
BRANCH   5  12
HETATM   12  C7  UNK     1      18.240   5.961  33.267  1.00  0.00    -0.002 A 
HETATM   13  C11 UNK     1      19.272   6.637  33.924  1.00  0.00     0.014 A 
HETATM   14  C13 UNK     1      19.234   8.025  34.048  1.00  0.00     0.001 A 
HETATM   15  C15 UNK     1      18.163   8.744  33.515  1.00  0.00     0.000 A 
HETATM   16  C14 UNK     1      17.131   8.074  32.859  1.00  0.00     0.001 A 
HETATM   17  C12 UNK     1      17.170   6.685  32.734  1.00  0.00     0.014 A 
ENDBRANCH   5  12
BRANCH   6  18
HETATM   18  O2  UNK     1      18.370  -0.454  32.071  1.00  0.00    -0.357 OA
HETATM   19  H8  UNK     1      19.237  -0.864  31.932  1.00  0.00     0.217 HD
ENDBRANCH   6  18
BRANCH  11  20
HETATM   20  O4  UNK     1      18.448  -0.219  36.830  1.00  0.00    -0.358 OA
HETATM   21  H10 UNK     1      17.932  -1.041  36.766  1.00  0.00     0.217 HD
ENDBRANCH  11  20
BRANCH  10  22
HETATM   22  O3  UNK     1      18.441  -1.701  34.497  1.00  0.00    -0.356 OA
HETATM   23  H9  UNK     1      19.151  -1.965  35.107  1.00  0.00     0.218 HD
ENDBRANCH  10  22
TORSDOF 4
ENDMDL
MODEL 7
REMARK VINA RESULT:      -7.8      3.147      6.742
REMARK  4 active torsions:
REMARK  status: ('A' for Active; 'I' for Inactive)
REMARK    1  A    between atoms: C4_9  and  O2_2 
REMARK    2  A    between atoms: C9_14  and  O3_3 
REMARK    3  A    between atoms: C10_15  and  O4_4 
REMARK    4  A    between atoms: C3_8  and  C7_12 
ROOT
HETATM    1  O1  UNK     1      20.520  -1.924  17.556  1.00  0.00    -0.309 OA
HETATM    2  O5  UNK     1      17.827  -3.136  14.749  1.00  0.00    -0.287 OA
HETATM    3  C1  UNK     1      19.889  -3.520  15.839  1.00  0.00     0.084 A 
HETATM    4  C2  UNK     1      20.766  -3.051  16.815  1.00  0.00     0.096 A 
HETATM    5  C3  UNK     1      19.351  -1.217  17.317  1.00  0.00     0.090 A 
HETATM    6  C4  UNK     1      20.192  -4.675  15.113  1.00  0.00     0.118 A 
HETATM    7  C5  UNK     1      18.644  -2.779  15.587  1.00  0.00     0.190 A 
HETATM    8  C6  UNK     1      18.426  -1.572  16.411  1.00  0.00     0.094 A 
HETATM    9  C8  UNK     1      21.954  -3.737  17.073  1.00  0.00     0.077 A 
HETATM   10  C9  UNK     1      21.380  -5.359  15.374  1.00  0.00     0.133 A 
HETATM   11  C10 UNK     1      22.259  -4.891  16.351  1.00  0.00     0.104 A 
ENDROOT
BRANCH   5  12
HETATM   12  C7  UNK     1      19.183  -0.027  18.174  1.00  0.00    -0.002 A 
HETATM   13  C11 UNK     1      19.111  -0.165  19.563  1.00  0.00     0.014 A 
HETATM   14  C13 UNK     1      18.952   0.959  20.372  1.00  0.00     0.001 A 
HETATM   15  C15 UNK     1      18.863   2.226  19.795  1.00  0.00     0.000 A 
HETATM   16  C14 UNK     1      18.935   2.369  18.409  1.00  0.00     0.001 A 
HETATM   17  C12 UNK     1      19.094   1.244  17.600  1.00  0.00     0.014 A 
ENDBRANCH   5  12
BRANCH   6  18
HETATM   18  O2  UNK     1      19.359  -5.164  14.151  1.00  0.00    -0.357 OA
HETATM   19  H8  UNK     1      18.662  -4.523  13.942  1.00  0.00     0.217 HD
ENDBRANCH   6  18
BRANCH  11  20
HETATM   20  O4  UNK     1      23.422  -5.552  16.611  1.00  0.00    -0.358 OA
HETATM   21  H10 UNK     1      24.017  -5.435  15.850  1.00  0.00     0.217 HD
ENDBRANCH  11  20
BRANCH  10  22
HETATM   22  O3  UNK     1      21.687  -6.488  14.673  1.00  0.00    -0.356 OA
HETATM   23  H9  UNK     1      22.259  -6.240  13.926  1.00  0.00     0.218 HD
ENDBRANCH  10  22
TORSDOF 4
ENDMDL
MODEL 8
REMARK VINA RESULT:      -7.8     15.052     17.658
REMARK  4 active torsions:
REMARK  status: ('A' for Active; 'I' for Inactive)
REMARK    1  A    between atoms: C4_9  and  O2_2 
REMARK    2  A    between atoms: C9_14  and  O3_3 
REMARK    3  A    between atoms: C10_15  and  O4_4 
REMARK    4  A    between atoms: C3_8  and  C7_12 
ROOT
HETATM    1  O1  UNK     1      18.181   3.064  34.231  1.00  0.00    -0.309 OA
HETATM    2  O5  UNK     1      18.562  -0.572  32.434  1.00  0.00    -0.287 OA
HETATM    3  C1  UNK     1      18.300   0.648  34.441  1.00  0.00     0.084 A 
HETATM    4  C2  UNK     1      18.172   1.923  34.990  1.00  0.00     0.096 A 
HETATM    5  C3  UNK     1      18.330   2.944  32.857  1.00  0.00     0.090 A 
HETATM    6  C4  UNK     1      18.284  -0.481  35.263  1.00  0.00     0.118 A 
HETATM    7  C5  UNK     1      18.450   0.515  32.984  1.00  0.00     0.190 A 
HETATM    8  C6  UNK     1      18.454   1.774  32.211  1.00  0.00     0.094 A 
HETATM    9  C8  UNK     1      18.028   2.076  36.369  1.00  0.00     0.077 A 
HETATM   10  C9  UNK     1      18.139  -0.324  36.643  1.00  0.00     0.133 A 
HETATM   11  C10 UNK     1      18.012   0.951  37.195  1.00  0.00     0.104 A 
ENDROOT
BRANCH   5  12
HETATM   12  C7  UNK     1      18.319   4.232  32.137  1.00  0.00    -0.002 A 
HETATM   13  C11 UNK     1      17.635   5.329  32.669  1.00  0.00     0.014 A 
HETATM   14  C13 UNK     1      17.623   6.546  31.988  1.00  0.00     0.001 A 
HETATM   15  C15 UNK     1      18.296   6.670  30.772  1.00  0.00     0.000 A 
HETATM   16  C14 UNK     1      18.980   5.579  30.238  1.00  0.00     0.001 A 
HETATM   17  C12 UNK     1      18.991   4.362  30.919  1.00  0.00     0.014 A 
ENDBRANCH   5  12
BRANCH   6  18
HETATM   18  O2  UNK     1      18.406  -1.743  34.762  1.00  0.00    -0.357 OA
HETATM   19  H8  UNK     1      18.002  -1.804  33.883  1.00  0.00     0.217 HD
ENDBRANCH   6  18
BRANCH  11  20
HETATM   20  O4  UNK     1      17.871   1.112  38.540  1.00  0.00    -0.358 OA
HETATM   21  H10 UNK     1      18.546   1.743  38.845  1.00  0.00     0.217 HD
ENDBRANCH  11  20
BRANCH  10  22
HETATM   22  O3  UNK     1      18.122  -1.418  37.457  1.00  0.00    -0.356 OA
HETATM   23  H9  UNK     1      17.261  -1.860  37.359  1.00  0.00     0.218 HD
ENDBRANCH  10  22
TORSDOF 4
ENDMDL
MODEL 9
REMARK VINA RESULT:      -7.8     13.028     14.783
REMARK  4 active torsions:
REMARK  status: ('A' for Active; 'I' for Inactive)
REMARK    1  A    between atoms: C4_9  and  O2_2 
REMARK    2  A    between atoms: C9_14  and  O3_3 
REMARK    3  A    between atoms: C10_15  and  O4_4 
REMARK    4  A    between atoms: C3_8  and  C7_12 
ROOT
HETATM    1  O1  UNK     1       9.623   5.026   9.626  1.00  0.00    -0.309 OA
HETATM    2  O5  UNK     1       8.607   6.693   6.049  1.00  0.00    -0.287 OA
HETATM    3  C1  UNK     1      10.326   6.011   7.521  1.00  0.00     0.084 A 
HETATM    4  C2  UNK     1      10.604   5.433   8.758  1.00  0.00     0.096 A 
HETATM    5  C3  UNK     1       8.298   5.205   9.257  1.00  0.00     0.090 A 
HETATM    6  C4  UNK     1      11.367   6.407   6.677  1.00  0.00     0.118 A 
HETATM    7  C5  UNK     1       8.923   6.196   7.122  1.00  0.00     0.190 A 
HETATM    8  C6  UNK     1       7.905   5.742   8.091  1.00  0.00     0.094 A 
HETATM    9  C8  UNK     1      11.927   5.246   9.160  1.00  0.00     0.077 A 
HETATM   10  C9  UNK     1      12.689   6.220   7.081  1.00  0.00     0.133 A 
HETATM   11  C10 UNK     1      12.969   5.641   8.320  1.00  0.00     0.104 A 
ENDROOT
BRANCH   5  12
HETATM   12  C7  UNK     1       7.326   4.727  10.260  1.00  0.00    -0.002 A 
HETATM   13  C11 UNK     1       7.052   5.495  11.395  1.00  0.00     0.014 A 
HETATM   14  C13 UNK     1       6.135   5.042  12.343  1.00  0.00     0.001 A 
HETATM   15  C15 UNK     1       5.488   3.819  12.159  1.00  0.00     0.000 A 
HETATM   16  C14 UNK     1       5.759   3.050  11.027  1.00  0.00     0.001 A 
HETATM   17  C12 UNK     1       6.676   3.503  10.079  1.00  0.00     0.014 A 
ENDBRANCH   5  12
BRANCH   6  18
HETATM   18  O2  UNK     1      11.134   6.977   5.460  1.00  0.00    -0.357 OA
HETATM   19  H8  UNK     1      10.702   6.347   4.863  1.00  0.00     0.217 HD
ENDBRANCH   6  18
BRANCH  11  20
HETATM   20  O4  UNK     1      14.257   5.454   8.722  1.00  0.00    -0.358 OA
HETATM   21  H10 UNK     1      14.293   4.652   9.270  1.00  0.00     0.217 HD
ENDBRANCH  11  20
BRANCH  10  22
HETATM   22  O3  UNK     1      13.714   6.602   6.266  1.00  0.00    -0.356 OA
HETATM   23  H9  UNK     1      14.373   5.886   6.245  1.00  0.00     0.218 HD
ENDBRANCH  10  22
TORSDOF 4
ENDMDL
MODEL 10
REMARK VINA RESULT:      -7.8     15.682     18.729
REMARK  4 active torsions:
REMARK  status: ('A' for Active; 'I' for Inactive)
REMARK    1  A    between atoms: C4_9  and  O2_2 
REMARK    2  A    between atoms: C9_14  and  O3_3 
REMARK    3  A    between atoms: C10_15  and  O4_4 
REMARK    4  A    between atoms: C3_8  and  C7_12 
ROOT
HETATM    1  O1  UNK     1      18.908   0.368  34.200  1.00  0.00    -0.309 OA
HETATM    2  O5  UNK     1      17.836   0.832  38.104  1.00  0.00    -0.287 OA
HETATM    3  C1  UNK     1      18.696  -0.588  36.422  1.00  0.00     0.084 A 
HETATM    4  C2  UNK     1      19.045  -0.679  35.076  1.00  0.00     0.096 A 
HETATM    5  C3  UNK     1      18.394   1.565  34.676  1.00  0.00     0.090 A 
HETATM    6  C4  UNK     1      18.857  -1.688  37.269  1.00  0.00     0.118 A 
HETATM    7  C5  UNK     1      18.159   0.681  36.933  1.00  0.00     0.190 A 
HETATM    8  C6  UNK     1      18.030   1.777  35.951  1.00  0.00     0.094 A 
HETATM    9  C8  UNK     1      19.558  -1.872  34.567  1.00  0.00     0.077 A 
HETATM   10  C9  UNK     1      19.370  -2.881  36.757  1.00  0.00     0.133 A 
HETATM   11  C10 UNK     1      19.720  -2.973  35.409  1.00  0.00     0.104 A 
ENDROOT
BRANCH   5  12
HETATM   12  C7  UNK     1      18.296   2.625  33.653  1.00  0.00    -0.002 A 
HETATM   13  C11 UNK     1      18.286   2.292  32.296  1.00  0.00     0.014 A 
HETATM   14  C13 UNK     1      18.195   3.294  31.329  1.00  0.00     0.001 A 
HETATM   15  C15 UNK     1      18.113   4.632  31.717  1.00  0.00     0.000 A 
HETATM   16  C14 UNK     1      18.123   4.968  33.071  1.00  0.00     0.001 A 
HETATM   17  C12 UNK     1      18.214   3.966  34.037  1.00  0.00     0.014 A 
ENDBRANCH   5  12
BRANCH   6  18
HETATM   18  O2  UNK     1      18.527  -1.637  38.591  1.00  0.00    -0.357 OA
HETATM   19  H8  UNK     1      18.101  -0.794  38.806  1.00  0.00     0.217 HD
ENDBRANCH   6  18
BRANCH  11  20
HETATM   20  O4  UNK     1      20.221  -4.133  34.901  1.00  0.00    -0.358 OA
HETATM   21  H10 UNK     1      21.178  -4.021  34.768  1.00  0.00     0.217 HD
ENDBRANCH  11  20
BRANCH  10  22
HETATM   22  O3  UNK     1      19.532  -3.961  37.572  1.00  0.00    -0.356 OA
HETATM   23  H9  UNK     1      20.384  -3.873  38.034  1.00  0.00     0.218 HD
ENDBRANCH  10  22
TORSDOF 4
ENDMDL
