MODEL 1
REMARK VINA RESULT:      -7.2      0.000      0.000
REMARK  7 active torsions:
REMARK  status: ('A' for Active; 'I' for Inactive)
REMARK    1  A    between atoms: C4_7  and  O1_1 
REMARK    2  A    between atoms: C1_4  and  N1_3 
REMARK       I    between atoms: C5_8  and  N1_3 
REMARK    3  A    between atoms: C1_4  and  C2_5 
REMARK    4  A    between atoms: C2_5  and  C4_7 
REMARK    5  A    between atoms: C3_6  and  C5_8 
REMARK    6  A    between atoms: C3_6  and  C6_9 
REMARK    7  A    between atoms: C7_10  and  C8_11 
ROOT
HETATM    1  C3  UNK     1      19.448  -1.946  36.303  1.00  0.00     0.043 C 
HETATM    2  C7  UNK     1      19.185  -3.016  37.081  1.00  0.00     0.029 C 
ENDROOT
BRANCH   1   3
HETATM    3  C5  UNK     1      20.523  -2.133  35.261  1.00  0.00     0.252 C 
HETATM    4  O2  UNK     1      21.710  -1.946  35.517  1.00  0.00    -0.268 OA
HETATM    5  N1  UNK     1      20.054  -2.534  34.017  1.00  0.00    -0.357 N 
HETATM    6  H5  UNK     1      19.057  -2.680  33.881  1.00  0.00     0.162 HD
BRANCH   5   7
HETATM    7  C1  UNK     1      20.932  -2.769  32.903  1.00  0.00     0.125 C 
BRANCH   7   8
HETATM    8  C2  UNK     1      20.552  -1.950  31.676  1.00  0.00     0.046 C 
BRANCH   8   9
HETATM    9  C4  UNK     1      19.196  -1.268  31.819  1.00  0.00     0.168 C 
BRANCH   9  10
HETATM   10  O1  UNK     1      19.405   0.116  32.064  1.00  0.00    -0.396 OA
HETATM   11  C19 UNK     1      19.381   0.868  30.858  1.00  0.00     0.201 C 
ENDBRANCH   9  10
ENDBRANCH   8   9
ENDBRANCH   7   8
ENDBRANCH   5   7
ENDBRANCH   1   3
BRANCH   1  12
HETATM   12  C6  UNK     1      18.742  -0.660  36.473  1.00  0.00    -0.021 A 
HETATM   13  C10 UNK     1      17.900  -0.489  37.558  1.00  0.00     0.012 A 
HETATM   14  C14 UNK     1      17.233   0.725  37.717  1.00  0.00     0.001 A 
HETATM   15  C15 UNK     1      17.419   1.750  36.790  1.00  0.00     0.000 A 
HETATM   16  C13 UNK     1      18.272   1.562  35.704  1.00  0.00     0.001 A 
HETATM   17  C9  UNK     1      18.939   0.347  35.543  1.00  0.00     0.012 A 
ENDBRANCH   1  12
BRANCH   2  18
HETATM   18  C8  UNK     1      19.836  -4.331  36.984  1.00  0.00    -0.035 A 
HETATM   19  C11 UNK     1      19.344  -5.271  36.091  1.00  0.00     0.011 A 
HETATM   20  C16 UNK     1      19.961  -6.518  35.998  1.00  0.00     0.001 A 
HETATM   21  C18 UNK     1      21.064  -6.811  36.800  1.00  0.00     0.000 A 
HETATM   22  C17 UNK     1      21.549  -5.857  37.694  1.00  0.00     0.001 A 
HETATM   23  C12 UNK     1      20.931  -4.610  37.787  1.00  0.00     0.011 A 
ENDBRANCH   2  18
TORSDOF 7
ENDMDL
MODEL 2
REMARK VINA RESULT:      -7.2      1.112      5.284
REMARK  7 active torsions:
REMARK  status: ('A' for Active; 'I' for Inactive)
REMARK    1  A    between atoms: C4_7  and  O1_1 
REMARK    2  A    between atoms: C1_4  and  N1_3 
REMARK       I    between atoms: C5_8  and  N1_3 
REMARK    3  A    between atoms: C1_4  and  C2_5 
REMARK    4  A    between atoms: C2_5  and  C4_7 
REMARK    5  A    between atoms: C3_6  and  C5_8 
REMARK    6  A    between atoms: C3_6  and  C6_9 
REMARK    7  A    between atoms: C7_10  and  C8_11 
ROOT
HETATM    1  C3  UNK     1      19.592  -3.265  36.400  1.00  0.00     0.043 C 
HETATM    2  C7  UNK     1      18.491  -2.816  37.037  1.00  0.00     0.029 C 
ENDROOT
BRANCH   1   3
HETATM    3  C5  UNK     1      20.176  -2.344  35.357  1.00  0.00     0.252 C 
HETATM    4  O2  UNK     1      20.913  -1.409  35.661  1.00  0.00    -0.268 OA
HETATM    5  N1  UNK     1      19.815  -2.651  34.051  1.00  0.00    -0.357 N 
HETATM    6  H5  UNK     1      19.209  -3.448  33.874  1.00  0.00     0.162 HD
BRANCH   5   7
HETATM    7  C1  UNK     1      20.281  -1.889  32.925  1.00  0.00     0.125 C 
BRANCH   7   8
HETATM    8  C2  UNK     1      19.138  -1.316  32.095  1.00  0.00     0.046 C 
BRANCH   8   9
HETATM    9  C4  UNK     1      19.438   0.080  31.562  1.00  0.00     0.168 C 
BRANCH   9  10
HETATM   10  O1  UNK     1      20.729   0.073  30.967  1.00  0.00    -0.396 OA
HETATM   11  C19 UNK     1      20.661  -0.234  29.580  1.00  0.00     0.201 C 
ENDBRANCH   9  10
ENDBRANCH   8   9
ENDBRANCH   7   8
ENDBRANCH   5   7
ENDBRANCH   1   3
BRANCH   1  12
HETATM   12  C6  UNK     1      20.182  -4.588  36.690  1.00  0.00    -0.021 A 
HETATM   13  C10 UNK     1      19.809  -5.677  35.922  1.00  0.00     0.012 A 
HETATM   14  C14 UNK     1      20.365  -6.926  36.197  1.00  0.00     0.001 A 
HETATM   15  C15 UNK     1      21.288  -7.065  37.234  1.00  0.00     0.000 A 
HETATM   16  C13 UNK     1      21.654  -5.957  37.996  1.00  0.00     0.001 A 
HETATM   17  C9  UNK     1      21.096  -4.708  37.723  1.00  0.00     0.012 A 
ENDBRANCH   1  12
BRANCH   2  18
HETATM   18  C8  UNK     1      17.837  -1.518  36.814  1.00  0.00    -0.035 A 
HETATM   19  C11 UNK     1      18.039  -0.488  37.720  1.00  0.00     0.011 A 
HETATM   20  C16 UNK     1      17.420   0.743  37.508  1.00  0.00     0.001 A 
HETATM   21  C18 UNK     1      16.605   0.931  36.392  1.00  0.00     0.000 A 
HETATM   22  C17 UNK     1      16.410  -0.113  35.488  1.00  0.00     0.001 A 
HETATM   23  C12 UNK     1      17.029  -1.345  35.700  1.00  0.00     0.011 A 
ENDBRANCH   2  18
TORSDOF 7
ENDMDL
MODEL 3
REMARK VINA RESULT:      -6.9      3.678      8.656
REMARK  7 active torsions:
REMARK  status: ('A' for Active; 'I' for Inactive)
REMARK    1  A    between atoms: C4_7  and  O1_1 
REMARK    2  A    between atoms: C1_4  and  N1_3 
REMARK       I    between atoms: C5_8  and  N1_3 
REMARK    3  A    between atoms: C1_4  and  C2_5 
REMARK    4  A    between atoms: C2_5  and  C4_7 
REMARK    5  A    between atoms: C3_6  and  C5_8 
REMARK    6  A    between atoms: C3_6  and  C6_9 
REMARK    7  A    between atoms: C7_10  and  C8_11 
ROOT
HETATM    1  C3  UNK     1      18.420   3.260  31.855  1.00  0.00     0.043 C 
HETATM    2  C7  UNK     1      18.438   4.596  31.663  1.00  0.00     0.029 C 
ENDROOT
BRANCH   1   3
HETATM    3  C5  UNK     1      18.214   2.799  33.276  1.00  0.00     0.252 C 
HETATM    4  O2  UNK     1      18.732   3.382  34.226  1.00  0.00    -0.268 OA
HETATM    5  N1  UNK     1      17.397   1.683  33.407  1.00  0.00    -0.357 N 
HETATM    6  H5  UNK     1      16.994   1.259  32.575  1.00  0.00     0.162 HD
BRANCH   5   7
HETATM    7  C1  UNK     1      17.082   1.105  34.684  1.00  0.00     0.125 C 
BRANCH   7   8
HETATM    8  C2  UNK     1      17.082  -0.419  34.652  1.00  0.00     0.046 C 
BRANCH   8   9
HETATM    9  C4  UNK     1      18.454  -1.015  34.943  1.00  0.00     0.168 C 
BRANCH   9  10
HETATM   10  O1  UNK     1      19.332  -0.679  33.877  1.00  0.00    -0.396 OA
HETATM   11  C19 UNK     1      19.451  -1.746  32.944  1.00  0.00     0.201 C 
ENDBRANCH   9  10
ENDBRANCH   8   9
ENDBRANCH   7   8
ENDBRANCH   5   7
ENDBRANCH   1   3
BRANCH   1  12
HETATM   12  C6  UNK     1      18.609   2.305  30.745  1.00  0.00    -0.021 A 
HETATM   13  C10 UNK     1      17.882   2.471  29.579  1.00  0.00     0.012 A 
HETATM   14  C14 UNK     1      18.061   1.569  28.531  1.00  0.00     0.001 A 
HETATM   15  C15 UNK     1      18.966   0.516  28.664  1.00  0.00     0.000 A 
HETATM   16  C13 UNK     1      19.691   0.364  29.845  1.00  0.00     0.001 A 
HETATM   17  C9  UNK     1      19.511   1.266  30.894  1.00  0.00     0.012 A 
ENDBRANCH   1  12
BRANCH   2  18
HETATM   18  C8  UNK     1      18.258   5.617  32.705  1.00  0.00    -0.035 A 
HETATM   19  C11 UNK     1      16.977   6.015  33.057  1.00  0.00     0.011 A 
HETATM   20  C16 UNK     1      16.806   6.983  34.045  1.00  0.00     0.001 A 
HETATM   21  C18 UNK     1      17.919   7.544  34.672  1.00  0.00     0.000 A 
HETATM   22  C17 UNK     1      19.202   7.135  34.309  1.00  0.00     0.001 A 
HETATM   23  C12 UNK     1      19.373   6.167  33.320  1.00  0.00     0.011 A 
ENDBRANCH   2  18
TORSDOF 7
ENDMDL
MODEL 4
REMARK VINA RESULT:      -6.9      3.462      7.858
REMARK  7 active torsions:
REMARK  status: ('A' for Active; 'I' for Inactive)
REMARK    1  A    between atoms: C4_7  and  O1_1 
REMARK    2  A    between atoms: C1_4  and  N1_3 
REMARK       I    between atoms: C5_8  and  N1_3 
REMARK    3  A    between atoms: C1_4  and  C2_5 
REMARK    4  A    between atoms: C2_5  and  C4_7 
REMARK    5  A    between atoms: C3_6  and  C5_8 
REMARK    6  A    between atoms: C3_6  and  C6_9 
REMARK    7  A    between atoms: C7_10  and  C8_11 
ROOT
HETATM    1  C3  UNK     1      18.262   2.524  33.067  1.00  0.00     0.043 C 
HETATM    2  C7  UNK     1      18.279   3.830  33.403  1.00  0.00     0.029 C 
ENDROOT
BRANCH   1   3
HETATM    3  C5  UNK     1      18.161   2.221  31.593  1.00  0.00     0.252 C 
HETATM    4  O2  UNK     1      17.185   2.565  30.928  1.00  0.00    -0.268 OA
HETATM    5  N1  UNK     1      19.251   1.540  31.069  1.00  0.00    -0.357 N 
HETATM    6  H5  UNK     1      20.029   1.297  31.677  1.00  0.00     0.162 HD
BRANCH   5   7
HETATM    7  C1  UNK     1      19.336   1.172  29.681  1.00  0.00     0.125 C 
BRANCH   7   8
HETATM    8  C2  UNK     1      20.367   0.079  29.428  1.00  0.00     0.046 C 
BRANCH   8   9
HETATM    9  C4  UNK     1      20.134  -1.161  30.283  1.00  0.00     0.168 C 
BRANCH   9  10
HETATM   10  O1  UNK     1      20.856  -1.019  31.499  1.00  0.00    -0.396 OA
HETATM   11  C19 UNK     1      20.869  -2.232  32.242  1.00  0.00     0.201 C 
ENDBRANCH   9  10
ENDBRANCH   8   9
ENDBRANCH   7   8
ENDBRANCH   5   7
ENDBRANCH   1   3
BRANCH   1  12
HETATM   12  C6  UNK     1      18.318   1.452  34.081  1.00  0.00    -0.021 A 
HETATM   13  C10 UNK     1      18.391   1.792  35.421  1.00  0.00     0.012 A 
HETATM   14  C14 UNK     1      18.444   0.779  36.378  1.00  0.00     0.001 A 
HETATM   15  C15 UNK     1      18.423  -0.558  35.981  1.00  0.00     0.000 A 
HETATM   16  C13 UNK     1      18.348  -0.882  34.627  1.00  0.00     0.001 A 
HETATM   17  C9  UNK     1      18.295   0.131  33.669  1.00  0.00     0.012 A 
ENDBRANCH   1  12
BRANCH   2  18
HETATM   18  C8  UNK     1      18.227   4.961  32.465  1.00  0.00    -0.035 A 
HETATM   19  C11 UNK     1      19.268   5.151  31.568  1.00  0.00     0.011 A 
HETATM   20  C16 UNK     1      19.219   6.223  30.677  1.00  0.00     0.001 A 
HETATM   21  C18 UNK     1      18.130   7.094  30.694  1.00  0.00     0.000 A 
HETATM   22  C17 UNK     1      17.090   6.892  31.601  1.00  0.00     0.001 A 
HETATM   23  C12 UNK     1      17.139   5.820  32.492  1.00  0.00     0.011 A 
ENDBRANCH   2  18
TORSDOF 7
ENDMDL
MODEL 5
REMARK VINA RESULT:      -6.8      1.563      6.500
REMARK  7 active torsions:
REMARK  status: ('A' for Active; 'I' for Inactive)
REMARK    1  A    between atoms: C4_7  and  O1_1 
REMARK    2  A    between atoms: C1_4  and  N1_3 
REMARK       I    between atoms: C5_8  and  N1_3 
REMARK    3  A    between atoms: C1_4  and  C2_5 
REMARK    4  A    between atoms: C2_5  and  C4_7 
REMARK    5  A    between atoms: C3_6  and  C5_8 
REMARK    6  A    between atoms: C3_6  and  C6_9 
REMARK    7  A    between atoms: C7_10  and  C8_11 
ROOT
HETATM    1  C3  UNK     1      19.146  -0.888  33.729  1.00  0.00     0.043 C 
HETATM    2  C7  UNK     1      18.236   0.096  33.879  1.00  0.00     0.029 C 
ENDROOT
BRANCH   1   3
HETATM    3  C5  UNK     1      19.621  -1.551  34.998  1.00  0.00     0.252 C 
HETATM    4  O2  UNK     1      20.719  -1.296  35.488  1.00  0.00    -0.268 OA
HETATM    5  N1  UNK     1      18.718  -2.449  35.551  1.00  0.00    -0.357 N 
HETATM    6  H5  UNK     1      17.822  -2.602  35.096  1.00  0.00     0.162 HD
BRANCH   5   7
HETATM    7  C1  UNK     1      18.994  -3.170  36.764  1.00  0.00     0.125 C 
BRANCH   7   8
HETATM    8  C2  UNK     1      19.822  -4.426  36.522  1.00  0.00     0.046 C 
BRANCH   8   9
HETATM    9  C4  UNK     1      20.837  -4.686  37.628  1.00  0.00     0.168 C 
BRANCH   9  10
HETATM   10  O1  UNK     1      21.692  -5.748  37.222  1.00  0.00    -0.396 OA
HETATM   11  C19 UNK     1      20.948  -6.898  36.841  1.00  0.00     0.201 C 
ENDBRANCH   9  10
ENDBRANCH   8   9
ENDBRANCH   7   8
ENDBRANCH   5   7
ENDBRANCH   1   3
BRANCH   1  12
HETATM   12  C6  UNK     1      19.663  -1.282  32.403  1.00  0.00    -0.021 A 
HETATM   13  C10 UNK     1      19.511  -0.416  31.334  1.00  0.00     0.012 A 
HETATM   14  C14 UNK     1      20.000  -0.789  30.081  1.00  0.00     0.001 A 
HETATM   15  C15 UNK     1      20.634  -2.020  29.918  1.00  0.00     0.000 A 
HETATM   16  C13 UNK     1      20.779  -2.879  31.007  1.00  0.00     0.001 A 
HETATM   17  C9  UNK     1      20.290  -2.508  32.259  1.00  0.00     0.012 A 
ENDBRANCH   1  12
BRANCH   2  18
HETATM   18  C8  UNK     1      17.666   0.553  35.155  1.00  0.00    -0.035 A 
HETATM   19  C11 UNK     1      18.449   1.300  36.023  1.00  0.00     0.011 A 
HETATM   20  C16 UNK     1      17.909   1.734  37.233  1.00  0.00     0.001 A 
HETATM   21  C18 UNK     1      16.592   1.417  37.563  1.00  0.00     0.000 A 
HETATM   22  C17 UNK     1      15.815   0.665  36.682  1.00  0.00     0.001 A 
HETATM   23  C12 UNK     1      16.355   0.230  35.471  1.00  0.00     0.011 A 
ENDBRANCH   2  18
TORSDOF 7
ENDMDL
MODEL 6
REMARK VINA RESULT:      -6.7      3.855      6.533
REMARK  7 active torsions:
REMARK  status: ('A' for Active; 'I' for Inactive)
REMARK    1  A    between atoms: C4_7  and  O1_1 
REMARK    2  A    between atoms: C1_4  and  N1_3 
REMARK       I    between atoms: C5_8  and  N1_3 
REMARK    3  A    between atoms: C1_4  and  C2_5 
REMARK    4  A    between atoms: C2_5  and  C4_7 
REMARK    5  A    between atoms: C3_6  and  C5_8 
REMARK    6  A    between atoms: C3_6  and  C6_9 
REMARK    7  A    between atoms: C7_10  and  C8_11 
ROOT
HETATM    1  C3  UNK     1      18.686   0.215  32.840  1.00  0.00     0.043 C 
HETATM    2  C7  UNK     1      18.159  -0.607  33.771  1.00  0.00     0.029 C 
ENDROOT
BRANCH   1   3
HETATM    3  C5  UNK     1      18.550   1.693  33.110  1.00  0.00     0.252 C 
HETATM    4  O2  UNK     1      18.945   2.197  34.160  1.00  0.00    -0.268 OA
HETATM    5  N1  UNK     1      17.959   2.415  32.081  1.00  0.00    -0.357 N 
HETATM    6  H5  UNK     1      17.667   1.932  31.236  1.00  0.00     0.162 HD
BRANCH   5   7
HETATM    7  C1  UNK     1      17.754   3.836  32.156  1.00  0.00     0.125 C 
BRANCH   7   8
HETATM    8  C2  UNK     1      18.716   4.612  31.265  1.00  0.00     0.046 C 
BRANCH   8   9
HETATM    9  C4  UNK     1      19.456   5.714  32.014  1.00  0.00     0.168 C 
BRANCH   9  10
HETATM   10  O1  UNK     1      19.225   5.551  33.408  1.00  0.00    -0.396 OA
HETATM   11  C19 UNK     1      19.200   6.803  34.081  1.00  0.00     0.201 C 
ENDBRANCH   9  10
ENDBRANCH   8   9
ENDBRANCH   7   8
ENDBRANCH   5   7
ENDBRANCH   1   3
BRANCH   1  12
HETATM   12  C6  UNK     1      19.339  -0.298  31.619  1.00  0.00    -0.021 A 
HETATM   13  C10 UNK     1      19.571   0.567  30.563  1.00  0.00     0.012 A 
HETATM   14  C14 UNK     1      20.187   0.081  29.410  1.00  0.00     0.001 A 
HETATM   15  C15 UNK     1      20.563  -1.259  29.331  1.00  0.00     0.000 A 
HETATM   16  C13 UNK     1      20.322  -2.116  30.405  1.00  0.00     0.001 A 
HETATM   17  C9  UNK     1      19.705  -1.631  31.558  1.00  0.00     0.012 A 
ENDBRANCH   1  12
BRANCH   2  18
HETATM   18  C8  UNK     1      17.493  -0.187  35.012  1.00  0.00    -0.035 A 
HETATM   19  C11 UNK     1      16.157   0.183  34.978  1.00  0.00     0.011 A 
HETATM   20  C16 UNK     1      15.525   0.581  36.155  1.00  0.00     0.001 A 
HETATM   21  C18 UNK     1      16.236   0.606  37.355  1.00  0.00     0.000 A 
HETATM   22  C17 UNK     1      17.579   0.231  37.376  1.00  0.00     0.001 A 
HETATM   23  C12 UNK     1      18.212  -0.167  36.198  1.00  0.00     0.011 A 
ENDBRANCH   2  18
TORSDOF 7
ENDMDL
MODEL 7
REMARK VINA RESULT:      -6.7      2.416      4.147
REMARK  7 active torsions:
REMARK  status: ('A' for Active; 'I' for Inactive)
REMARK    1  A    between atoms: C4_7  and  O1_1 
REMARK    2  A    between atoms: C1_4  and  N1_3 
REMARK       I    between atoms: C5_8  and  N1_3 
REMARK    3  A    between atoms: C1_4  and  C2_5 
REMARK    4  A    between atoms: C2_5  and  C4_7 
REMARK    5  A    between atoms: C3_6  and  C5_8 
REMARK    6  A    between atoms: C3_6  and  C6_9 
REMARK    7  A    between atoms: C7_10  and  C8_11 
ROOT
HETATM    1  C3  UNK     1      18.480   1.044  33.865  1.00  0.00     0.043 C 
HETATM    2  C7  UNK     1      18.589   0.768  35.181  1.00  0.00     0.029 C 
ENDROOT
BRANCH   1   3
HETATM    3  C5  UNK     1      18.537  -0.140  32.932  1.00  0.00     0.252 C 
HETATM    4  O2  UNK     1      17.651  -0.992  32.915  1.00  0.00    -0.268 OA
HETATM    5  N1  UNK     1      19.656  -0.172  32.110  1.00  0.00    -0.357 N 
HETATM    6  H5  UNK     1      20.344   0.574  32.173  1.00  0.00     0.162 HD
BRANCH   5   7
HETATM    7  C1  UNK     1      19.877  -1.221  31.152  1.00  0.00     0.125 C 
BRANCH   7   8
HETATM    8  C2  UNK     1      20.777  -0.781  30.003  1.00  0.00     0.046 C 
BRANCH   8   9
HETATM    9  C4  UNK     1      19.996  -0.199  28.831  1.00  0.00     0.168 C 
BRANCH   9  10
HETATM   10  O1  UNK     1      19.439   1.047  29.228  1.00  0.00    -0.396 OA
HETATM   11  C19 UNK     1      18.167   1.263  28.631  1.00  0.00     0.201 C 
ENDBRANCH   9  10
ENDBRANCH   8   9
ENDBRANCH   7   8
ENDBRANCH   5   7
ENDBRANCH   1   3
BRANCH   1  12
HETATM   12  C6  UNK     1      18.333   2.425  33.363  1.00  0.00    -0.021 A 
HETATM   13  C10 UNK     1      18.360   3.478  34.262  1.00  0.00     0.012 A 
HETATM   14  C14 UNK     1      18.221   4.782  33.788  1.00  0.00     0.001 A 
HETATM   15  C15 UNK     1      18.058   5.013  32.422  1.00  0.00     0.000 A 
HETATM   16  C13 UNK     1      18.035   3.942  31.530  1.00  0.00     0.001 A 
HETATM   17  C9  UNK     1      18.173   2.637  32.004  1.00  0.00     0.012 A 
ENDBRANCH   1  12
BRANCH   2  18
HETATM   18  C8  UNK     1      18.738  -0.571  35.769  1.00  0.00    -0.035 A 
HETATM   19  C11 UNK     1      17.667  -1.146  36.436  1.00  0.00     0.011 A 
HETATM   20  C16 UNK     1      17.807  -2.416  36.994  1.00  0.00     0.001 A 
HETATM   21  C18 UNK     1      19.018  -3.099  36.878  1.00  0.00     0.000 A 
HETATM   22  C17 UNK     1      20.088  -2.510  36.204  1.00  0.00     0.001 A 
HETATM   23  C12 UNK     1      19.948  -1.239  35.646  1.00  0.00     0.011 A 
ENDBRANCH   2  18
TORSDOF 7
ENDMDL
MODEL 8
REMARK VINA RESULT:      -6.7      2.810      5.483
REMARK  7 active torsions:
REMARK  status: ('A' for Active; 'I' for Inactive)
REMARK    1  A    between atoms: C4_7  and  O1_1 
REMARK    2  A    between atoms: C1_4  and  N1_3 
REMARK       I    between atoms: C5_8  and  N1_3 
REMARK    3  A    between atoms: C1_4  and  C2_5 
REMARK    4  A    between atoms: C2_5  and  C4_7 
REMARK    5  A    between atoms: C3_6  and  C5_8 
REMARK    6  A    between atoms: C3_6  and  C6_9 
REMARK    7  A    between atoms: C7_10  and  C8_11 
ROOT
HETATM    1  C3  UNK     1      19.853  -4.169  36.758  1.00  0.00     0.043 C 
HETATM    2  C7  UNK     1      20.492  -4.354  37.932  1.00  0.00     0.029 C 
ENDROOT
BRANCH   1   3
HETATM    3  C5  UNK     1      19.646  -5.403  35.915  1.00  0.00     0.252 C 
HETATM    4  O2  UNK     1      20.416  -5.700  35.004  1.00  0.00    -0.268 OA
HETATM    5  N1  UNK     1      18.533  -6.158  36.264  1.00  0.00    -0.357 N 
HETATM    6  H5  UNK     1      17.947  -5.857  37.037  1.00  0.00     0.162 HD
BRANCH   5   7
HETATM    7  C1  UNK     1      18.181  -7.372  35.578  1.00  0.00     0.125 C 
BRANCH   7   8
HETATM    8  C2  UNK     1      18.661  -8.618  36.312  1.00  0.00     0.046 C 
BRANCH   8   9
HETATM    9  C4  UNK     1      20.147  -8.890  36.105  1.00  0.00     0.168 C 
BRANCH   9  10
HETATM   10  O1  UNK     1      20.484 -10.103  36.764  1.00  0.00    -0.396 OA
HETATM   11  C19 UNK     1      19.402 -10.588  37.548  1.00  0.00     0.201 C 
ENDBRANCH   9  10
ENDBRANCH   8   9
ENDBRANCH   7   8
ENDBRANCH   5   7
ENDBRANCH   1   3
BRANCH   1  12
HETATM   12  C6  UNK     1      19.400  -2.836  36.313  1.00  0.00    -0.021 A 
HETATM   13  C10 UNK     1      19.719  -2.405  35.037  1.00  0.00     0.012 A 
HETATM   14  C14 UNK     1      19.292  -1.145  34.618  1.00  0.00     0.001 A 
HETATM   15  C15 UNK     1      18.549  -0.338  35.480  1.00  0.00     0.000 A 
HETATM   16  C13 UNK     1      18.235  -0.789  36.761  1.00  0.00     0.001 A 
HETATM   17  C9  UNK     1      18.664  -2.048  37.182  1.00  0.00     0.012 A 
ENDBRANCH   1  12
BRANCH   2  18
HETATM   18  C8  UNK     1      20.978  -5.640  38.454  1.00  0.00    -0.035 A 
HETATM   19  C11 UNK     1      22.308  -5.989  38.277  1.00  0.00     0.011 A 
HETATM   20  C16 UNK     1      22.769  -7.208  38.773  1.00  0.00     0.001 A 
HETATM   21  C18 UNK     1      21.894  -8.066  39.439  1.00  0.00     0.000 A 
HETATM   22  C17 UNK     1      20.558  -7.703  39.610  1.00  0.00     0.001 A 
HETATM   23  C12 UNK     1      20.097  -6.484  39.114  1.00  0.00     0.011 A 
ENDBRANCH   2  18
TORSDOF 7
ENDMDL
MODEL 9
REMARK VINA RESULT:      -6.6     27.037     29.268
REMARK  7 active torsions:
REMARK  status: ('A' for Active; 'I' for Inactive)
REMARK    1  A    between atoms: C4_7  and  O1_1 
REMARK    2  A    between atoms: C1_4  and  N1_3 
REMARK       I    between atoms: C5_8  and  N1_3 
REMARK    3  A    between atoms: C1_4  and  C2_5 
REMARK    4  A    between atoms: C2_5  and  C4_7 
REMARK    5  A    between atoms: C3_6  and  C5_8 
REMARK    6  A    between atoms: C3_6  and  C6_9 
REMARK    7  A    between atoms: C7_10  and  C8_11 
ROOT
HETATM    1  C3  UNK     1      13.044   8.430   8.989  1.00  0.00     0.043 C 
HETATM    2  C7  UNK     1      11.978   8.697   8.207  1.00  0.00     0.029 C 
ENDROOT
BRANCH   1   3
HETATM    3  C5  UNK     1      13.147   7.017   9.507  1.00  0.00     0.252 C 
HETATM    4  O2  UNK     1      12.603   6.671  10.554  1.00  0.00    -0.268 OA
HETATM    5  N1  UNK     1      13.891   6.162   8.704  1.00  0.00    -0.357 N 
HETATM    6  H5  UNK     1      14.304   6.516   7.845  1.00  0.00     0.162 HD
BRANCH   5   7
HETATM    7  C1  UNK     1      14.092   4.777   9.034  1.00  0.00     0.125 C 
BRANCH   7   8
HETATM    8  C2  UNK     1      15.363   4.548   9.843  1.00  0.00     0.046 C 
BRANCH   8   9
HETATM    9  C4  UNK     1      16.443   5.583   9.551  1.00  0.00     0.168 C 
BRANCH   9  10
HETATM   10  O1  UNK     1      16.349   6.624  10.515  1.00  0.00    -0.396 OA
HETATM   11  C19 UNK     1      17.235   7.694  10.213  1.00  0.00     0.201 C 
ENDBRANCH   9  10
ENDBRANCH   8   9
ENDBRANCH   7   8
ENDBRANCH   5   7
ENDBRANCH   1   3
BRANCH   1  12
HETATM   12  C6  UNK     1      14.041   9.462   9.336  1.00  0.00    -0.021 A 
HETATM   13  C10 UNK     1      14.121   9.913  10.642  1.00  0.00     0.012 A 
HETATM   14  C14 UNK     1      15.063  10.889  10.969  1.00  0.00     0.001 A 
HETATM   15  C15 UNK     1      15.911  11.396   9.985  1.00  0.00     0.000 A 
HETATM   16  C13 UNK     1      15.818  10.930   8.674  1.00  0.00     0.001 A 
HETATM   17  C9  UNK     1      14.875   9.955   8.346  1.00  0.00     0.012 A 
ENDBRANCH   1  12
BRANCH   2  18
HETATM   18  C8  UNK     1      10.938   7.736   7.811  1.00  0.00    -0.035 A 
HETATM   19  C11 UNK     1       9.870   7.498   8.662  1.00  0.00     0.011 A 
HETATM   20  C16 UNK     1       8.883   6.587   8.287  1.00  0.00     0.001 A 
HETATM   21  C18 UNK     1       8.977   5.922   7.064  1.00  0.00     0.000 A 
HETATM   22  C17 UNK     1      10.056   6.170   6.217  1.00  0.00     0.001 A 
HETATM   23  C12 UNK     1      11.044   7.081   6.592  1.00  0.00     0.011 A 
ENDBRANCH   2  18
TORSDOF 7
ENDMDL
MODEL 10
REMARK VINA RESULT:      -6.5     27.637     29.836
REMARK  7 active torsions:
REMARK  status: ('A' for Active; 'I' for Inactive)
REMARK    1  A    between atoms: C4_7  and  O1_1 
REMARK    2  A    between atoms: C1_4  and  N1_3 
REMARK       I    between atoms: C5_8  and  N1_3 
REMARK    3  A    between atoms: C1_4  and  C2_5 
REMARK    4  A    between atoms: C2_5  and  C4_7 
REMARK    5  A    between atoms: C3_6  and  C5_8 
REMARK    6  A    between atoms: C3_6  and  C6_9 
REMARK    7  A    between atoms: C7_10  and  C8_11 
ROOT
HETATM    1  C3  UNK     1      12.291   7.855   8.549  1.00  0.00     0.043 C 
HETATM    2  C7  UNK     1      13.582   7.751   8.171  1.00  0.00     0.029 C 
ENDROOT
BRANCH   1   3
HETATM    3  C5  UNK     1      12.028   8.669   9.791  1.00  0.00     0.252 C 
HETATM    4  O2  UNK     1      12.300   8.244  10.912  1.00  0.00    -0.268 OA
HETATM    5  N1  UNK     1      11.470   9.919   9.553  1.00  0.00    -0.357 N 
HETATM    6  H5  UNK     1      11.282  10.208   8.597  1.00  0.00     0.162 HD
BRANCH   5   7
HETATM    7  C1  UNK     1      11.157  10.837  10.614  1.00  0.00     0.125 C 
BRANCH   7   8
HETATM    8  C2  UNK     1       9.766  11.441  10.472  1.00  0.00     0.046 C 
BRANCH   8   9
HETATM    9  C4  UNK     1       8.685  10.597  11.139  1.00  0.00     0.168 C 
BRANCH   9  10
HETATM   10  O1  UNK     1       8.797   9.260  10.669  1.00  0.00    -0.396 OA
HETATM   11  C19 UNK     1       7.537   8.602  10.668  1.00  0.00     0.201 C 
ENDBRANCH   9  10
ENDBRANCH   8   9
ENDBRANCH   7   8
ENDBRANCH   5   7
ENDBRANCH   1   3
BRANCH   1  12
HETATM   12  C6  UNK     1      11.200   7.195   7.804  1.00  0.00    -0.021 A 
HETATM   13  C10 UNK     1      10.036   6.854   8.472  1.00  0.00     0.012 A 
HETATM   14  C14 UNK     1       9.006   6.230   7.768  1.00  0.00     0.001 A 
HETATM   15  C15 UNK     1       9.156   5.957   6.408  1.00  0.00     0.000 A 
HETATM   16  C13 UNK     1      10.335   6.308   5.752  1.00  0.00     0.001 A 
HETATM   17  C9  UNK     1      11.366   6.931   6.455  1.00  0.00     0.012 A 
ENDBRANCH   1  12
BRANCH   2  18
HETATM   18  C8  UNK     1      14.729   8.372   8.849  1.00  0.00    -0.035 A 
HETATM   19  C11 UNK     1      15.020   9.708   8.614  1.00  0.00     0.011 A 
HETATM   20  C16 UNK     1      16.107  10.297   9.257  1.00  0.00     0.001 A 
HETATM   21  C18 UNK     1      16.893   9.545  10.129  1.00  0.00     0.000 A 
HETATM   22  C17 UNK     1      16.590   8.203  10.358  1.00  0.00     0.001 A 
HETATM   23  C12 UNK     1      15.503   7.613   9.714  1.00  0.00     0.011 A 
ENDBRANCH   2  18
TORSDOF 7
ENDMDL
