MODEL 1
REMARK VINA RESULT:      -8.2      0.000      0.000
REMARK  2 active torsions:
REMARK  status: ('A' for Active; 'I' for Inactive)
REMARK    1  A    between atoms: C7_10  and  O2_2 
REMARK    2  A    between atoms: C3_6  and  C8_11 
ROOT
HETATM    1  O1  UNK     1      18.880   3.510  30.676  1.00  0.00    -0.306 OA
HETATM    2  O3  UNK     1      17.948   2.883  34.593  1.00  0.00    -0.284 OA
HETATM    3  C1  UNK     1      18.240   4.424  32.832  1.00  0.00     0.051 A 
HETATM    4  C2  UNK     1      18.569   4.572  31.487  1.00  0.00     0.090 A 
HETATM    5  C3  UNK     1      18.852   2.235  31.218  1.00  0.00     0.123 A 
HETATM    6  C4  UNK     1      17.933   5.543  33.610  1.00  0.00     0.025 A 
HETATM    7  C5  UNK     1      18.224   3.074  33.417  1.00  0.00     0.220 A 
HETATM    8  C6  UNK     1      17.957   6.812  33.031  1.00  0.00    -0.061 A 
HETATM    9  C7  UNK     1      18.560   1.957  32.502  1.00  0.00     0.152 A 
HETATM   10  C9  UNK     1      18.594   5.841  30.910  1.00  0.00     0.039 A 
HETATM   11  C10 UNK     1      18.287   6.961  31.683  1.00  0.00     0.009 A 
HETATM   12  C11 UNK     1      17.630   8.012  33.855  1.00  0.00     0.048 C 
ENDROOT
BRANCH   5  13
HETATM   13  C8  UNK     1      19.203   1.188  30.243  1.00  0.00     0.001 A 
HETATM   14  C12 UNK     1      18.473   1.061  29.061  1.00  0.00     0.014 A 
HETATM   15  C14 UNK     1      18.805   0.070  28.138  1.00  0.00     0.001 A 
HETATM   16  C16 UNK     1      19.869  -0.795  28.395  1.00  0.00     0.000 A 
HETATM   17  C15 UNK     1      20.600  -0.668  29.576  1.00  0.00     0.001 A 
HETATM   18  C13 UNK     1      20.267   0.323  30.499  1.00  0.00     0.014 A 
ENDBRANCH   5  13
BRANCH   9  19
HETATM   19  O2  UNK     1      18.574   0.679  33.017  1.00  0.00    -0.355 OA
HETATM   20  H12 UNK     1      17.970   0.621  33.774  1.00  0.00     0.218 HD
ENDBRANCH   9  19
TORSDOF 2
ENDMDL
MODEL 2
REMARK VINA RESULT:      -8.0     22.252     24.178
REMARK  2 active torsions:
REMARK  status: ('A' for Active; 'I' for Inactive)
REMARK    1  A    between atoms: C7_10  and  O2_2 
REMARK    2  A    between atoms: C3_6  and  C8_11 
ROOT
HETATM    1  O1  UNK     1      13.183   8.489   8.073  1.00  0.00    -0.306 OA
HETATM    2  O3  UNK     1      15.112   6.255  10.882  1.00  0.00    -0.284 OA
HETATM    3  C1  UNK     1      15.069   8.218   9.577  1.00  0.00     0.051 A 
HETATM    4  C2  UNK     1      14.363   8.933   8.612  1.00  0.00     0.090 A 
HETATM    5  C3  UNK     1      12.666   7.282   8.518  1.00  0.00     0.123 A 
HETATM    6  C4  UNK     1      16.267   8.720  10.090  1.00  0.00     0.025 A 
HETATM    7  C5  UNK     1      14.534   6.930  10.042  1.00  0.00     0.220 A 
HETATM    8  C6  UNK     1      16.754   9.945   9.630  1.00  0.00    -0.061 A 
HETATM    9  C7  UNK     1      13.253   6.492   9.436  1.00  0.00     0.152 A 
HETATM   10  C9  UNK     1      14.851  10.157   8.153  1.00  0.00     0.039 A 
HETATM   11  C10 UNK     1      16.047  10.662   8.663  1.00  0.00     0.009 A 
HETATM   12  C11 UNK     1      18.033  10.489  10.172  1.00  0.00     0.048 C 
ENDROOT
BRANCH   5  13
HETATM   13  C8  UNK     1      11.397   6.923   7.861  1.00  0.00     0.001 A 
HETATM   14  C12 UNK     1      11.403   6.410   6.563  1.00  0.00     0.014 A 
HETATM   15  C14 UNK     1      10.201   6.071   5.941  1.00  0.00     0.001 A 
HETATM   16  C16 UNK     1       8.993   6.242   6.617  1.00  0.00     0.000 A 
HETATM   17  C15 UNK     1       8.987   6.754   7.914  1.00  0.00     0.001 A 
HETATM   18  C13 UNK     1      10.188   7.094   8.536  1.00  0.00     0.014 A 
ENDBRANCH   5  13
BRANCH   9  19
HETATM   19  O2  UNK     1      12.728   5.281   9.832  1.00  0.00    -0.355 OA
HETATM   20  H12 UNK     1      11.950   5.067   9.293  1.00  0.00     0.218 HD
ENDBRANCH   9  19
TORSDOF 2
ENDMDL
MODEL 3
REMARK VINA RESULT:      -7.8      3.733      6.824
REMARK  2 active torsions:
REMARK  status: ('A' for Active; 'I' for Inactive)
REMARK    1  A    between atoms: C7_10  and  O2_2 
REMARK    2  A    between atoms: C3_6  and  C8_11 
ROOT
HETATM    1  O1  UNK     1      18.318   0.541  33.153  1.00  0.00    -0.306 OA
HETATM    2  O3  UNK     1      20.465  -2.920  33.280  1.00  0.00    -0.284 OA
HETATM    3  C1  UNK     1      19.792  -1.032  32.037  1.00  0.00     0.051 A 
HETATM    4  C2  UNK     1      19.037   0.138  32.057  1.00  0.00     0.090 A 
HETATM    5  C3  UNK     1      18.356  -0.245  34.294  1.00  0.00     0.123 A 
HETATM    6  C4  UNK     1      20.504  -1.393  30.891  1.00  0.00     0.025 A 
HETATM    7  C5  UNK     1      19.824  -1.879  33.240  1.00  0.00     0.220 A 
HETATM    8  C6  UNK     1      20.455  -0.573  29.763  1.00  0.00    -0.061 A 
HETATM    9  C7  UNK     1      19.038  -1.401  34.402  1.00  0.00     0.152 A 
HETATM   10  C9  UNK     1      18.988   0.957  30.929  1.00  0.00     0.039 A 
HETATM   11  C10 UNK     1      19.699   0.600  29.782  1.00  0.00     0.009 A 
HETATM   12  C11 UNK     1      21.212  -0.951  28.535  1.00  0.00     0.048 C 
ENDROOT
BRANCH   5  13
HETATM   13  C8  UNK     1      17.545   0.300  35.395  1.00  0.00     0.001 A 
HETATM   14  C12 UNK     1      16.157   0.155  35.380  1.00  0.00     0.014 A 
HETATM   15  C14 UNK     1      15.389   0.672  36.423  1.00  0.00     0.001 A 
HETATM   16  C16 UNK     1      16.008   1.334  37.483  1.00  0.00     0.000 A 
HETATM   17  C15 UNK     1      17.395   1.480  37.499  1.00  0.00     0.001 A 
HETATM   18  C13 UNK     1      18.163   0.963  36.457  1.00  0.00     0.014 A 
ENDBRANCH   5  13
BRANCH   9  19
HETATM   19  O2  UNK     1      19.028  -2.176  35.541  1.00  0.00    -0.355 OA
HETATM   20  H12 UNK     1      19.419  -3.044  35.354  1.00  0.00     0.218 HD
ENDBRANCH   9  19
TORSDOF 2
ENDMDL
MODEL 4
REMARK VINA RESULT:      -7.7     24.080     25.086
REMARK  2 active torsions:
REMARK  status: ('A' for Active; 'I' for Inactive)
REMARK    1  A    between atoms: C7_10  and  O2_2 
REMARK    2  A    between atoms: C3_6  and  C8_11 
ROOT
HETATM    1  O1  UNK     1       7.711   4.509   9.039  1.00  0.00    -0.306 OA
HETATM    2  O3  UNK     1       6.587   7.386  11.697  1.00  0.00    -0.284 OA
HETATM    3  C1  UNK     1       6.304   5.185  10.898  1.00  0.00     0.051 A 
HETATM    4  C2  UNK     1       6.731   4.246   9.962  1.00  0.00     0.090 A 
HETATM    5  C3  UNK     1       8.309   5.759   9.049  1.00  0.00     0.123 A 
HETATM    6  C4  UNK     1       5.300   4.861  11.814  1.00  0.00     0.025 A 
HETATM    7  C5  UNK     1       6.924   6.518  10.903  1.00  0.00     0.220 A 
HETATM    8  C6  UNK     1       4.727   3.589  11.787  1.00  0.00    -0.061 A 
HETATM    9  C7  UNK     1       7.983   6.755   9.892  1.00  0.00     0.152 A 
HETATM   10  C9  UNK     1       6.157   2.975   9.936  1.00  0.00     0.039 A 
HETATM   11  C10 UNK     1       5.155   2.647  10.849  1.00  0.00     0.009 A 
HETATM   12  C11 UNK     1       3.655   3.235  12.762  1.00  0.00     0.048 C 
ENDROOT
BRANCH   5  13
HETATM   13  C8  UNK     1       9.344   5.909   8.011  1.00  0.00     0.001 A 
HETATM   14  C12 UNK     1       8.981   6.241   6.705  1.00  0.00     0.014 A 
HETATM   15  C14 UNK     1       9.960   6.382   5.722  1.00  0.00     0.001 A 
HETATM   16  C16 UNK     1      11.304   6.193   6.044  1.00  0.00     0.000 A 
HETATM   17  C15 UNK     1      11.668   5.861   7.349  1.00  0.00     0.001 A 
HETATM   18  C13 UNK     1      10.688   5.720   8.332  1.00  0.00     0.014 A 
ENDBRANCH   5  13
BRANCH   9  19
HETATM   19  O2  UNK     1       8.576   7.999   9.853  1.00  0.00    -0.355 OA
HETATM   20  H12 UNK     1       8.360   8.440   9.016  1.00  0.00     0.218 HD
ENDBRANCH   9  19
TORSDOF 2
ENDMDL
MODEL 5
REMARK VINA RESULT:      -7.6      4.546      9.283
REMARK  2 active torsions:
REMARK  status: ('A' for Active; 'I' for Inactive)
REMARK    1  A    between atoms: C7_10  and  O2_2 
REMARK    2  A    between atoms: C3_6  and  C8_11 
ROOT
HETATM    1  O1  UNK     1      17.439   9.319  34.274  1.00  0.00    -0.306 OA
HETATM    2  O3  UNK     1      15.480   7.852  31.015  1.00  0.00    -0.284 OA
HETATM    3  C1  UNK     1      17.415   7.822  32.363  1.00  0.00     0.051 A 
HETATM    4  C2  UNK     1      18.032   8.365  33.487  1.00  0.00     0.090 A 
HETATM    5  C3  UNK     1      16.164   9.751  33.940  1.00  0.00     0.123 A 
HETATM    6  C4  UNK     1      18.069   6.852  31.598  1.00  0.00     0.025 A 
HETATM    7  C5  UNK     1      16.070   8.288  31.995  1.00  0.00     0.220 A 
HETATM    8  C6  UNK     1      19.346   6.429  31.969  1.00  0.00    -0.061 A 
HETATM    9  C7  UNK     1      15.465   9.314  32.876  1.00  0.00     0.152 A 
HETATM   10  C9  UNK     1      19.309   7.941  33.856  1.00  0.00     0.039 A 
HETATM   11  C10 UNK     1      19.965   6.972  33.096  1.00  0.00     0.009 A 
HETATM   12  C11 UNK     1      20.051   5.394  31.159  1.00  0.00     0.048 C 
ENDROOT
BRANCH   5  13
HETATM   13  C8  UNK     1      15.644  10.773  34.864  1.00  0.00     0.001 A 
HETATM   14  C12 UNK     1      14.509  10.508  35.631  1.00  0.00     0.014 A 
HETATM   15  C14 UNK     1      14.016  11.476  36.506  1.00  0.00     0.001 A 
HETATM   16  C16 UNK     1      14.658  12.710  36.615  1.00  0.00     0.000 A 
HETATM   17  C15 UNK     1      15.792  12.975  35.848  1.00  0.00     0.001 A 
HETATM   18  C13 UNK     1      16.285  12.007  34.974  1.00  0.00     0.014 A 
ENDBRANCH   5  13
BRANCH   9  19
HETATM   19  O2  UNK     1      14.212   9.790  32.554  1.00  0.00    -0.355 OA
HETATM   20  H12 UNK     1      13.619   9.702  33.317  1.00  0.00     0.218 HD
ENDBRANCH   9  19
TORSDOF 2
ENDMDL
MODEL 6
REMARK VINA RESULT:      -7.6      2.671      6.684
REMARK  2 active torsions:
REMARK  status: ('A' for Active; 'I' for Inactive)
REMARK    1  A    between atoms: C7_10  and  O2_2 
REMARK    2  A    between atoms: C3_6  and  C8_11 
ROOT
HETATM    1  O1  UNK     1      18.721  -0.156  33.435  1.00  0.00    -0.306 OA
HETATM    2  O3  UNK     1      18.829   2.974  30.827  1.00  0.00    -0.284 OA
HETATM    3  C1  UNK     1      19.320   0.705  31.245  1.00  0.00     0.051 A 
HETATM    4  C2  UNK     1      19.256  -0.323  32.183  1.00  0.00     0.090 A 
HETATM    5  C3  UNK     1      18.211   1.088  33.775  1.00  0.00     0.123 A 
HETATM    6  C4  UNK     1      19.878   0.477  29.985  1.00  0.00     0.025 A 
HETATM    7  C5  UNK     1      18.795   2.031  31.606  1.00  0.00     0.220 A 
HETATM    8  C6  UNK     1      20.371  -0.790  29.670  1.00  0.00    -0.061 A 
HETATM    9  C7  UNK     1      18.220   2.163  32.966  1.00  0.00     0.152 A 
HETATM   10  C9  UNK     1      19.750  -1.588  31.866  1.00  0.00     0.039 A 
HETATM   11  C10 UNK     1      20.306  -1.821  30.608  1.00  0.00     0.009 A 
HETATM   12  C11 UNK     1      20.967  -1.043  28.326  1.00  0.00     0.048 C 
ENDROOT
BRANCH   5  13
HETATM   13  C8  UNK     1      17.667   1.131  35.143  1.00  0.00     0.001 A 
HETATM   14  C12 UNK     1      16.381   0.653  35.399  1.00  0.00     0.014 A 
HETATM   15  C14 UNK     1      15.865   0.694  36.694  1.00  0.00     0.001 A 
HETATM   16  C16 UNK     1      16.636   1.213  37.735  1.00  0.00     0.000 A 
HETATM   17  C15 UNK     1      17.921   1.691  37.480  1.00  0.00     0.001 A 
HETATM   18  C13 UNK     1      18.437   1.649  36.185  1.00  0.00     0.014 A 
ENDBRANCH   5  13
BRANCH   9  19
HETATM   19  O2  UNK     1      17.735   3.395  33.349  1.00  0.00    -0.355 OA
HETATM   20  H12 UNK     1      18.328   3.795  34.004  1.00  0.00     0.218 HD
ENDBRANCH   9  19
TORSDOF 2
ENDMDL
MODEL 7
REMARK VINA RESULT:      -7.5      2.578      6.352
REMARK  2 active torsions:
REMARK  status: ('A' for Active; 'I' for Inactive)
REMARK    1  A    between atoms: C7_10  and  O2_2 
REMARK    2  A    between atoms: C3_6  and  C8_11 
ROOT
HETATM    1  O1  UNK     1      18.189   3.277  34.952  1.00  0.00    -0.306 OA
HETATM    2  O3  UNK     1      18.447   0.306  32.174  1.00  0.00    -0.284 OA
HETATM    3  C1  UNK     1      18.231   0.903  34.445  1.00  0.00     0.051 A 
HETATM    4  C2  UNK     1      18.150   1.963  35.345  1.00  0.00     0.090 A 
HETATM    5  C3  UNK     1      18.301   3.558  33.599  1.00  0.00     0.123 A 
HETATM    6  C4  UNK     1      18.187  -0.416  34.904  1.00  0.00     0.025 A 
HETATM    7  C5  UNK     1      18.366   1.196  33.010  1.00  0.00     0.220 A 
HETATM    8  C6  UNK     1      18.060  -0.665  36.271  1.00  0.00    -0.061 A 
HETATM    9  C7  UNK     1      18.397   2.628  32.631  1.00  0.00     0.152 A 
HETATM   10  C9  UNK     1      18.024   1.712  36.711  1.00  0.00     0.039 A 
HETATM   11  C10 UNK     1      17.978   0.396  37.173  1.00  0.00     0.009 A 
HETATM   12  C11 UNK     1      18.012  -2.071  36.769  1.00  0.00     0.048 C 
ENDROOT
BRANCH   5  13
HETATM   13  C8  UNK     1      18.330   5.003  33.313  1.00  0.00     0.001 A 
HETATM   14  C12 UNK     1      17.252   5.610  32.669  1.00  0.00     0.014 A 
HETATM   15  C14 UNK     1      17.280   6.978  32.398  1.00  0.00     0.001 A 
HETATM   16  C16 UNK     1      18.386   7.741  32.773  1.00  0.00     0.000 A 
HETATM   17  C15 UNK     1      19.465   7.135  33.417  1.00  0.00     0.001 A 
HETATM   18  C13 UNK     1      19.437   5.767  33.688  1.00  0.00     0.014 A 
ENDBRANCH   5  13
BRANCH   9  19
HETATM   19  O2  UNK     1      18.541   2.944  31.297  1.00  0.00    -0.355 OA
HETATM   20  H12 UNK     1      18.245   3.855  31.140  1.00  0.00     0.218 HD
ENDBRANCH   9  19
TORSDOF 2
ENDMDL
MODEL 8
REMARK VINA RESULT:      -7.5      4.289      6.160
REMARK  2 active torsions:
REMARK  status: ('A' for Active; 'I' for Inactive)
REMARK    1  A    between atoms: C7_10  and  O2_2 
REMARK    2  A    between atoms: C3_6  and  C8_11 
ROOT
HETATM    1  O1  UNK     1      17.761   8.925  33.155  1.00  0.00    -0.306 OA
HETATM    2  O3  UNK     1      14.065   7.307  33.724  1.00  0.00    -0.284 OA
HETATM    3  C1  UNK     1      15.504   9.151  34.019  1.00  0.00     0.051 A 
HETATM    4  C2  UNK     1      16.787   9.646  33.796  1.00  0.00     0.090 A 
HETATM    5  C3  UNK     1      17.450   7.653  32.699  1.00  0.00     0.123 A 
HETATM    6  C4  UNK     1      14.552   9.932  34.680  1.00  0.00     0.025 A 
HETATM    7  C5  UNK     1      15.172   7.797  33.552  1.00  0.00     0.220 A 
HETATM    8  C6  UNK     1      14.894  11.213  35.115  1.00  0.00    -0.061 A 
HETATM    9  C7  UNK     1      16.254   7.057  32.859  1.00  0.00     0.152 A 
HETATM   10  C9  UNK     1      17.127  10.927  34.232  1.00  0.00     0.039 A 
HETATM   11  C10 UNK     1      16.179  11.710  34.891  1.00  0.00     0.009 A 
HETATM   12  C11 UNK     1      13.883  12.054  35.820  1.00  0.00     0.048 C 
ENDROOT
BRANCH   5  13
HETATM   13  C8  UNK     1      18.581   6.990  32.029  1.00  0.00     0.001 A 
HETATM   14  C12 UNK     1      19.769   6.761  32.725  1.00  0.00     0.014 A 
HETATM   15  C14 UNK     1      20.841   6.133  32.090  1.00  0.00     0.001 A 
HETATM   16  C16 UNK     1      20.725   5.732  30.759  1.00  0.00     0.000 A 
HETATM   17  C15 UNK     1      19.539   5.961  30.062  1.00  0.00     0.001 A 
HETATM   18  C13 UNK     1      18.467   6.589  30.697  1.00  0.00     0.014 A 
ENDBRANCH   5  13
BRANCH   9  19
HETATM   19  O2  UNK     1      15.988   5.777  32.422  1.00  0.00    -0.355 OA
HETATM   20  H12 UNK     1      16.612   5.154  32.827  1.00  0.00     0.218 HD
ENDBRANCH   9  19
TORSDOF 2
ENDMDL
MODEL 9
REMARK VINA RESULT:      -7.5      2.984      5.034
REMARK  2 active torsions:
REMARK  status: ('A' for Active; 'I' for Inactive)
REMARK    1  A    between atoms: C7_10  and  O2_2 
REMARK    2  A    between atoms: C3_6  and  C8_11 
ROOT
HETATM    1  O1  UNK     1      17.013   7.339  32.299  1.00  0.00    -0.306 OA
HETATM    2  O3  UNK     1      19.897   9.165  34.524  1.00  0.00    -0.284 OA
HETATM    3  C1  UNK     1      17.690   9.206  33.694  1.00  0.00     0.051 A 
HETATM    4  C2  UNK     1      16.749   8.534  32.918  1.00  0.00     0.090 A 
HETATM    5  C3  UNK     1      18.267   6.772  32.464  1.00  0.00     0.123 A 
HETATM    6  C4  UNK     1      17.365  10.422  34.300  1.00  0.00     0.025 A 
HETATM    7  C5  UNK     1      19.028   8.617  33.860  1.00  0.00     0.220 A 
HETATM    8  C6  UNK     1      16.089  10.960  34.125  1.00  0.00    -0.061 A 
HETATM    9  C7  UNK     1      19.266   7.323  33.178  1.00  0.00     0.152 A 
HETATM   10  C9  UNK     1      15.475   9.073  32.743  1.00  0.00     0.039 A 
HETATM   11  C10 UNK     1      15.145  10.286  33.348  1.00  0.00     0.009 A 
HETATM   12  C11 UNK     1      15.734  12.257  34.769  1.00  0.00     0.048 C 
ENDROOT
BRANCH   5  13
HETATM   13  C8  UNK     1      18.418   5.492  31.750  1.00  0.00     0.001 A 
HETATM   14  C12 UNK     1      18.894   5.476  30.438  1.00  0.00     0.014 A 
HETATM   15  C14 UNK     1      19.036   4.264  29.762  1.00  0.00     0.001 A 
HETATM   16  C16 UNK     1      18.703   3.067  30.397  1.00  0.00     0.000 A 
HETATM   17  C15 UNK     1      18.227   3.083  31.708  1.00  0.00     0.001 A 
HETATM   18  C13 UNK     1      18.085   4.295  32.384  1.00  0.00     0.014 A 
ENDBRANCH   5  13
BRANCH   9  19
HETATM   19  O2  UNK     1      20.512   6.747  33.294  1.00  0.00    -0.355 OA
HETATM   20  H12 UNK     1      20.471   5.814  33.032  1.00  0.00     0.218 HD
ENDBRANCH   9  19
TORSDOF 2
ENDMDL
MODEL 10
REMARK VINA RESULT:      -7.4     22.016     24.348
REMARK  2 active torsions:
REMARK  status: ('A' for Active; 'I' for Inactive)
REMARK    1  A    between atoms: C7_10  and  O2_2 
REMARK    2  A    between atoms: C3_6  and  C8_11 
ROOT
HETATM    1  O1  UNK     1      12.889   6.476   8.521  1.00  0.00    -0.306 OA
HETATM    2  O3  UNK     1      13.645  10.153  10.106  1.00  0.00    -0.284 OA
HETATM    3  C1  UNK     1      14.429   7.977   9.646  1.00  0.00     0.051 A 
HETATM    4  C2  UNK     1      14.108   6.741   9.090  1.00  0.00     0.090 A 
HETATM    5  C3  UNK     1      11.941   7.487   8.488  1.00  0.00     0.123 A 
HETATM    6  C4  UNK     1      15.688   8.189  10.214  1.00  0.00     0.025 A 
HETATM    7  C5  UNK     1      13.423   9.049   9.628  1.00  0.00     0.220 A 
HETATM    8  C6  UNK     1      16.624   7.154  10.219  1.00  0.00    -0.061 A 
HETATM    9  C7  UNK     1      12.122   8.720   8.997  1.00  0.00     0.152 A 
HETATM   10  C9  UNK     1      15.045   5.708   9.097  1.00  0.00     0.039 A 
HETATM   11  C10 UNK     1      16.304   5.916   9.662  1.00  0.00     0.009 A 
HETATM   12  C11 UNK     1      17.971   7.373  10.823  1.00  0.00     0.048 C 
ENDROOT
BRANCH   5  13
HETATM   13  C8  UNK     1      10.680   7.072   7.849  1.00  0.00     0.001 A 
HETATM   14  C12 UNK     1       9.529   6.903   8.620  1.00  0.00     0.014 A 
HETATM   15  C14 UNK     1       8.336   6.509   8.016  1.00  0.00     0.001 A 
HETATM   16  C16 UNK     1       8.291   6.286   6.639  1.00  0.00     0.000 A 
HETATM   17  C15 UNK     1       9.441   6.455   5.868  1.00  0.00     0.001 A 
HETATM   18  C13 UNK     1      10.635   6.848   6.473  1.00  0.00     0.014 A 
ENDBRANCH   5  13
BRANCH   9  19
HETATM   19  O2  UNK     1      11.146   9.692   8.977  1.00  0.00    -0.355 OA
HETATM   20  H12 UNK     1      11.408  10.411   8.380  1.00  0.00     0.218 HD
ENDBRANCH   9  19
TORSDOF 2
ENDMDL
