MODEL 1
REMARK VINA RESULT:      -9.4      0.000      0.000
REMARK  3 active torsions:
REMARK  status: ('A' for Active; 'I' for Inactive)
REMARK       I    between atoms: C10_15  and  N1_4 
REMARK    1  A    between atoms: N1_4  and  N2_5 
REMARK    2  A    between atoms: C10_15  and  C4_9 
REMARK    3  A    between atoms: C11_16  and  C14_19 
ROOT
HETATM    1  O3  UNK     1      17.322   3.292  31.689  1.00  0.00    -0.266 OA
HETATM    2  N1  UNK     1      19.190   4.258  30.693  1.00  0.00    -0.243 N 
HETATM    3  C10 UNK     1      18.353   3.213  31.025  1.00  0.00     0.277 C 
HETATM    4  H6  UNK     1      20.024   4.149  30.123  1.00  0.00     0.192 HD
ENDROOT
BRANCH   3   5
HETATM    5  C4  UNK     1      18.814   1.925  30.492  1.00  0.00     0.110 A 
HETATM    6  C3  UNK     1      19.308   1.059  31.384  1.00  0.00     0.037 A 
HETATM    7  C1  UNK     1      19.790  -0.244  30.952  1.00  0.00    -0.001 A 
HETATM    8  C2  UNK     1      19.729  -0.570  29.600  1.00  0.00     0.089 A 
HETATM    9  C5  UNK     1      20.314  -1.179  31.847  1.00  0.00     0.014 A 
HETATM   10  O1  UNK     1      19.208   0.347  28.666  1.00  0.00    -0.274 OA
HETATM   11  C6  UNK     1      20.174  -1.800  29.121  1.00  0.00     0.038 A 
HETATM   12  C7  UNK     1      18.738   1.600  29.049  1.00  0.00     0.304 A 
HETATM   13  O2  UNK     1      18.287   2.392  28.229  1.00  0.00    -0.259 OA
HETATM   14  C9  UNK     1      20.695  -2.726  30.021  1.00  0.00     0.003 A 
HETATM   15  C8  UNK     1      20.765  -2.418  31.381  1.00  0.00     0.001 A 
ENDBRANCH   3   5
BRANCH   2  16
HETATM   16  N2  UNK     1      18.881   5.504  31.122  1.00  0.00    -0.183 NA
HETATM   17  C14 UNK     1      19.322   5.777  32.306  1.00  0.00     0.150 C 
BRANCH  17  18
HETATM   18  C11 UNK     1      19.087   7.084  32.944  1.00  0.00    -0.017 A 
HETATM   19  C13 UNK     1      20.069   7.631  33.753  1.00  0.00     0.013 A 
HETATM   20  C16 UNK     1      19.846   8.869  34.357  1.00  0.00     0.001 A 
HETATM   21  C17 UNK     1      18.642   9.542  34.144  1.00  0.00     0.000 A 
HETATM   22  C15 UNK     1      17.663   8.977  33.326  1.00  0.00     0.001 A 
HETATM   23  C12 UNK     1      17.886   7.740  32.722  1.00  0.00     0.013 A 
ENDBRANCH  17  18
ENDBRANCH   2  16
TORSDOF 3
ENDMDL
MODEL 2
REMARK VINA RESULT:      -9.2      2.155      8.608
REMARK  3 active torsions:
REMARK  status: ('A' for Active; 'I' for Inactive)
REMARK       I    between atoms: C10_15  and  N1_4 
REMARK    1  A    between atoms: N1_4  and  N2_5 
REMARK    2  A    between atoms: C10_15  and  C4_9 
REMARK    3  A    between atoms: C11_16  and  C14_19 
ROOT
HETATM    1  O3  UNK     1      18.313   3.599  33.892  1.00  0.00    -0.266 OA
HETATM    2  N1  UNK     1      17.941   3.917  31.617  1.00  0.00    -0.243 N 
HETATM    3  C10 UNK     1      18.093   4.325  32.925  1.00  0.00     0.277 C 
HETATM    4  H6  UNK     1      17.779   4.558  30.845  1.00  0.00     0.192 HD
ENDROOT
BRANCH   3   5
HETATM    5  C4  UNK     1      17.966   5.779  33.085  1.00  0.00     0.110 A 
HETATM    6  C3  UNK     1      19.024   6.412  33.607  1.00  0.00     0.037 A 
HETATM    7  C1  UNK     1      18.992   7.853  33.804  1.00  0.00    -0.001 A 
HETATM    8  C2  UNK     1      17.848   8.557  33.443  1.00  0.00     0.089 A 
HETATM    9  C5  UNK     1      20.072   8.554  34.346  1.00  0.00     0.014 A 
HETATM   10  O1  UNK     1      16.738   7.886  32.893  1.00  0.00    -0.274 OA
HETATM   11  C6  UNK     1      17.753   9.937  33.606  1.00  0.00     0.038 A 
HETATM   12  C7  UNK     1      16.739   6.508  32.692  1.00  0.00     0.304 A 
HETATM   13  O2  UNK     1      15.767   5.932  32.214  1.00  0.00    -0.259 OA
HETATM   14  C9  UNK     1      18.835  10.629  34.147  1.00  0.00     0.003 A 
HETATM   15  C8  UNK     1      19.992   9.940  34.516  1.00  0.00     0.001 A 
ENDBRANCH   3   5
BRANCH   2  16
HETATM   16  N2  UNK     1      18.035   2.598  31.330  1.00  0.00    -0.183 NA
HETATM   17  C14 UNK     1      19.146   2.262  30.759  1.00  0.00     0.150 C 
BRANCH  17  18
HETATM   18  C11 UNK     1      19.435   0.870  30.372  1.00  0.00    -0.017 A 
HETATM   19  C13 UNK     1      19.544   0.548  29.029  1.00  0.00     0.013 A 
HETATM   20  C16 UNK     1      19.818  -0.769  28.662  1.00  0.00     0.001 A 
HETATM   21  C17 UNK     1      19.976  -1.748  29.644  1.00  0.00     0.000 A 
HETATM   22  C15 UNK     1      19.862  -1.408  30.992  1.00  0.00     0.001 A 
HETATM   23  C12 UNK     1      19.590  -0.090  31.359  1.00  0.00     0.013 A 
ENDBRANCH  17  18
ENDBRANCH   2  16
TORSDOF 3
ENDMDL
MODEL 3
REMARK VINA RESULT:      -9.2      2.227      8.710
REMARK  3 active torsions:
REMARK  status: ('A' for Active; 'I' for Inactive)
REMARK       I    between atoms: C10_15  and  N1_4 
REMARK    1  A    between atoms: N1_4  and  N2_5 
REMARK    2  A    between atoms: C10_15  and  C4_9 
REMARK    3  A    between atoms: C11_16  and  C14_19 
ROOT
HETATM    1  O3  UNK     1      19.398   4.878  30.733  1.00  0.00    -0.266 OA
HETATM    2  N1  UNK     1      17.843   3.412  31.653  1.00  0.00    -0.243 N 
HETATM    3  C10 UNK     1      18.477   4.628  31.508  1.00  0.00     0.277 C 
HETATM    4  H6  UNK     1      17.070   3.256  32.295  1.00  0.00     0.192 HD
ENDROOT
BRANCH   3   5
HETATM    5  C4  UNK     1      17.937   5.661  32.400  1.00  0.00     0.110 A 
HETATM    6  C3  UNK     1      16.730   6.144  32.083  1.00  0.00     0.037 A 
HETATM    7  C1  UNK     1      16.112   7.172  32.907  1.00  0.00    -0.001 A 
HETATM    8  C2  UNK     1      16.797   7.641  34.024  1.00  0.00     0.089 A 
HETATM    9  C5  UNK     1      14.855   7.706  32.615  1.00  0.00     0.014 A 
HETATM   10  O1  UNK     1      18.067   7.127  34.353  1.00  0.00    -0.274 OA
HETATM   11  C6  UNK     1      16.261   8.623  34.855  1.00  0.00     0.038 A 
HETATM   12  C7  UNK     1      18.683   6.144  33.584  1.00  0.00     0.304 A 
HETATM   13  O2  UNK     1      19.790   5.704  33.878  1.00  0.00    -0.259 OA
HETATM   14  C9  UNK     1      15.007   9.149  34.555  1.00  0.00     0.003 A 
HETATM   15  C8  UNK     1      14.304   8.692  33.438  1.00  0.00     0.001 A 
ENDBRANCH   3   5
BRANCH   2  16
HETATM   16  N2  UNK     1      18.244   2.371  30.888  1.00  0.00    -0.183 NA
HETATM   17  C14 UNK     1      18.974   1.507  31.517  1.00  0.00     0.150 C 
BRANCH  17  18
HETATM   18  C11 UNK     1      19.505   0.304  30.852  1.00  0.00    -0.017 A 
HETATM   19  C13 UNK     1      19.884   0.375  29.522  1.00  0.00     0.013 A 
HETATM   20  C16 UNK     1      20.387  -0.764  28.893  1.00  0.00     0.001 A 
HETATM   21  C17 UNK     1      20.503  -1.959  29.603  1.00  0.00     0.000 A 
HETATM   22  C15 UNK     1      20.118  -2.014  30.943  1.00  0.00     0.001 A 
HETATM   23  C12 UNK     1      19.615  -0.875  31.572  1.00  0.00     0.013 A 
ENDBRANCH  17  18
ENDBRANCH   2  16
TORSDOF 3
ENDMDL
MODEL 4
REMARK VINA RESULT:      -9.0      8.186     10.107
REMARK  3 active torsions:
REMARK  status: ('A' for Active; 'I' for Inactive)
REMARK       I    between atoms: C10_15  and  N1_4 
REMARK    1  A    between atoms: N1_4  and  N2_5 
REMARK    2  A    between atoms: C10_15  and  C4_9 
REMARK    3  A    between atoms: C11_16  and  C14_19 
ROOT
HETATM    1  O3  UNK     1      21.463  -4.284  37.223  1.00  0.00    -0.266 OA
HETATM    2  N1  UNK     1      19.426  -4.165  36.103  1.00  0.00    -0.243 N 
HETATM    3  C10 UNK     1      20.481  -4.815  36.709  1.00  0.00     0.277 C 
HETATM    4  H6  UNK     1      18.624  -4.647  35.708  1.00  0.00     0.192 HD
ENDROOT
BRANCH   3   5
HETATM    5  C4  UNK     1      20.333  -6.276  36.692  1.00  0.00     0.110 A 
HETATM    6  C3  UNK     1      20.105  -6.860  37.874  1.00  0.00     0.037 A 
HETATM    7  C1  UNK     1      19.946  -8.304  37.959  1.00  0.00    -0.001 A 
HETATM    8  C2  UNK     1      20.034  -9.061  36.795  1.00  0.00     0.089 A 
HETATM    9  C5  UNK     1      19.707  -8.957  39.170  1.00  0.00     0.014 A 
HETATM   10  O1  UNK     1      20.274  -8.439  35.554  1.00  0.00    -0.274 OA
HETATM   11  C6  UNK     1      19.891 -10.447  36.808  1.00  0.00     0.038 A 
HETATM   12  C7  UNK     1      20.431  -7.061  35.441  1.00  0.00     0.304 A 
HETATM   13  O2  UNK     1      20.640  -6.528  34.356  1.00  0.00    -0.259 OA
HETATM   14  C9  UNK     1      19.653 -11.089  38.020  1.00  0.00     0.003 A 
HETATM   15  C8  UNK     1      19.561 -10.347  39.200  1.00  0.00     0.001 A 
ENDBRANCH   3   5
BRANCH   2  16
HETATM   16  N2  UNK     1      19.437  -2.813  36.050  1.00  0.00    -0.183 NA
HETATM   17  C14 UNK     1      18.428  -2.256  36.636  1.00  0.00     0.150 C 
BRANCH  17  18
HETATM   18  C11 UNK     1      18.265  -0.792  36.684  1.00  0.00    -0.017 A 
HETATM   19  C13 UNK     1      17.687  -0.210  37.800  1.00  0.00     0.013 A 
HETATM   20  C16 UNK     1      17.533   1.176  37.846  1.00  0.00     0.001 A 
HETATM   21  C17 UNK     1      17.958   1.960  36.774  1.00  0.00     0.000 A 
HETATM   22  C15 UNK     1      18.539   1.359  35.657  1.00  0.00     0.001 A 
HETATM   23  C12 UNK     1      18.693  -0.027  35.612  1.00  0.00     0.013 A 
ENDBRANCH  17  18
ENDBRANCH   2  16
TORSDOF 3
ENDMDL
MODEL 5
REMARK VINA RESULT:      -9.0      7.665     12.219
REMARK  3 active torsions:
REMARK  status: ('A' for Active; 'I' for Inactive)
REMARK       I    between atoms: C10_15  and  N1_4 
REMARK    1  A    between atoms: N1_4  and  N2_5 
REMARK    2  A    between atoms: C10_15  and  C4_9 
REMARK    3  A    between atoms: C11_16  and  C14_19 
ROOT
HETATM    1  O3  UNK     1      20.980  -4.221  37.494  1.00  0.00    -0.266 OA
HETATM    2  N1  UNK     1      19.779  -5.048  35.681  1.00  0.00    -0.243 N 
HETATM    3  C10 UNK     1      20.227  -4.063  36.536  1.00  0.00     0.277 C 
HETATM    4  H6  UNK     1      19.170  -4.867  34.888  1.00  0.00     0.192 HD
ENDROOT
BRANCH   3   5
HETATM    5  C4  UNK     1      19.705  -2.734  36.195  1.00  0.00     0.110 A 
HETATM    6  C3  UNK     1      18.991  -2.117  37.144  1.00  0.00     0.037 A 
HETATM    7  C1  UNK     1      18.432  -0.797  36.899  1.00  0.00    -0.001 A 
HETATM    8  C2  UNK     1      18.651  -0.191  35.666  1.00  0.00     0.089 A 
HETATM    9  C5  UNK     1      17.680  -0.116  37.859  1.00  0.00     0.014 A 
HETATM   10  O1  UNK     1      19.404  -0.845  34.671  1.00  0.00    -0.274 OA
HETATM   11  C6  UNK     1      18.144   1.072  35.367  1.00  0.00     0.038 A 
HETATM   12  C7  UNK     1      19.952  -2.108  34.876  1.00  0.00     0.304 A 
HETATM   13  O2  UNK     1      20.605  -2.671  34.004  1.00  0.00    -0.259 OA
HETATM   14  C9  UNK     1      17.396   1.743  36.331  1.00  0.00     0.003 A 
HETATM   15  C8  UNK     1      17.164   1.152  37.575  1.00  0.00     0.001 A 
ENDBRANCH   3   5
BRANCH   2  16
HETATM   16  N2  UNK     1      20.186  -6.322  35.883  1.00  0.00    -0.183 NA
HETATM   17  C14 UNK     1      19.384  -7.019  36.621  1.00  0.00     0.150 C 
BRANCH  17  18
HETATM   18  C11 UNK     1      19.656  -8.429  36.952  1.00  0.00    -0.017 A 
HETATM   19  C13 UNK     1      19.029  -9.003  38.045  1.00  0.00     0.013 A 
HETATM   20  C16 UNK     1      19.287 -10.338  38.358  1.00  0.00     0.001 A 
HETATM   21  C17 UNK     1      20.169 -11.080  37.573  1.00  0.00     0.000 A 
HETATM   22  C15 UNK     1      20.793 -10.488  36.475  1.00  0.00     0.001 A 
HETATM   23  C12 UNK     1      20.535  -9.153  36.162  1.00  0.00     0.013 A 
ENDBRANCH  17  18
ENDBRANCH   2  16
TORSDOF 3
ENDMDL
MODEL 6
REMARK VINA RESULT:      -8.9      1.769      2.671
REMARK  3 active torsions:
REMARK  status: ('A' for Active; 'I' for Inactive)
REMARK       I    between atoms: C10_15  and  N1_4 
REMARK    1  A    between atoms: N1_4  and  N2_5 
REMARK    2  A    between atoms: C10_15  and  C4_9 
REMARK    3  A    between atoms: C11_16  and  C14_19 
ROOT
HETATM    1  O3  UNK     1      18.649   4.560  30.418  1.00  0.00    -0.266 OA
HETATM    2  N1  UNK     1      17.545   4.300  32.450  1.00  0.00    -0.243 N 
HETATM    3  C10 UNK     1      18.290   3.872  31.371  1.00  0.00     0.277 C 
HETATM    4  H6  UNK     1      17.287   3.698  33.226  1.00  0.00     0.192 HD
ENDROOT
BRANCH   3   5
HETATM    5  C4  UNK     1      18.644   2.450  31.453  1.00  0.00     0.110 A 
HETATM    6  C3  UNK     1      19.211   1.917  30.364  1.00  0.00     0.037 A 
HETATM    7  C1  UNK     1      19.596   0.515  30.349  1.00  0.00    -0.001 A 
HETATM    8  C2  UNK     1      19.364  -0.259  31.482  1.00  0.00     0.089 A 
HETATM    9  C5  UNK     1      20.190  -0.083  29.236  1.00  0.00     0.014 A 
HETATM   10  O1  UNK     1      18.767   0.307  32.625  1.00  0.00    -0.274 OA
HETATM   11  C6  UNK     1      19.709  -1.608  31.533  1.00  0.00     0.038 A 
HETATM   12  C7  UNK     1      18.388   1.646  32.670  1.00  0.00     0.304 A 
HETATM   13  O2  UNK     1      17.867   2.130  33.669  1.00  0.00    -0.259 OA
HETATM   14  C9  UNK     1      20.301  -2.196  30.418  1.00  0.00     0.003 A 
HETATM   15  C8  UNK     1      20.542  -1.436  29.272  1.00  0.00     0.001 A 
ENDBRANCH   3   5
BRANCH   2  16
HETATM   16  N2  UNK     1      17.152   5.593  32.500  1.00  0.00    -0.183 NA
HETATM   17  C14 UNK     1      17.515   6.212  33.576  1.00  0.00     0.150 C 
BRANCH  17  18
HETATM   18  C11 UNK     1      17.182   7.628  33.812  1.00  0.00    -0.017 A 
HETATM   19  C13 UNK     1      15.888   7.970  34.168  1.00  0.00     0.013 A 
HETATM   20  C16 UNK     1      15.573   9.311  34.392  1.00  0.00     0.001 A 
HETATM   21  C17 UNK     1      16.556  10.290  34.255  1.00  0.00     0.000 A 
HETATM   22  C15 UNK     1      17.855   9.930  33.896  1.00  0.00     0.001 A 
HETATM   23  C12 UNK     1      18.170   8.589  33.672  1.00  0.00     0.013 A 
ENDBRANCH  17  18
ENDBRANCH   2  16
TORSDOF 3
ENDMDL
MODEL 7
REMARK VINA RESULT:      -8.8      8.013      9.949
REMARK  3 active torsions:
REMARK  status: ('A' for Active; 'I' for Inactive)
REMARK       I    between atoms: C10_15  and  N1_4 
REMARK    1  A    between atoms: N1_4  and  N2_5 
REMARK    2  A    between atoms: C10_15  and  C4_9 
REMARK    3  A    between atoms: C11_16  and  C14_19 
ROOT
HETATM    1  O3  UNK     1      20.227  -4.384  35.083  1.00  0.00    -0.266 OA
HETATM    2  N1  UNK     1      19.443  -4.026  37.245  1.00  0.00    -0.243 N 
HETATM    3  C10 UNK     1      19.829  -4.799  36.169  1.00  0.00     0.277 C 
HETATM    4  H6  UNK     1      19.138  -4.414  38.133  1.00  0.00     0.192 HD
ENDROOT
BRANCH   3   5
HETATM    5  C4  UNK     1      19.724  -6.238  36.437  1.00  0.00     0.110 A 
HETATM    6  C3  UNK     1      20.844  -6.953  36.280  1.00  0.00     0.037 A 
HETATM    7  C1  UNK     1      20.839  -8.387  36.521  1.00  0.00    -0.001 A 
HETATM    8  C2  UNK     1      19.654  -8.999  36.916  1.00  0.00     0.089 A 
HETATM    9  C5  UNK     1      21.984  -9.173  36.368  1.00  0.00     0.014 A 
HETATM   10  O1  UNK     1      18.478  -8.242  37.081  1.00  0.00    -0.274 OA
HETATM   11  C6  UNK     1      19.581 -10.369  37.163  1.00  0.00     0.038 A 
HETATM   12  C7  UNK     1      18.451  -6.868  36.858  1.00  0.00     0.304 A 
HETATM   13  O2  UNK     1      17.422  -6.216  37.003  1.00  0.00    -0.259 OA
HETATM   14  C9  UNK     1      20.728 -11.144  37.009  1.00  0.00     0.003 A 
HETATM   15  C8  UNK     1      21.927 -10.549  36.613  1.00  0.00     0.001 A 
ENDBRANCH   3   5
BRANCH   2  16
HETATM   16  N2  UNK     1      19.492  -2.679  37.131  1.00  0.00    -0.183 NA
HETATM   17  C14 UNK     1      18.351  -2.133  36.859  1.00  0.00     0.150 C 
BRANCH  17  18
HETATM   18  C11 UNK     1      18.203  -0.675  36.699  1.00  0.00    -0.017 A 
HETATM   19  C13 UNK     1      17.577   0.057  37.694  1.00  0.00     0.013 A 
HETATM   20  C16 UNK     1      17.437   1.437  37.542  1.00  0.00     0.001 A 
HETATM   21  C17 UNK     1      17.925   2.065  36.396  1.00  0.00     0.000 A 
HETATM   22  C15 UNK     1      18.553   1.314  35.402  1.00  0.00     0.001 A 
HETATM   23  C12 UNK     1      18.694  -0.066  35.555  1.00  0.00     0.013 A 
ENDBRANCH  17  18
ENDBRANCH   2  16
TORSDOF 3
ENDMDL
MODEL 8
REMARK VINA RESULT:      -8.7      5.831      9.882
REMARK  3 active torsions:
REMARK  status: ('A' for Active; 'I' for Inactive)
REMARK       I    between atoms: C10_15  and  N1_4 
REMARK    1  A    between atoms: N1_4  and  N2_5 
REMARK    2  A    between atoms: C10_15  and  C4_9 
REMARK    3  A    between atoms: C11_16  and  C14_19 
ROOT
HETATM    1  O3  UNK     1      18.654  -1.391  36.307  1.00  0.00    -0.266 OA
HETATM    2  N1  UNK     1      19.746  -3.163  35.265  1.00  0.00    -0.243 N 
HETATM    3  C10 UNK     1      19.157  -1.917  35.316  1.00  0.00     0.277 C 
HETATM    4  H6  UNK     1      20.168  -3.549  34.426  1.00  0.00     0.192 HD
ENDROOT
BRANCH   3   5
HETATM    5  C4  UNK     1      19.179  -1.225  34.022  1.00  0.00     0.110 A 
HETATM    6  C3  UNK     1      19.771  -1.875  33.013  1.00  0.00     0.037 A 
HETATM    7  C1  UNK     1      19.843  -1.270  31.692  1.00  0.00    -0.001 A 
HETATM    8  C2  UNK     1      19.289  -0.008  31.499  1.00  0.00     0.089 A 
HETATM    9  C5  UNK     1      20.451  -1.911  30.611  1.00  0.00     0.014 A 
HETATM   10  O1  UNK     1      18.666   0.671  32.564  1.00  0.00    -0.274 OA
HETATM   11  C6  UNK     1      19.324   0.627  30.259  1.00  0.00     0.038 A 
HETATM   12  C7  UNK     1      18.582   0.118  33.839  1.00  0.00     0.304 A 
HETATM   13  O2  UNK     1      18.039   0.717  34.761  1.00  0.00    -0.259 OA
HETATM   14  C9  UNK     1      19.932  -0.020  29.186  1.00  0.00     0.003 A 
HETATM   15  C8  UNK     1      20.495  -1.287  29.360  1.00  0.00     0.001 A 
ENDBRANCH   3   5
BRANCH   2  16
HETATM   16  N2  UNK     1      19.793  -3.909  36.394  1.00  0.00    -0.183 NA
HETATM   17  C14 UNK     1      19.756  -5.184  36.182  1.00  0.00     0.150 C 
BRANCH  17  18
HETATM   18  C11 UNK     1      19.798  -6.159  37.286  1.00  0.00    -0.017 A 
HETATM   19  C13 UNK     1      20.635  -5.927  38.365  1.00  0.00     0.013 A 
HETATM   20  C16 UNK     1      20.675  -6.850  39.410  1.00  0.00     0.001 A 
HETATM   21  C17 UNK     1      19.878  -7.994  39.361  1.00  0.00     0.000 A 
HETATM   22  C15 UNK     1      19.040  -8.214  38.267  1.00  0.00     0.001 A 
HETATM   23  C12 UNK     1      19.000  -7.290  37.223  1.00  0.00     0.013 A 
ENDBRANCH  17  18
ENDBRANCH   2  16
TORSDOF 3
ENDMDL
MODEL 9
REMARK VINA RESULT:      -8.7      5.691      9.736
REMARK  3 active torsions:
REMARK  status: ('A' for Active; 'I' for Inactive)
REMARK       I    between atoms: C10_15  and  N1_4 
REMARK    1  A    between atoms: N1_4  and  N2_5 
REMARK    2  A    between atoms: C10_15  and  C4_9 
REMARK    3  A    between atoms: C11_16  and  C14_19 
ROOT
HETATM    1  O3  UNK     1      18.006  -1.404  36.032  1.00  0.00    -0.266 OA
HETATM    2  N1  UNK     1      19.643  -2.869  35.265  1.00  0.00    -0.243 N 
HETATM    3  C10 UNK     1      18.804  -1.778  35.176  1.00  0.00     0.277 C 
HETATM    4  H6  UNK     1      20.302  -3.130  34.538  1.00  0.00     0.192 HD
ENDROOT
BRANCH   3   5
HETATM    5  C4  UNK     1      18.948  -1.053  33.907  1.00  0.00     0.110 A 
HETATM    6  C3  UNK     1      19.492  -1.737  32.894  1.00  0.00     0.037 A 
HETATM    7  C1  UNK     1      19.676  -1.103  31.597  1.00  0.00    -0.001 A 
HETATM    8  C2  UNK     1      19.278   0.220  31.432  1.00  0.00     0.089 A 
HETATM    9  C5  UNK     1      20.240  -1.777  30.512  1.00  0.00     0.014 A 
HETATM   10  O1  UNK     1      18.705   0.934  32.502  1.00  0.00    -0.274 OA
HETATM   11  C6  UNK     1      19.426   0.885  30.216  1.00  0.00     0.038 A 
HETATM   12  C7  UNK     1      18.516   0.355  33.754  1.00  0.00     0.304 A 
HETATM   13  O2  UNK     1      18.017   0.985  34.681  1.00  0.00    -0.259 OA
HETATM   14  C9  UNK     1      19.990   0.204  29.139  1.00  0.00     0.003 A 
HETATM   15  C8  UNK     1      20.396  -1.124  29.285  1.00  0.00     0.001 A 
ENDBRANCH   3   5
BRANCH   2  16
HETATM   16  N2  UNK     1      19.611  -3.626  36.386  1.00  0.00    -0.183 NA
HETATM   17  C14 UNK     1      19.929  -4.865  36.193  1.00  0.00     0.150 C 
BRANCH  17  18
HETATM   18  C11 UNK     1      19.954  -5.845  37.293  1.00  0.00    -0.017 A 
HETATM   19  C13 UNK     1      18.932  -6.773  37.399  1.00  0.00     0.013 A 
HETATM   20  C16 UNK     1      18.956  -7.700  38.441  1.00  0.00     0.001 A 
HETATM   21  C17 UNK     1      20.002  -7.685  39.363  1.00  0.00     0.000 A 
HETATM   22  C15 UNK     1      21.025  -6.744  39.244  1.00  0.00     0.001 A 
HETATM   23  C12 UNK     1      21.001  -5.817  38.201  1.00  0.00     0.013 A 
ENDBRANCH  17  18
ENDBRANCH   2  16
TORSDOF 3
ENDMDL
MODEL 10
REMARK VINA RESULT:      -8.6      8.083     10.085
REMARK  3 active torsions:
REMARK  status: ('A' for Active; 'I' for Inactive)
REMARK       I    between atoms: C10_15  and  N1_4 
REMARK    1  A    between atoms: N1_4  and  N2_5 
REMARK    2  A    between atoms: C10_15  and  C4_9 
REMARK    3  A    between atoms: C11_16  and  C14_19 
ROOT
HETATM    1  O3  UNK     1      17.112  -6.042  36.787  1.00  0.00    -0.266 OA
HETATM    2  N1  UNK     1      18.843  -4.501  36.573  1.00  0.00    -0.243 N 
HETATM    3  C10 UNK     1      18.286  -5.763  36.552  1.00  0.00     0.277 C 
HETATM    4  H6  UNK     1      19.817  -4.315  36.352  1.00  0.00     0.192 HD
ENDROOT
BRANCH   3   5
HETATM    5  C4  UNK     1      19.258  -6.807  36.206  1.00  0.00     0.110 A 
HETATM    6  C3  UNK     1      19.208  -7.927  36.936  1.00  0.00     0.037 A 
HETATM    7  C1  UNK     1      20.132  -9.018  36.669  1.00  0.00    -0.001 A 
HETATM    8  C2  UNK     1      21.063  -8.877  35.644  1.00  0.00     0.089 A 
HETATM    9  C5  UNK     1      20.118 -10.204  37.406  1.00  0.00     0.014 A 
HETATM   10  O1  UNK     1      21.109  -7.696  34.878  1.00  0.00    -0.274 OA
HETATM   11  C6  UNK     1      21.975  -9.884  35.336  1.00  0.00     0.038 A 
HETATM   12  C7  UNK     1      20.239  -6.634  35.110  1.00  0.00     0.304 A 
HETATM   13  O2  UNK     1      20.287  -5.609  34.438  1.00  0.00    -0.259 OA
HETATM   14  C9  UNK     1      21.953 -11.063  36.077  1.00  0.00     0.003 A 
HETATM   15  C8  UNK     1      21.027 -11.225  37.109  1.00  0.00     0.001 A 
ENDBRANCH   3   5
BRANCH   2  16
HETATM   16  N2  UNK     1      18.054  -3.445  36.878  1.00  0.00    -0.183 NA
HETATM   17  C14 UNK     1      18.494  -2.314  36.430  1.00  0.00     0.150 C 
BRANCH  17  18
HETATM   18  C11 UNK     1      17.772  -1.050  36.660  1.00  0.00    -0.017 A 
HETATM   19  C13 UNK     1      16.773  -0.669  35.780  1.00  0.00     0.013 A 
HETATM   20  C16 UNK     1      16.089   0.527  35.998  1.00  0.00     0.001 A 
HETATM   21  C17 UNK     1      16.416   1.327  37.093  1.00  0.00     0.000 A 
HETATM   22  C15 UNK     1      17.425   0.930  37.970  1.00  0.00     0.001 A 
HETATM   23  C12 UNK     1      18.108  -0.267  37.752  1.00  0.00     0.013 A 
ENDBRANCH  17  18
ENDBRANCH   2  16
TORSDOF 3
ENDMDL
