MODEL 1
REMARK VINA RESULT:      -9.3      0.000      0.000
REMARK  5 active torsions:
REMARK  status: ('A' for Active; 'I' for Inactive)
REMARK    1  A    between atoms: C17_24  and  O2_3 
REMARK    2  A    between atoms: C18_25  and  O2_3 
REMARK    3  A    between atoms: C5_12  and  N1_7 
REMARK       I    between atoms: C6_13  and  N1_7 
REMARK    4  A    between atoms: C2_9  and  C6_13 
REMARK    5  A    between atoms: C11_18  and  C17_24 
ROOT
HETATM    1  O3  UNK     1      17.869   3.198  32.860  1.00  0.00    -0.267 OA
HETATM    2  N1  UNK     1      18.605   3.917  30.742  1.00  0.00    -0.323 N 
HETATM    3  C6  UNK     1      18.227   4.069  32.069  1.00  0.00     0.262 C 
HETATM    4  H3  UNK     1      18.856   4.750  30.213  1.00  0.00     0.169 HD
ENDROOT
BRANCH   3   5
HETATM    5  C2  UNK     1      18.289   5.469  32.506  1.00  0.00     0.108 A 
HETATM    6  C4  UNK     1      17.137   6.011  32.918  1.00  0.00     0.037 A 
HETATM    7  C1  UNK     1      17.097   7.392  33.371  1.00  0.00     0.000 A 
HETATM    8  C3  UNK     1      18.275   8.136  33.369  1.00  0.00     0.089 A 
HETATM    9  C7  UNK     1      15.918   8.000  33.807  1.00  0.00     0.033 A 
HETATM   10  C10 UNK     1      18.305   9.464  33.789  1.00  0.00     0.039 A 
HETATM   11  O1  UNK     1      19.484   7.558  32.936  1.00  0.00    -0.274 OA
HETATM   12  C14 UNK     1      17.124  10.062  34.224  1.00  0.00     0.022 A 
HETATM   13  C13 UNK     1      15.933   9.332  34.233  1.00  0.00     0.011 A 
HETATM   14 Br1  UNK     1      14.334  10.150  34.825  1.00  0.00    -0.051 Br
HETATM   15  C8  UNK     1      19.552   6.239  32.497  1.00  0.00     0.304 A 
HETATM   16  O4  UNK     1      20.610   5.744  32.121  1.00  0.00    -0.259 OA
ENDBRANCH   3   5
BRANCH   2  17
HETATM   17  C5  UNK     1      18.666   2.718  29.992  1.00  0.00     0.035 A 
HETATM   18  C12 UNK     1      17.784   2.533  28.940  1.00  0.00     0.029 A 
HETATM   19  C16 UNK     1      17.842   1.352  28.201  1.00  0.00     0.003 A 
HETATM   20  C15 UNK     1      18.782   0.372  28.524  1.00  0.00     0.018 A 
HETATM   21  C11 UNK     1      19.663   0.575  29.587  1.00  0.00     0.041 A 
HETATM   22  C9  UNK     1      19.605   1.757  30.326  1.00  0.00     0.047 A 
BRANCH  21  23
HETATM   23  C17 UNK     1      20.643  -0.446  29.923  1.00  0.00     0.293 C 
HETATM   24  O5  UNK     1      21.225  -1.158  29.093  1.00  0.00    -0.259 OA
BRANCH  23  25
HETATM   25  O2  UNK     1      20.845  -0.523  31.274  1.00  0.00    -0.318 OA
BRANCH  25  26
HETATM   26  C18 UNK     1      20.358  -1.696  31.935  1.00  0.00     0.174 C 
HETATM   27  C19 UNK     1      19.044  -1.368  32.612  1.00  0.00     0.034 C 
ENDBRANCH  25  26
ENDBRANCH  23  25
ENDBRANCH  21  23
ENDBRANCH   2  17
TORSDOF 5
ENDMDL
MODEL 2
REMARK VINA RESULT:      -8.8      7.807     12.886
REMARK  5 active torsions:
REMARK  status: ('A' for Active; 'I' for Inactive)
REMARK    1  A    between atoms: C17_24  and  O2_3 
REMARK    2  A    between atoms: C18_25  and  O2_3 
REMARK    3  A    between atoms: C5_12  and  N1_7 
REMARK       I    between atoms: C6_13  and  N1_7 
REMARK    4  A    between atoms: C2_9  and  C6_13 
REMARK    5  A    between atoms: C11_18  and  C17_24 
ROOT
HETATM    1  O3  UNK     1      20.528  -3.876  35.459  1.00  0.00    -0.267 OA
HETATM    2  N1  UNK     1      18.539  -3.652  36.699  1.00  0.00    -0.323 N 
HETATM    3  C6  UNK     1      19.590  -4.338  36.106  1.00  0.00     0.262 C 
HETATM    4  H3  UNK     1      17.825  -4.190  37.187  1.00  0.00     0.169 HD
ENDROOT
BRANCH   3   5
HETATM    5  C2  UNK     1      19.499  -5.787  36.323  1.00  0.00     0.108 A 
HETATM    6  C4  UNK     1      20.618  -6.488  36.108  1.00  0.00     0.037 A 
HETATM    7  C1  UNK     1      20.627  -7.930  36.297  1.00  0.00     0.000 A 
HETATM    8  C3  UNK     1      19.456  -8.563  36.705  1.00  0.00     0.089 A 
HETATM    9  C7  UNK     1      21.771  -8.703  36.083  1.00  0.00     0.033 A 
HETATM   10  C10 UNK     1      19.398  -9.941  36.903  1.00  0.00     0.039 A 
HETATM   11  O1  UNK     1      18.282  -7.819  36.931  1.00  0.00    -0.274 OA
HETATM   12  C14 UNK     1      20.544 -10.704  36.688  1.00  0.00     0.022 A 
HETATM   13  C13 UNK     1      21.728 -10.086  36.279  1.00  0.00     0.011 A 
HETATM   14 Br1  UNK     1      23.280 -11.128  35.989  1.00  0.00    -0.051 Br
HETATM   15  C8  UNK     1      18.243  -6.439  36.758  1.00  0.00     0.304 A 
HETATM   16  O4  UNK     1      17.216  -5.798  36.956  1.00  0.00    -0.259 OA
ENDBRANCH   3   5
BRANCH   2  17
HETATM   17  C5  UNK     1      18.306  -2.255  36.695  1.00  0.00     0.035 A 
HETATM   18  C12 UNK     1      18.159  -1.592  37.902  1.00  0.00     0.029 A 
HETATM   19  C16 UNK     1      17.930  -0.216  37.899  1.00  0.00     0.003 A 
HETATM   20  C15 UNK     1      17.851   0.476  36.690  1.00  0.00     0.018 A 
HETATM   21  C11 UNK     1      18.001  -0.209  35.484  1.00  0.00     0.041 A 
HETATM   22  C9  UNK     1      18.231  -1.585  35.486  1.00  0.00     0.047 A 
BRANCH  21  23
HETATM   23  C17 UNK     1      17.919   0.513  34.224  1.00  0.00     0.293 C 
HETATM   24  O5  UNK     1      16.941   1.182  33.863  1.00  0.00    -0.259 OA
BRANCH  23  25
HETATM   25  O2  UNK     1      19.060   0.362  33.483  1.00  0.00    -0.318 OA
BRANCH  25  26
HETATM   26  C18 UNK     1      18.897  -0.058  32.124  1.00  0.00     0.174 C 
HETATM   27  C19 UNK     1      19.459  -1.455  31.970  1.00  0.00     0.034 C 
ENDBRANCH  25  26
ENDBRANCH  23  25
ENDBRANCH  21  23
ENDBRANCH   2  17
TORSDOF 5
ENDMDL
MODEL 3
REMARK VINA RESULT:      -8.8      2.769      4.524
REMARK  5 active torsions:
REMARK  status: ('A' for Active; 'I' for Inactive)
REMARK    1  A    between atoms: C17_24  and  O2_3 
REMARK    2  A    between atoms: C18_25  and  O2_3 
REMARK    3  A    between atoms: C5_12  and  N1_7 
REMARK       I    between atoms: C6_13  and  N1_7 
REMARK    4  A    between atoms: C2_9  and  C6_13 
REMARK    5  A    between atoms: C11_18  and  C17_24 
ROOT
HETATM    1  O3  UNK     1      16.108   8.415  30.891  1.00  0.00    -0.267 OA
HETATM    2  N1  UNK     1      17.185   7.150  32.560  1.00  0.00    -0.323 N 
HETATM    3  C6  UNK     1      16.374   8.162  32.065  1.00  0.00     0.262 C 
HETATM    4  H3  UNK     1      17.321   7.088  33.567  1.00  0.00     0.169 HD
ENDROOT
BRANCH   3   5
HETATM    5  C2  UNK     1      15.801   8.986  33.136  1.00  0.00     0.108 A 
HETATM    6  C4  UNK     1      14.753   9.746  32.799  1.00  0.00     0.037 A 
HETATM    7  C1  UNK     1      14.115  10.597  33.792  1.00  0.00     0.000 A 
HETATM    8  C3  UNK     1      14.614  10.605  35.092  1.00  0.00     0.089 A 
HETATM    9  C7  UNK     1      13.020  11.408  33.486  1.00  0.00     0.033 A 
HETATM   10  C10 UNK     1      14.050  11.398  36.090  1.00  0.00     0.039 A 
HETATM   11  O1  UNK     1      15.717   9.801  35.440  1.00  0.00    -0.274 OA
HETATM   12  C14 UNK     1      12.957  12.203  35.776  1.00  0.00     0.022 A 
HETATM   13  C13 UNK     1      12.443  12.208  34.477  1.00  0.00     0.011 A 
HETATM   14 Br1  UNK     1      10.960  13.304  34.058  1.00  0.00    -0.051 Br
HETATM   15  C8  UNK     1      16.347   8.977  34.511  1.00  0.00     0.304 A 
HETATM   16  O4  UNK     1      17.308   8.280  34.822  1.00  0.00    -0.259 OA
ENDBRANCH   3   5
BRANCH   2  17
HETATM   17  C5  UNK     1      17.896   6.172  31.821  1.00  0.00     0.035 A 
HETATM   18  C12 UNK     1      18.765   6.579  30.824  1.00  0.00     0.029 A 
HETATM   19  C16 UNK     1      19.465   5.617  30.095  1.00  0.00     0.003 A 
HETATM   20  C15 UNK     1      19.285   4.262  30.376  1.00  0.00     0.018 A 
HETATM   21  C11 UNK     1      18.405   3.870  31.385  1.00  0.00     0.041 A 
HETATM   22  C9  UNK     1      17.705   4.832  32.113  1.00  0.00     0.047 A 
BRANCH  21  23
HETATM   23  C17 UNK     1      18.218   2.458  31.677  1.00  0.00     0.293 C 
HETATM   24  O5  UNK     1      17.845   2.013  32.771  1.00  0.00    -0.259 OA
BRANCH  23  25
HETATM   25  O2  UNK     1      18.505   1.677  30.591  1.00  0.00    -0.318 OA
BRANCH  25  26
HETATM   26  C18 UNK     1      19.373   0.560  30.809  1.00  0.00     0.174 C 
HETATM   27  C19 UNK     1      20.082   0.227  29.513  1.00  0.00     0.034 C 
ENDBRANCH  25  26
ENDBRANCH  23  25
ENDBRANCH  21  23
ENDBRANCH   2  17
TORSDOF 5
ENDMDL
MODEL 4
REMARK VINA RESULT:      -8.8      3.655      8.853
REMARK  5 active torsions:
REMARK  status: ('A' for Active; 'I' for Inactive)
REMARK    1  A    between atoms: C17_24  and  O2_3 
REMARK    2  A    between atoms: C18_25  and  O2_3 
REMARK    3  A    between atoms: C5_12  and  N1_7 
REMARK       I    between atoms: C6_13  and  N1_7 
REMARK    4  A    between atoms: C2_9  and  C6_13 
REMARK    5  A    between atoms: C11_18  and  C17_24 
ROOT
HETATM    1  O3  UNK     1      17.559   3.077  32.763  1.00  0.00    -0.267 OA
HETATM    2  N1  UNK     1      18.971   4.480  31.505  1.00  0.00    -0.323 N 
HETATM    3  C6  UNK     1      18.372   3.280  31.863  1.00  0.00     0.262 C 
HETATM    4  H3  UNK     1      19.645   4.475  30.742  1.00  0.00     0.169 HD
ENDROOT
BRANCH   3   5
HETATM    5  C2  UNK     1      18.814   2.166  31.015  1.00  0.00     0.108 A 
HETATM    6  C4  UNK     1      19.264   1.080  31.654  1.00  0.00     0.037 A 
HETATM    7  C1  UNK     1      19.724  -0.076  30.901  1.00  0.00     0.000 A 
HETATM    8  C3  UNK     1      19.685  -0.032  29.510  1.00  0.00     0.089 A 
HETATM    9  C7  UNK     1      20.204  -1.230  31.525  1.00  0.00     0.033 A 
HETATM   10  C10 UNK     1      20.112  -1.105  28.729  1.00  0.00     0.039 A 
HETATM   11  O1  UNK     1      19.208   1.114  28.843  1.00  0.00    -0.274 OA
HETATM   12  C14 UNK     1      20.588  -2.252  29.360  1.00  0.00     0.022 A 
HETATM   13  C13 UNK     1      20.634  -2.315  30.755  1.00  0.00     0.011 A 
HETATM   14 Br1  UNK     1      21.282  -3.875  31.605  1.00  0.00    -0.051 Br
HETATM   15  C8  UNK     1      18.763   2.235  29.538  1.00  0.00     0.304 A 
HETATM   16  O4  UNK     1      18.349   3.229  28.949  1.00  0.00    -0.259 OA
ENDBRANCH   3   5
BRANCH   2  17
HETATM   17  C5  UNK     1      18.782   5.752  32.098  1.00  0.00     0.035 A 
HETATM   18  C12 UNK     1      19.762   6.259  32.935  1.00  0.00     0.029 A 
HETATM   19  C16 UNK     1      19.576   7.512  33.521  1.00  0.00     0.003 A 
HETATM   20  C15 UNK     1      18.414   8.238  33.260  1.00  0.00     0.018 A 
HETATM   21  C11 UNK     1      17.437   7.712  32.415  1.00  0.00     0.041 A 
HETATM   22  C9  UNK     1      17.623   6.459  31.829  1.00  0.00     0.047 A 
BRANCH  21  23
HETATM   23  C17 UNK     1      16.226   8.470  32.144  1.00  0.00     0.293 C 
HETATM   24  O5  UNK     1      15.831   8.776  31.010  1.00  0.00    -0.259 OA
BRANCH  23  25
HETATM   25  O2  UNK     1      15.572   8.804  33.298  1.00  0.00    -0.318 OA
BRANCH  25  26
HETATM   26  C18 UNK     1      14.912   7.743  33.997  1.00  0.00     0.174 C 
HETATM   27  C19 UNK     1      13.760   7.240  33.154  1.00  0.00     0.034 C 
ENDBRANCH  25  26
ENDBRANCH  23  25
ENDBRANCH  21  23
ENDBRANCH   2  17
TORSDOF 5
ENDMDL
MODEL 5
REMARK VINA RESULT:      -8.5     13.540     16.669
REMARK  5 active torsions:
REMARK  status: ('A' for Active; 'I' for Inactive)
REMARK    1  A    between atoms: C17_24  and  O2_3 
REMARK    2  A    between atoms: C18_25  and  O2_3 
REMARK    3  A    between atoms: C5_12  and  N1_7 
REMARK       I    between atoms: C6_13  and  N1_7 
REMARK    4  A    between atoms: C2_9  and  C6_13 
REMARK    5  A    between atoms: C11_18  and  C17_24 
ROOT
HETATM    1  O3  UNK     1      25.758  -8.728  39.423  1.00  0.00    -0.267 OA
HETATM    2  N1  UNK     1      26.158  -8.858  37.105  1.00  0.00    -0.323 N 
HETATM    3  C6  UNK     1      26.346  -8.386  38.398  1.00  0.00     0.262 C 
HETATM    4  H3  UNK     1      26.717  -8.452  36.358  1.00  0.00     0.169 HD
ENDROOT
BRANCH   3   5
HETATM    5  C2  UNK     1      27.390  -7.356  38.466  1.00  0.00     0.108 A 
HETATM    6  C4  UNK     1      28.645  -7.774  38.262  1.00  0.00     0.037 A 
HETATM    7  C1  UNK     1      29.749  -6.827  38.308  1.00  0.00     0.000 A 
HETATM    8  C3  UNK     1      29.476  -5.487  38.567  1.00  0.00     0.089 A 
HETATM    9  C7  UNK     1      31.074  -7.218  38.104  1.00  0.00     0.033 A 
HETATM   10  C10 UNK     1      30.488  -4.531  38.626  1.00  0.00     0.039 A 
HETATM   11  O1  UNK     1      28.153  -5.054  38.779  1.00  0.00    -0.274 OA
HETATM   12  C14 UNK     1      31.807  -4.929  38.419  1.00  0.00     0.022 A 
HETATM   13  C13 UNK     1      32.099  -6.269  38.159  1.00  0.00     0.011 A 
HETATM   14 Br1  UNK     1      33.892  -6.803  37.879  1.00  0.00    -0.051 Br
HETATM   15  C8  UNK     1      27.077  -5.937  38.741  1.00  0.00     0.304 A 
HETATM   16  O4  UNK     1      25.927  -5.551  38.927  1.00  0.00    -0.259 OA
ENDBRANCH   3   5
BRANCH   2  17
HETATM   17  C5  UNK     1      25.242  -9.846  36.670  1.00  0.00     0.035 A 
HETATM   18  C12 UNK     1      25.701 -11.129  36.423  1.00  0.00     0.029 A 
HETATM   19  C16 UNK     1      24.800 -12.104  35.994  1.00  0.00     0.003 A 
HETATM   20  C15 UNK     1      23.453 -11.780  35.819  1.00  0.00     0.018 A 
HETATM   21  C11 UNK     1      23.009 -10.483  36.073  1.00  0.00     0.041 A 
HETATM   22  C9  UNK     1      23.910  -9.508  36.502  1.00  0.00     0.047 A 
BRANCH  21  23
HETATM   23  C17 UNK     1      21.606 -10.146  35.891  1.00  0.00     0.293 C 
HETATM   24  O5  UNK     1      20.672 -10.683  36.502  1.00  0.00    -0.259 OA
BRANCH  23  25
HETATM   25  O2  UNK     1      21.442  -9.159  34.958  1.00  0.00    -0.318 OA
BRANCH  25  26
HETATM   26  C18 UNK     1      20.779  -7.966  35.389  1.00  0.00     0.174 C 
HETATM   27  C19 UNK     1      20.425  -7.133  34.175  1.00  0.00     0.034 C 
ENDBRANCH  25  26
ENDBRANCH  23  25
ENDBRANCH  21  23
ENDBRANCH   2  17
TORSDOF 5
ENDMDL
MODEL 6
REMARK VINA RESULT:      -8.5     14.157     18.706
REMARK  5 active torsions:
REMARK  status: ('A' for Active; 'I' for Inactive)
REMARK    1  A    between atoms: C17_24  and  O2_3 
REMARK    2  A    between atoms: C18_25  and  O2_3 
REMARK    3  A    between atoms: C5_12  and  N1_7 
REMARK       I    between atoms: C6_13  and  N1_7 
REMARK    4  A    between atoms: C2_9  and  C6_13 
REMARK    5  A    between atoms: C11_18  and  C17_24 
ROOT
HETATM    1  O3  UNK     1      17.309  -2.002  16.666  1.00  0.00    -0.267 OA
HETATM    2  N1  UNK     1      19.190  -0.755  15.993  1.00  0.00    -0.323 N 
HETATM    3  C6  UNK     1      18.329  -1.844  15.998  1.00  0.00     0.262 C 
HETATM    4  H3  UNK     1      20.009  -0.789  15.391  1.00  0.00     0.169 HD
ENDROOT
BRANCH   3   5
HETATM    5  C2  UNK     1      18.758  -2.892  15.064  1.00  0.00     0.108 A 
HETATM    6  C4  UNK     1      18.011  -4.002  15.039  1.00  0.00     0.037 A 
HETATM    7  C1  UNK     1      18.355  -5.097  14.145  1.00  0.00     0.000 A 
HETATM    8  C3  UNK     1      19.470  -4.969  13.321  1.00  0.00     0.089 A 
HETATM    9  C7  UNK     1      17.606  -6.275  14.086  1.00  0.00     0.033 A 
HETATM   10  C10 UNK     1      19.854  -5.980  12.443  1.00  0.00     0.039 A 
HETATM   11  O1  UNK     1      20.250  -3.797  13.351  1.00  0.00    -0.274 OA
HETATM   12  C14 UNK     1      19.101  -7.151  12.390  1.00  0.00     0.022 A 
HETATM   13  C13 UNK     1      17.979  -7.298  13.210  1.00  0.00     0.011 A 
HETATM   14 Br1  UNK     1      16.961  -8.890  13.132  1.00  0.00    -0.051 Br
HETATM   15  C8  UNK     1      19.946  -2.733  14.196  1.00  0.00     0.304 A 
HETATM   16  O4  UNK     1      20.632  -1.716  14.217  1.00  0.00    -0.259 OA
ENDBRANCH   3   5
BRANCH   2  17
HETATM   17  C5  UNK     1      19.088   0.431  16.762  1.00  0.00     0.035 A 
HETATM   18  C12 UNK     1      19.388   1.646  16.171  1.00  0.00     0.029 A 
HETATM   19  C16 UNK     1      19.289   2.814  16.927  1.00  0.00     0.003 A 
HETATM   20  C15 UNK     1      18.891   2.749  18.263  1.00  0.00     0.018 A 
HETATM   21  C11 UNK     1      18.592   1.515  18.842  1.00  0.00     0.041 A 
HETATM   22  C9  UNK     1      18.692   0.347  18.086  1.00  0.00     0.047 A 
BRANCH  21  23
HETATM   23  C17 UNK     1      18.177   1.448  20.234  1.00  0.00     0.293 C 
HETATM   24  O5  UNK     1      17.382   0.613  20.688  1.00  0.00    -0.259 OA
BRANCH  23  25
HETATM   25  O2  UNK     1      18.775   2.423  20.986  1.00  0.00    -0.318 OA
BRANCH  25  26
HETATM   26  C18 UNK     1      19.910   2.031  21.766  1.00  0.00     0.174 C 
HETATM   27  C19 UNK     1      21.172   2.342  20.990  1.00  0.00     0.034 C 
ENDBRANCH  25  26
ENDBRANCH  23  25
ENDBRANCH  21  23
ENDBRANCH   2  17
TORSDOF 5
ENDMDL
MODEL 7
REMARK VINA RESULT:      -8.4      4.027      6.215
REMARK  5 active torsions:
REMARK  status: ('A' for Active; 'I' for Inactive)
REMARK    1  A    between atoms: C17_24  and  O2_3 
REMARK    2  A    between atoms: C18_25  and  O2_3 
REMARK    3  A    between atoms: C5_12  and  N1_7 
REMARK       I    between atoms: C6_13  and  N1_7 
REMARK    4  A    between atoms: C2_9  and  C6_13 
REMARK    5  A    between atoms: C11_18  and  C17_24 
ROOT
HETATM    1  O3  UNK     1      18.025  -0.812  32.686  1.00  0.00    -0.267 OA
HETATM    2  N1  UNK     1      18.768   0.484  34.506  1.00  0.00    -0.323 N 
HETATM    3  C6  UNK     1      18.421   0.240  33.183  1.00  0.00     0.262 C 
HETATM    4  H3  UNK     1      19.100   1.414  34.754  1.00  0.00     0.169 HD
ENDROOT
BRANCH   3   5
HETATM    5  C2  UNK     1      18.573   1.433  32.342  1.00  0.00     0.108 A 
HETATM    6  C4  UNK     1      18.188   2.592  32.886  1.00  0.00     0.037 A 
HETATM    7  C1  UNK     1      18.300   3.830  32.130  1.00  0.00     0.000 A 
HETATM    8  C3  UNK     1      18.813   3.785  30.837  1.00  0.00     0.089 A 
HETATM    9  C7  UNK     1      17.910   5.063  32.658  1.00  0.00     0.033 A 
HETATM   10  C10 UNK     1      18.946   4.934  30.060  1.00  0.00     0.039 A 
HETATM   11  O1  UNK     1      19.218   2.561  30.270  1.00  0.00    -0.274 OA
HETATM   12  C14 UNK     1      18.555   6.160  30.594  1.00  0.00     0.022 A 
HETATM   13  C13 UNK     1      18.038   6.225  31.890  1.00  0.00     0.011 A 
HETATM   14 Br1  UNK     1      17.509   7.892  32.609  1.00  0.00    -0.051 Br
HETATM   15  C8  UNK     1      19.122   1.361  30.969  1.00  0.00     0.304 A 
HETATM   16  O4  UNK     1      19.476   0.299  30.468  1.00  0.00    -0.259 OA
ENDBRANCH   3   5
BRANCH   2  17
HETATM   17  C5  UNK     1      18.744  -0.428  35.589  1.00  0.00     0.035 A 
HETATM   18  C12 UNK     1      18.002  -0.118  36.716  1.00  0.00     0.029 A 
HETATM   19  C16 UNK     1      17.978  -1.016  37.784  1.00  0.00     0.003 A 
HETATM   20  C15 UNK     1      18.695  -2.211  37.707  1.00  0.00     0.018 A 
HETATM   21  C11 UNK     1      19.437  -2.506  36.563  1.00  0.00     0.041 A 
HETATM   22  C9  UNK     1      19.462  -1.609  35.496  1.00  0.00     0.047 A 
BRANCH  21  23
HETATM   23  C17 UNK     1      20.185  -3.751  36.484  1.00  0.00     0.293 C 
HETATM   24  O5  UNK     1      20.262  -4.458  35.470  1.00  0.00    -0.259 OA
BRANCH  23  25
HETATM   25  O2  UNK     1      20.796  -4.047  37.672  1.00  0.00    -0.318 OA
BRANCH  25  26
HETATM   26  C18 UNK     1      21.317  -5.373  37.818  1.00  0.00     0.174 C 
HETATM   27  C19 UNK     1      20.390  -6.170  38.710  1.00  0.00     0.034 C 
ENDBRANCH  25  26
ENDBRANCH  23  25
ENDBRANCH  21  23
ENDBRANCH   2  17
TORSDOF 5
ENDMDL
MODEL 8
REMARK VINA RESULT:      -8.4      7.292     10.500
REMARK  5 active torsions:
REMARK  status: ('A' for Active; 'I' for Inactive)
REMARK    1  A    between atoms: C17_24  and  O2_3 
REMARK    2  A    between atoms: C18_25  and  O2_3 
REMARK    3  A    between atoms: C5_12  and  N1_7 
REMARK       I    between atoms: C6_13  and  N1_7 
REMARK    4  A    between atoms: C2_9  and  C6_13 
REMARK    5  A    between atoms: C11_18  and  C17_24 
ROOT
HETATM    1  O3  UNK     1      21.244  -4.527  37.162  1.00  0.00    -0.267 OA
HETATM    2  N1  UNK     1      19.452  -5.586  36.061  1.00  0.00    -0.323 N 
HETATM    3  C6  UNK     1      20.249  -4.514  36.440  1.00  0.00     0.262 C 
HETATM    4  H3  UNK     1      18.645  -5.402  35.469  1.00  0.00     0.169 HD
ENDROOT
BRANCH   3   5
HETATM    5  C2  UNK     1      19.781  -3.246  35.866  1.00  0.00     0.108 A 
HETATM    6  C4  UNK     1      19.058  -2.463  36.675  1.00  0.00     0.037 A 
HETATM    7  C1  UNK     1      18.550  -1.186  36.198  1.00  0.00     0.000 A 
HETATM    8  C3  UNK     1      18.830  -0.797  34.891  1.00  0.00     0.089 A 
HETATM    9  C7  UNK     1      17.790  -0.338  37.005  1.00  0.00     0.033 A 
HETATM   10  C10 UNK     1      18.373   0.413  34.372  1.00  0.00     0.039 A 
HETATM   11  O1  UNK     1      19.594  -1.625  34.045  1.00  0.00    -0.274 OA
HETATM   12  C14 UNK     1      17.616   1.254  35.185  1.00  0.00     0.022 A 
HETATM   13  C13 UNK     1      17.325   0.880  36.499  1.00  0.00     0.011 A 
HETATM   14 Br1  UNK     1      16.297   2.026  37.597  1.00  0.00    -0.051 Br
HETATM   15  C8  UNK     1      20.092  -2.852  34.474  1.00  0.00     0.304 A 
HETATM   16  O4  UNK     1      20.756  -3.567  33.731  1.00  0.00    -0.259 OA
ENDBRANCH   3   5
BRANCH   2  17
HETATM   17  C5  UNK     1      19.605  -6.947  36.422  1.00  0.00     0.035 A 
HETATM   18  C12 UNK     1      18.858  -7.454  37.471  1.00  0.00     0.029 A 
HETATM   19  C16 UNK     1      19.008  -8.795  37.828  1.00  0.00     0.003 A 
HETATM   20  C15 UNK     1      19.902  -9.607  37.130  1.00  0.00     0.018 A 
HETATM   21  C11 UNK     1      20.647  -9.078  36.076  1.00  0.00     0.041 A 
HETATM   22  C9  UNK     1      20.497  -7.738  35.718  1.00  0.00     0.047 A 
BRANCH  21  23
HETATM   23  C17 UNK     1      21.579  -9.925  35.348  1.00  0.00     0.293 C 
HETATM   24  O5  UNK     1      21.725  -9.910  34.118  1.00  0.00    -0.259 OA
BRANCH  23  25
HETATM   25  O2  UNK     1      22.278 -10.745  36.192  1.00  0.00    -0.318 OA
BRANCH  25  26
HETATM   26  C18 UNK     1      23.698 -10.791  36.017  1.00  0.00     0.174 C 
HETATM   27  C19 UNK     1      24.104 -12.205  35.661  1.00  0.00     0.034 C 
ENDBRANCH  25  26
ENDBRANCH  23  25
ENDBRANCH  21  23
ENDBRANCH   2  17
TORSDOF 5
ENDMDL
MODEL 9
REMARK VINA RESULT:      -8.4     13.115     16.268
REMARK  5 active torsions:
REMARK  status: ('A' for Active; 'I' for Inactive)
REMARK    1  A    between atoms: C17_24  and  O2_3 
REMARK    2  A    between atoms: C18_25  and  O2_3 
REMARK    3  A    between atoms: C5_12  and  N1_7 
REMARK       I    between atoms: C6_13  and  N1_7 
REMARK    4  A    between atoms: C2_9  and  C6_13 
REMARK    5  A    between atoms: C11_18  and  C17_24 
ROOT
HETATM    1  O3  UNK     1      26.173  -9.077  39.412  1.00  0.00    -0.267 OA
HETATM    2  N1  UNK     1      24.762  -7.406  38.538  1.00  0.00    -0.323 N 
HETATM    3  C6  UNK     1      25.968  -7.955  38.951  1.00  0.00     0.262 C 
HETATM    4  H3  UNK     1      24.759  -6.447  38.197  1.00  0.00     0.169 HD
ENDROOT
BRANCH   3   5
HETATM    5  C2  UNK     1      27.088  -7.021  38.785  1.00  0.00     0.108 A 
HETATM    6  C4  UNK     1      28.294  -7.570  38.601  1.00  0.00     0.037 A 
HETATM    7  C1  UNK     1      29.465  -6.725  38.426  1.00  0.00     0.000 A 
HETATM    8  C3  UNK     1      29.308  -5.343  38.453  1.00  0.00     0.089 A 
HETATM    9  C7  UNK     1      30.743  -7.255  38.232  1.00  0.00     0.033 A 
HETATM   10  C10 UNK     1      30.389  -4.478  38.293  1.00  0.00     0.039 A 
HETATM   11  O1  UNK     1      28.036  -4.771  38.646  1.00  0.00    -0.274 OA
HETATM   12  C14 UNK     1      31.661  -5.015  38.100  1.00  0.00     0.022 A 
HETATM   13  C13 UNK     1      31.837  -6.400  38.068  1.00  0.00     0.011 A 
HETATM   14 Br1  UNK     1      33.565  -7.121  37.805  1.00  0.00    -0.051 Br
HETATM   15  C8  UNK     1      26.898  -5.553  38.817  1.00  0.00     0.304 A 
HETATM   16  O4  UNK     1      25.793  -5.047  38.986  1.00  0.00    -0.259 OA
ENDBRANCH   3   5
BRANCH   2  17
HETATM   17  C5  UNK     1      23.484  -8.016  38.553  1.00  0.00     0.035 A 
HETATM   18  C12 UNK     1      22.800  -8.122  39.752  1.00  0.00     0.029 A 
HETATM   19  C16 UNK     1      21.541  -8.723  39.768  1.00  0.00     0.003 A 
HETATM   20  C15 UNK     1      20.985  -9.210  38.584  1.00  0.00     0.018 A 
HETATM   21  C11 UNK     1      21.689  -9.095  37.385  1.00  0.00     0.041 A 
HETATM   22  C9  UNK     1      22.948  -8.494  37.369  1.00  0.00     0.047 A 
BRANCH  21  23
HETATM   23  C17 UNK     1      21.110  -9.603  36.151  1.00  0.00     0.293 C 
HETATM   24  O5  UNK     1      21.437 -10.668  35.610  1.00  0.00    -0.259 OA
BRANCH  23  25
HETATM   25  O2  UNK     1      20.153  -8.757  35.659  1.00  0.00    -0.318 OA
BRANCH  25  26
HETATM   26  C18 UNK     1      20.599  -7.722  34.776  1.00  0.00     0.174 C 
HETATM   27  C19 UNK     1      19.934  -6.420  35.170  1.00  0.00     0.034 C 
ENDBRANCH  25  26
ENDBRANCH  23  25
ENDBRANCH  21  23
ENDBRANCH   2  17
TORSDOF 5
ENDMDL
MODEL 10
REMARK VINA RESULT:      -8.3      7.347     10.810
REMARK  5 active torsions:
REMARK  status: ('A' for Active; 'I' for Inactive)
REMARK    1  A    between atoms: C17_24  and  O2_3 
REMARK    2  A    between atoms: C18_25  and  O2_3 
REMARK    3  A    between atoms: C5_12  and  N1_7 
REMARK       I    between atoms: C6_13  and  N1_7 
REMARK    4  A    between atoms: C2_9  and  C6_13 
REMARK    5  A    between atoms: C11_18  and  C17_24 
ROOT
HETATM    1  O3  UNK     1      21.024  -4.162  37.019  1.00  0.00    -0.267 OA
HETATM    2  N1  UNK     1      19.719  -5.479  35.567  1.00  0.00    -0.323 N 
HETATM    3  C6  UNK     1      20.268  -4.302  36.060  1.00  0.00     0.262 C 
HETATM    4  H3  UNK     1      19.089  -5.421  34.769  1.00  0.00     0.169 HD
ENDROOT
BRANCH   3   5
HETATM    5  C2  UNK     1      19.849  -3.128  35.285  1.00  0.00     0.108 A 
HETATM    6  C4  UNK     1      20.279  -3.070  34.020  1.00  0.00     0.037 A 
HETATM    7  C1  UNK     1      19.915  -1.946  33.172  1.00  0.00     0.000 A 
HETATM    8  C3  UNK     1      19.114  -0.937  33.699  1.00  0.00     0.089 A 
HETATM    9  C7  UNK     1      20.343  -1.843  31.846  1.00  0.00     0.033 A 
HETATM   10  C10 UNK     1      18.731   0.167  32.940  1.00  0.00     0.039 A 
HETATM   11  O1  UNK     1      18.662  -1.005  35.031  1.00  0.00    -0.274 OA
HETATM   12  C14 UNK     1      19.161   0.261  31.619  1.00  0.00     0.022 A 
HETATM   13  C13 UNK     1      19.965  -0.742  31.073  1.00  0.00     0.011 A 
HETATM   14 Br1  UNK     1      20.546  -0.607  29.278  1.00  0.00    -0.051 Br
HETATM   15  C8  UNK     1      18.995  -2.068  35.866  1.00  0.00     0.304 A 
HETATM   16  O4  UNK     1      18.598  -2.119  37.026  1.00  0.00    -0.259 OA
ENDBRANCH   3   5
BRANCH   2  17
HETATM   17  C5  UNK     1      19.905  -6.793  36.061  1.00  0.00     0.035 A 
HETATM   18  C12 UNK     1      19.223  -7.189  37.200  1.00  0.00     0.029 A 
HETATM   19  C16 UNK     1      19.406  -8.483  37.687  1.00  0.00     0.003 A 
HETATM   20  C15 UNK     1      20.267  -9.362  37.029  1.00  0.00     0.018 A 
HETATM   21  C11 UNK     1      20.945  -8.946  35.883  1.00  0.00     0.041 A 
HETATM   22  C9  UNK     1      20.763  -7.651  35.395  1.00  0.00     0.047 A 
BRANCH  21  23
HETATM   23  C17 UNK     1      21.842  -9.862  35.197  1.00  0.00     0.293 C 
HETATM   24  O5  UNK     1      21.720 -10.207  34.014  1.00  0.00    -0.259 OA
BRANCH  23  25
HETATM   25  O2  UNK     1      22.844 -10.297  36.022  1.00  0.00    -0.318 OA
BRANCH  25  26
HETATM   26  C18 UNK     1      23.187 -11.685  35.944  1.00  0.00     0.174 C 
HETATM   27  C19 UNK     1      24.694 -11.816  35.873  1.00  0.00     0.034 C 
ENDBRANCH  25  26
ENDBRANCH  23  25
ENDBRANCH  21  23
ENDBRANCH   2  17
TORSDOF 5
ENDMDL
