MODEL 1
REMARK VINA RESULT:     -10.1      0.000      0.000
REMARK  2 active torsions:
REMARK  status: ('A' for Active; 'I' for Inactive)
REMARK    1  A    between atoms: C10_16  and  N1_5 
REMARK       I    between atoms: C12_18  and  N1_5 
REMARK    2  A    between atoms: C12_18  and  C13_19 
ROOT
HETATM    1  S1  UNK     1      20.201  -4.851  37.194  1.00  0.00    -0.075 SA
HETATM    2  N2  UNK     1      20.759  -7.463  32.874  1.00  0.00    -0.191 NA
HETATM    3  C1  UNK     1      18.774  -9.229  37.660  1.00  0.00     0.000 C 
HETATM    4  C2  UNK     1      19.322  -9.080  39.083  1.00  0.00     0.000 C 
HETATM    5  C3  UNK     1      19.811  -9.605  36.593  1.00  0.00     0.005 C 
HETATM    6  C4  UNK     1      19.462  -7.628  39.565  1.00  0.00     0.005 C 
HETATM    7  C5  UNK     1      21.062  -8.729  36.525  1.00  0.00     0.041 C 
HETATM    8  C6  UNK     1      20.691  -6.875  39.047  1.00  0.00     0.047 C 
HETATM    9  C7  UNK     1      20.752  -7.264  36.483  1.00  0.00    -0.021 A 
HETATM   10  C8  UNK     1      20.579  -6.470  37.606  1.00  0.00    -0.007 A 
HETATM   11  C9  UNK     1      20.572  -6.510  35.279  1.00  0.00     0.085 A 
HETATM   12  C10 UNK     1      20.271  -5.190  35.523  1.00  0.00     0.098 A 
HETATM   13  C11 UNK     1      20.676  -7.037  33.951  1.00  0.00     0.103 C 
ENDROOT
BRANCH  12  14
HETATM   14  N1  UNK     1      20.024  -4.143  34.676  1.00  0.00    -0.316 N 
HETATM   15  C12 UNK     1      20.527  -2.840  34.788  1.00  0.00     0.262 C 
HETATM   16  O2  UNK     1      21.273  -2.382  35.645  1.00  0.00    -0.267 OA
HETATM   17  H13 UNK     1      19.425  -4.369  33.886  1.00  0.00     0.170 HD
BRANCH  15  18
HETATM   18  C13 UNK     1      20.057  -1.958  33.699  1.00  0.00     0.108 A 
HETATM   19  C14 UNK     1      20.650  -2.117  32.511  1.00  0.00     0.037 A 
HETATM   20  C15 UNK     1      20.256  -1.294  31.378  1.00  0.00    -0.001 A 
HETATM   21  C16 UNK     1      19.255  -0.344  31.552  1.00  0.00     0.089 A 
HETATM   22  C18 UNK     1      20.849  -1.425  30.119  1.00  0.00     0.014 A 
HETATM   23  O1  UNK     1      18.633  -0.182  32.805  1.00  0.00    -0.274 OA
HETATM   24  C19 UNK     1      18.831   0.476  30.508  1.00  0.00     0.038 A 
HETATM   25  C17 UNK     1      18.988  -0.955  33.907  1.00  0.00     0.304 A 
HETATM   26  O3  UNK     1      18.442  -0.806  34.995  1.00  0.00    -0.259 OA
HETATM   27  C21 UNK     1      19.427   0.338  29.257  1.00  0.00     0.003 A 
HETATM   28  C20 UNK     1      20.434  -0.610  29.063  1.00  0.00     0.001 A 
ENDBRANCH  15  18
ENDBRANCH  12  14
TORSDOF 2
ENDMDL
MODEL 2
REMARK VINA RESULT:     -10.1      2.919      4.390
REMARK  2 active torsions:
REMARK  status: ('A' for Active; 'I' for Inactive)
REMARK    1  A    between atoms: C10_16  and  N1_5 
REMARK       I    between atoms: C12_18  and  N1_5 
REMARK    2  A    between atoms: C12_18  and  C13_19 
ROOT
HETATM    1  S1  UNK     1      18.523  -6.903  37.457  1.00  0.00    -0.075 SA
HETATM    2  N2  UNK     1      23.159  -5.059  38.407  1.00  0.00    -0.191 NA
HETATM    3  C1  UNK     1      21.803 -10.083  36.712  1.00  0.00     0.000 C 
HETATM    4  C2  UNK     1      20.740 -11.057  37.230  1.00  0.00     0.000 C 
HETATM    5  C3  UNK     1      22.631  -9.379  37.795  1.00  0.00     0.005 C 
HETATM    6  C4  UNK     1      19.298 -10.534  37.148  1.00  0.00     0.005 C 
HETATM    7  C5  UNK     1      21.845  -8.671  38.897  1.00  0.00     0.041 C 
HETATM    8  C6  UNK     1      18.888  -9.552  38.248  1.00  0.00     0.047 C 
HETATM    9  C7  UNK     1      20.771  -7.771  38.368  1.00  0.00    -0.021 A 
HETATM   10  C8  UNK     1      19.480  -8.182  38.077  1.00  0.00    -0.007 A 
HETATM   11  C9  UNK     1      20.952  -6.381  38.077  1.00  0.00     0.085 A 
HETATM   12  C10 UNK     1      19.813  -5.792  37.579  1.00  0.00     0.098 A 
HETATM   13  C11 UNK     1      22.171  -5.651  38.260  1.00  0.00     0.103 C 
ENDROOT
BRANCH  12  14
HETATM   14  N1  UNK     1      19.555  -4.509  37.176  1.00  0.00    -0.316 N 
HETATM   15  C12 UNK     1      19.818  -3.959  35.915  1.00  0.00     0.262 C 
HETATM   16  O2  UNK     1      20.321  -4.500  34.938  1.00  0.00    -0.267 OA
HETATM   17  H13 UNK     1      19.112  -3.925  37.880  1.00  0.00     0.170 HD
BRANCH  15  18
HETATM   18  C13 UNK     1      19.413  -2.541  35.822  1.00  0.00     0.108 A 
HETATM   19  C14 UNK     1      18.784  -2.034  36.887  1.00  0.00     0.037 A 
HETATM   20  C15 UNK     1      18.345  -0.647  36.889  1.00  0.00    -0.001 A 
HETATM   21  C16 UNK     1      18.592   0.139  35.767  1.00  0.00     0.089 A 
HETATM   22  C18 UNK     1      17.684  -0.075  37.979  1.00  0.00     0.014 A 
HETATM   23  O1  UNK     1      19.256  -0.401  34.648  1.00  0.00    -0.274 OA
HETATM   24  C19 UNK     1      18.198   1.474  35.705  1.00  0.00     0.038 A 
HETATM   25  C17 UNK     1      19.688  -1.724  34.618  1.00  0.00     0.304 A 
HETATM   26  O3  UNK     1      20.264  -2.186  33.638  1.00  0.00    -0.259 OA
HETATM   27  C21 UNK     1      17.540   2.035  36.796  1.00  0.00     0.003 A 
HETATM   28  C20 UNK     1      17.283   1.263  37.931  1.00  0.00     0.001 A 
ENDBRANCH  15  18
ENDBRANCH  12  14
TORSDOF 2
ENDMDL
MODEL 3
REMARK VINA RESULT:      -9.9      2.490      3.517
REMARK  2 active torsions:
REMARK  status: ('A' for Active; 'I' for Inactive)
REMARK    1  A    between atoms: C10_16  and  N1_5 
REMARK       I    between atoms: C12_18  and  N1_5 
REMARK    2  A    between atoms: C12_18  and  C13_19 
ROOT
HETATM    1  S1  UNK     1      20.129  -6.521  38.330  1.00  0.00    -0.075 SA
HETATM    2  N2  UNK     1      20.715  -7.251  33.338  1.00  0.00    -0.191 NA
HETATM    3  C1  UNK     1      19.279 -10.914  37.144  1.00  0.00     0.000 C 
HETATM    4  C2  UNK     1      19.898 -11.226  38.510  1.00  0.00     0.000 C 
HETATM    5  C3  UNK     1      20.282 -10.723  35.998  1.00  0.00     0.005 C 
HETATM    6  C4  UNK     1      19.892 -10.051  39.499  1.00  0.00     0.005 C 
HETATM    7  C5  UNK     1      21.409  -9.721  36.243  1.00  0.00     0.041 C 
HETATM    8  C6  UNK     1      20.982  -8.999  39.282  1.00  0.00     0.047 C 
HETATM    9  C7  UNK     1      20.921  -8.402  36.757  1.00  0.00    -0.021 A 
HETATM   10  C8  UNK     1      20.727  -8.110  38.099  1.00  0.00    -0.007 A 
HETATM   11  C9  UNK     1      20.572  -7.289  35.927  1.00  0.00     0.085 A 
HETATM   12  C10 UNK     1      20.130  -6.207  36.653  1.00  0.00     0.098 A 
HETATM   13  C11 UNK     1      20.651  -7.268  34.497  1.00  0.00     0.103 C 
ENDROOT
BRANCH  12  14
HETATM   14  N1  UNK     1      19.702  -4.965  36.263  1.00  0.00    -0.316 N 
HETATM   15  C12 UNK     1      20.400  -3.759  36.400  1.00  0.00     0.262 C 
HETATM   16  O2  UNK     1      21.510  -3.572  36.884  1.00  0.00    -0.267 OA
HETATM   17  H13 UNK     1      18.788  -4.953  35.818  1.00  0.00     0.170 HD
BRANCH  15  18
HETATM   18  C13 UNK     1      19.642  -2.605  35.873  1.00  0.00     0.108 A 
HETATM   19  C14 UNK     1      18.695  -2.104  36.673  1.00  0.00     0.037 A 
HETATM   20  C15 UNK     1      17.895  -0.968  36.241  1.00  0.00    -0.001 A 
HETATM   21  C16 UNK     1      18.133  -0.415  34.987  1.00  0.00     0.089 A 
HETATM   22  C18 UNK     1      16.895  -0.412  37.043  1.00  0.00     0.014 A 
HETATM   23  O1  UNK     1      19.133  -0.947  34.149  1.00  0.00    -0.274 OA
HETATM   24  C19 UNK     1      17.403   0.673  34.513  1.00  0.00     0.038 A 
HETATM   25  C17 UNK     1      19.914  -2.033  34.535  1.00  0.00     0.304 A 
HETATM   26  O3  UNK     1      20.782  -2.490  33.798  1.00  0.00    -0.259 OA
HETATM   27  C21 UNK     1      16.408   1.221  35.319  1.00  0.00     0.003 A 
HETATM   28  C20 UNK     1      16.155   0.680  36.581  1.00  0.00     0.001 A 
ENDBRANCH  15  18
ENDBRANCH  12  14
TORSDOF 2
ENDMDL
MODEL 4
REMARK VINA RESULT:      -9.7      7.051     11.783
REMARK  2 active torsions:
REMARK  status: ('A' for Active; 'I' for Inactive)
REMARK    1  A    between atoms: C10_16  and  N1_5 
REMARK       I    between atoms: C12_18  and  N1_5 
REMARK    2  A    between atoms: C12_18  and  C13_19 
ROOT
HETATM    1  S1  UNK     1      16.351   6.223  31.376  1.00  0.00    -0.075 SA
HETATM    2  N2  UNK     1      21.189   6.389  32.912  1.00  0.00    -0.191 NA
HETATM    3  C1  UNK     1      16.779   8.463  35.403  1.00  0.00     0.000 C 
HETATM    4  C2  UNK     1      15.636   9.322  34.855  1.00  0.00     0.000 C 
HETATM    5  C3  UNK     1      18.185   8.871  34.945  1.00  0.00     0.005 C 
HETATM    6  C4  UNK     1      14.814   8.658  33.740  1.00  0.00     0.005 C 
HETATM    7  C5  UNK     1      18.391   9.019  33.438  1.00  0.00     0.041 C 
HETATM    8  C6  UNK     1      15.453   8.676  32.349  1.00  0.00     0.047 C 
HETATM    9  C7  UNK     1      17.890   7.842  32.658  1.00  0.00    -0.021 A 
HETATM   10  C8  UNK     1      16.589   7.705  32.200  1.00  0.00    -0.007 A 
HETATM   11  C9  UNK     1      18.686   6.703  32.311  1.00  0.00     0.085 A 
HETATM   12  C10 UNK     1      17.974   5.754  31.615  1.00  0.00     0.098 A 
HETATM   13  C11 UNK     1      20.068   6.530  32.643  1.00  0.00     0.103 C 
ENDROOT
BRANCH  12  14
HETATM   14  N1  UNK     1      18.341   4.538  31.103  1.00  0.00    -0.316 N 
HETATM   15  C12 UNK     1      18.159   3.288  31.707  1.00  0.00     0.262 C 
HETATM   16  O2  UNK     1      17.647   3.032  32.790  1.00  0.00    -0.267 OA
HETATM   17  H13 UNK     1      18.772   4.577  30.183  1.00  0.00     0.170 HD
BRANCH  15  18
HETATM   18  C13 UNK     1      18.675   2.179  30.877  1.00  0.00     0.108 A 
HETATM   19  C14 UNK     1      19.127   1.107  31.536  1.00  0.00     0.037 A 
HETATM   20  C15 UNK     1      19.655  -0.035  30.805  1.00  0.00    -0.001 A 
HETATM   21  C16 UNK     1      19.680   0.009  29.415  1.00  0.00     0.089 A 
HETATM   22  C18 UNK     1      20.139  -1.176  31.452  1.00  0.00     0.014 A 
HETATM   23  O1  UNK     1      19.202   1.140  28.726  1.00  0.00    -0.274 OA
HETATM   24  C19 UNK     1      20.173  -1.051  28.656  1.00  0.00     0.038 A 
HETATM   25  C17 UNK     1      18.691   2.247  29.398  1.00  0.00     0.304 A 
HETATM   26  O3  UNK     1      18.277   3.229  28.790  1.00  0.00    -0.259 OA
HETATM   27  C21 UNK     1      20.653  -2.184  29.309  1.00  0.00     0.003 A 
HETATM   28  C20 UNK     1      20.635  -2.246  30.704  1.00  0.00     0.001 A 
ENDBRANCH  15  18
ENDBRANCH  12  14
TORSDOF 2
ENDMDL
MODEL 5
REMARK VINA RESULT:      -9.7      8.010     10.821
REMARK  2 active torsions:
REMARK  status: ('A' for Active; 'I' for Inactive)
REMARK    1  A    between atoms: C10_16  and  N1_5 
REMARK       I    between atoms: C12_18  and  N1_5 
REMARK    2  A    between atoms: C12_18  and  C13_19 
ROOT
HETATM    1  S1  UNK     1      29.011  -8.725  37.488  1.00  0.00    -0.075 SA
HETATM    2  N2  UNK     1      29.289  -4.076  39.515  1.00  0.00    -0.191 NA
HETATM    3  C1  UNK     1      32.607  -6.348  35.802  1.00  0.00     0.000 C 
HETATM    4  C2  UNK     1      33.289  -7.719  35.780  1.00  0.00     0.000 C 
HETATM    5  C3  UNK     1      32.658  -5.610  37.146  1.00  0.00     0.005 C 
HETATM    6  C4  UNK     1      32.323  -8.914  35.792  1.00  0.00     0.005 C 
HETATM    7  C5  UNK     1      32.176  -6.392  38.367  1.00  0.00     0.041 C 
HETATM    8  C6  UNK     1      31.726  -9.268  37.156  1.00  0.00     0.047 C 
HETATM    9  C7  UNK     1      30.844  -7.043  38.160  1.00  0.00    -0.021 A 
HETATM   10  C8  UNK     1      30.667  -8.305  37.612  1.00  0.00    -0.007 A 
HETATM   11  C9  UNK     1      29.588  -6.435  38.479  1.00  0.00     0.085 A 
HETATM   12  C10 UNK     1      28.516  -7.239  38.166  1.00  0.00     0.098 A 
HETATM   13  C11 UNK     1      29.423  -5.132  39.051  1.00  0.00     0.103 C 
ENDROOT
BRANCH  12  14
HETATM   14  N1  UNK     1      27.167  -7.048  38.302  1.00  0.00    -0.316 N 
HETATM   15  C12 UNK     1      26.275  -7.862  39.011  1.00  0.00     0.262 C 
HETATM   16  O2  UNK     1      26.512  -8.885  39.642  1.00  0.00    -0.267 OA
HETATM   17  H13 UNK     1      26.809  -6.215  37.844  1.00  0.00     0.170 HD
BRANCH  15  18
HETATM   18  C13 UNK     1      24.885  -7.363  38.950  1.00  0.00     0.108 A 
HETATM   19  C14 UNK     1      23.920  -8.286  39.029  1.00  0.00     0.037 A 
HETATM   20  C15 UNK     1      22.521  -7.892  38.977  1.00  0.00    -0.001 A 
HETATM   21  C16 UNK     1      22.206  -6.543  38.844  1.00  0.00     0.089 A 
HETATM   22  C18 UNK     1      21.481  -8.822  39.055  1.00  0.00     0.014 A 
HETATM   23  O1  UNK     1      23.226  -5.575  38.762  1.00  0.00    -0.274 OA
HETATM   24  C19 UNK     1      20.886  -6.099  38.788  1.00  0.00     0.038 A 
HETATM   25  C17 UNK     1      24.573  -5.922  38.810  1.00  0.00     0.304 A 
HETATM   26  O3  UNK     1      25.455  -5.072  38.736  1.00  0.00    -0.259 OA
HETATM   27  C21 UNK     1      19.856  -7.033  38.867  1.00  0.00     0.003 A 
HETATM   28  C20 UNK     1      20.152  -8.391  39.001  1.00  0.00     0.001 A 
ENDBRANCH  15  18
ENDBRANCH  12  14
TORSDOF 2
ENDMDL
MODEL 6
REMARK VINA RESULT:      -9.5      8.295     11.124
REMARK  2 active torsions:
REMARK  status: ('A' for Active; 'I' for Inactive)
REMARK    1  A    between atoms: C10_16  and  N1_5 
REMARK       I    between atoms: C12_18  and  N1_5 
REMARK    2  A    between atoms: C12_18  and  C13_19 
ROOT
HETATM    1  S1  UNK     1      29.762  -8.715  37.336  1.00  0.00    -0.075 SA
HETATM    2  N2  UNK     1      28.297  -4.187  39.110  1.00  0.00    -0.191 NA
HETATM    3  C1  UNK     1      32.686  -5.362  36.057  1.00  0.00     0.000 C 
HETATM    4  C2  UNK     1      33.746  -6.456  36.215  1.00  0.00     0.000 C 
HETATM    5  C3  UNK     1      32.300  -4.631  37.350  1.00  0.00     0.005 C 
HETATM    6  C4  UNK     1      33.198  -7.891  36.154  1.00  0.00     0.005 C 
HETATM    7  C5  UNK     1      31.893  -5.511  38.531  1.00  0.00     0.041 C 
HETATM    8  C6  UNK     1      32.530  -8.397  37.435  1.00  0.00     0.047 C 
HETATM    9  C7  UNK     1      30.870  -6.544  38.170  1.00  0.00    -0.021 A 
HETATM   10  C8  UNK     1      31.172  -7.803  37.676  1.00  0.00    -0.007 A 
HETATM   11  C9  UNK     1      29.455  -6.349  38.267  1.00  0.00     0.085 A 
HETATM   12  C10 UNK     1      28.741  -7.448  37.848  1.00  0.00     0.098 A 
HETATM   13  C11 UNK     1      28.816  -5.155  38.733  1.00  0.00     0.103 C 
ENDROOT
BRANCH  12  14
HETATM   14  N1  UNK     1      27.393  -7.681  37.774  1.00  0.00    -0.316 N 
HETATM   15  C12 UNK     1      26.604  -8.335  38.729  1.00  0.00     0.262 C 
HETATM   16  O2  UNK     1      26.949  -8.819  39.800  1.00  0.00    -0.267 OA
HETATM   17  H13 UNK     1      26.945  -7.316  36.938  1.00  0.00     0.170 HD
BRANCH  15  18
HETATM   18  C13 UNK     1      25.184  -8.415  38.329  1.00  0.00     0.108 A 
HETATM   19  C14 UNK     1      24.320  -7.712  39.070  1.00  0.00     0.037 A 
HETATM   20  C15 UNK     1      22.900  -7.729  38.754  1.00  0.00    -0.001 A 
HETATM   21  C16 UNK     1      22.459  -8.485  37.672  1.00  0.00     0.089 A 
HETATM   22  C18 UNK     1      21.961  -7.011  39.500  1.00  0.00     0.014 A 
HETATM   23  O1  UNK     1      23.374  -9.222  36.895  1.00  0.00    -0.274 OA
HETATM   24  C19 UNK     1      21.113  -8.544  37.317  1.00  0.00     0.038 A 
HETATM   25  C17 UNK     1      24.738  -9.225  37.172  1.00  0.00     0.304 A 
HETATM   26  O3  UNK     1      25.528  -9.871  36.491  1.00  0.00    -0.259 OA
HETATM   27  C21 UNK     1      20.185  -7.825  38.066  1.00  0.00     0.003 A 
HETATM   28  C20 UNK     1      20.608  -7.060  39.155  1.00  0.00     0.001 A 
ENDBRANCH  15  18
ENDBRANCH  12  14
TORSDOF 2
ENDMDL
MODEL 7
REMARK VINA RESULT:      -9.3      3.206      8.264
REMARK  2 active torsions:
REMARK  status: ('A' for Active; 'I' for Inactive)
REMARK    1  A    between atoms: C10_16  and  N1_5 
REMARK       I    between atoms: C12_18  and  N1_5 
REMARK    2  A    between atoms: C12_18  and  C13_19 
ROOT
HETATM    1  S1  UNK     1      18.163  -2.304  37.417  1.00  0.00    -0.075 SA
HETATM    2  N2  UNK     1      20.519  -2.232  32.918  1.00  0.00    -0.191 NA
HETATM    3  C1  UNK     1      19.029   2.023  36.022  1.00  0.00     0.000 C 
HETATM    4  C2  UNK     1      17.699   2.335  36.715  1.00  0.00     0.000 C 
HETATM    5  C3  UNK     1      18.913   1.506  34.582  1.00  0.00     0.005 C 
HETATM    6  C4  UNK     1      17.263   1.295  37.759  1.00  0.00     0.005 C 
HETATM    7  C5  UNK     1      17.981   0.316  34.362  1.00  0.00     0.041 C 
HETATM    8  C6  UNK     1      16.635   0.018  37.197  1.00  0.00     0.047 C 
HETATM    9  C7  UNK     1      18.226  -0.808  35.321  1.00  0.00    -0.021 A 
HETATM   10  C8  UNK     1      17.633  -0.913  36.570  1.00  0.00    -0.007 A 
HETATM   11  C9  UNK     1      19.119  -1.900  35.076  1.00  0.00     0.085 A 
HETATM   12  C10 UNK     1      19.177  -2.781  36.131  1.00  0.00     0.098 A 
HETATM   13  C11 UNK     1      19.892  -2.083  33.884  1.00  0.00     0.103 C 
ENDROOT
BRANCH  12  14
HETATM   14  N1  UNK     1      19.892  -3.936  36.312  1.00  0.00    -0.316 N 
HETATM   15  C12 UNK     1      19.372  -5.228  36.456  1.00  0.00     0.262 C 
HETATM   16  O2  UNK     1      18.199  -5.582  36.448  1.00  0.00    -0.267 OA
HETATM   17  H13 UNK     1      20.901  -3.812  36.322  1.00  0.00     0.170 HD
BRANCH  15  18
HETATM   18  C13 UNK     1      20.429  -6.245  36.635  1.00  0.00     0.108 A 
HETATM   19  C14 UNK     1      20.339  -7.334  35.863  1.00  0.00     0.037 A 
HETATM   20  C15 UNK     1      21.333  -8.391  35.969  1.00  0.00    -0.001 A 
HETATM   21  C16 UNK     1      22.372  -8.250  36.882  1.00  0.00     0.089 A 
HETATM   22  C18 UNK     1      21.279  -9.546  35.183  1.00  0.00     0.014 A 
HETATM   23  O1  UNK     1      22.462  -7.101  37.692  1.00  0.00    -0.274 OA
HETATM   24  C19 UNK     1      23.356  -9.226  37.032  1.00  0.00     0.038 A 
HETATM   25  C17 UNK     1      21.527  -6.072  37.613  1.00  0.00     0.304 A 
HETATM   26  O3  UNK     1      21.612  -5.075  38.323  1.00  0.00    -0.259 OA
HETATM   27  C21 UNK     1      23.295 -10.373  36.245  1.00  0.00     0.003 A 
HETATM   28  C20 UNK     1      22.258 -10.533  35.323  1.00  0.00     0.001 A 
ENDBRANCH  15  18
ENDBRANCH  12  14
TORSDOF 2
ENDMDL
MODEL 8
REMARK VINA RESULT:      -9.3      7.139     12.213
REMARK  2 active torsions:
REMARK  status: ('A' for Active; 'I' for Inactive)
REMARK    1  A    between atoms: C10_16  and  N1_5 
REMARK       I    between atoms: C12_18  and  N1_5 
REMARK    2  A    between atoms: C12_18  and  C13_19 
ROOT
HETATM    1  S1  UNK     1      15.689   6.321  31.888  1.00  0.00    -0.075 SA
HETATM    2  N2  UNK     1      20.466   7.046  33.456  1.00  0.00    -0.191 NA
HETATM    3  C1  UNK     1      15.932   9.615  35.131  1.00  0.00     0.000 C 
HETATM    4  C2  UNK     1      14.794  10.254  34.328  1.00  0.00     0.000 C 
HETATM    5  C3  UNK     1      17.346   9.916  34.617  1.00  0.00     0.005 C 
HETATM    6  C4  UNK     1      14.025   9.280  33.422  1.00  0.00     0.005 C 
HETATM    7  C5  UNK     1      17.603   9.639  33.137  1.00  0.00     0.041 C 
HETATM    8  C6  UNK     1      14.713   8.924  32.102  1.00  0.00     0.047 C 
HETATM    9  C7  UNK     1      17.152   8.277  32.706  1.00  0.00    -0.021 A 
HETATM   10  C8  UNK     1      15.871   7.982  32.267  1.00  0.00    -0.007 A 
HETATM   11  C9  UNK     1      17.980   7.110  32.718  1.00  0.00     0.085 A 
HETATM   12  C10 UNK     1      17.312   5.984  32.297  1.00  0.00     0.098 A 
HETATM   13  C11 UNK     1      19.353   7.075  33.126  1.00  0.00     0.103 C 
ENDROOT
BRANCH  12  14
HETATM   14  N1  UNK     1      17.719   4.683  32.161  1.00  0.00    -0.316 N 
HETATM   15  C12 UNK     1      18.448   4.142  31.095  1.00  0.00     0.262 C 
HETATM   16  O2  UNK     1      18.863   4.708  30.091  1.00  0.00    -0.267 OA
HETATM   17  H13 UNK     1      17.464   4.076  32.936  1.00  0.00     0.170 HD
BRANCH  15  18
HETATM   18  C13 UNK     1      18.718   2.700  31.269  1.00  0.00     0.108 A 
HETATM   19  C14 UNK     1      19.252   2.066  30.219  1.00  0.00     0.037 A 
HETATM   20  C15 UNK     1      19.552   0.645  30.295  1.00  0.00    -0.001 A 
HETATM   21  C16 UNK     1      19.275  -0.040  31.474  1.00  0.00     0.089 A 
HETATM   22  C18 UNK     1      20.109  -0.058  29.223  1.00  0.00     0.014 A 
HETATM   23  O1  UNK     1      18.713   0.633  32.576  1.00  0.00    -0.274 OA
HETATM   24  C19 UNK     1      19.538  -1.402  31.611  1.00  0.00     0.038 A 
HETATM   25  C17 UNK     1      18.416   1.992  32.534  1.00  0.00     0.304 A 
HETATM   26  O3  UNK     1      17.926   2.569  33.499  1.00  0.00    -0.259 OA
HETATM   27  C21 UNK     1      20.094  -2.094  30.538  1.00  0.00     0.003 A 
HETATM   28  C20 UNK     1      20.379  -1.423  29.346  1.00  0.00     0.001 A 
ENDBRANCH  15  18
ENDBRANCH  12  14
TORSDOF 2
ENDMDL
MODEL 9
REMARK VINA RESULT:      -9.2      1.661      2.420
REMARK  2 active torsions:
REMARK  status: ('A' for Active; 'I' for Inactive)
REMARK    1  A    between atoms: C10_16  and  N1_5 
REMARK       I    between atoms: C12_18  and  N1_5 
REMARK    2  A    between atoms: C12_18  and  C13_19 
ROOT
HETATM    1  S1  UNK     1      18.331  -6.633  36.416  1.00  0.00    -0.075 SA
HETATM    2  N2  UNK     1      22.656  -4.451  37.941  1.00  0.00    -0.191 NA
HETATM    3  C1  UNK     1      21.529  -9.791  37.525  1.00  0.00     0.000 C 
HETATM    4  C2  UNK     1      20.321 -10.596  38.016  1.00  0.00     0.000 C 
HETATM    5  C3  UNK     1      22.087  -8.770  38.525  1.00  0.00     0.005 C 
HETATM    6  C4  UNK     1      18.976 -10.165  37.411  1.00  0.00     0.005 C 
HETATM    7  C5  UNK     1      21.081  -7.788  39.125  1.00  0.00     0.041 C 
HETATM    8  C6  UNK     1      18.348  -8.911  38.024  1.00  0.00     0.047 C 
HETATM    9  C7  UNK     1      20.225  -7.120  38.093  1.00  0.00    -0.021 A 
HETATM   10  C8  UNK     1      19.032  -7.638  37.613  1.00  0.00    -0.007 A 
HETATM   11  C9  UNK     1      20.544  -5.877  37.459  1.00  0.00     0.085 A 
HETATM   12  C10 UNK     1      19.601  -5.499  36.532  1.00  0.00     0.098 A 
HETATM   13  C11 UNK     1      21.711  -5.090  37.726  1.00  0.00     0.103 C 
ENDROOT
BRANCH  12  14
HETATM   14  N1  UNK     1      19.519  -4.404  35.713  1.00  0.00    -0.316 N 
HETATM   15  C12 UNK     1      19.527  -3.061  36.110  1.00  0.00     0.262 C 
HETATM   16  O2  UNK     1      19.608  -2.601  37.243  1.00  0.00    -0.267 OA
HETATM   17  H13 UNK     1      19.464  -4.620  34.721  1.00  0.00     0.170 HD
BRANCH  15  18
HETATM   18  C13 UNK     1      19.421  -2.133  34.964  1.00  0.00     0.108 A 
HETATM   19  C14 UNK     1      20.022  -2.519  33.833  1.00  0.00     0.037 A 
HETATM   20  C15 UNK     1      19.973  -1.672  32.651  1.00  0.00    -0.001 A 
HETATM   21  C16 UNK     1      19.294  -0.460  32.719  1.00  0.00     0.089 A 
HETATM   22  C18 UNK     1      20.587  -2.034  31.449  1.00  0.00     0.014 A 
HETATM   23  O1  UNK     1      18.663  -0.059  33.913  1.00  0.00    -0.274 OA
HETATM   24  C19 UNK     1      19.211   0.398  31.624  1.00  0.00     0.038 A 
HETATM   25  C17 UNK     1      18.692  -0.848  35.059  1.00  0.00     0.304 A 
HETATM   26  O3  UNK     1      18.140  -0.491  36.095  1.00  0.00    -0.259 OA
HETATM   27  C21 UNK     1      19.825   0.029  30.429  1.00  0.00     0.003 A 
HETATM   28  C20 UNK     1      20.511  -1.184  30.342  1.00  0.00     0.001 A 
ENDBRANCH  15  18
ENDBRANCH  12  14
TORSDOF 2
ENDMDL
MODEL 10
REMARK VINA RESULT:      -9.1      8.564     11.420
REMARK  2 active torsions:
REMARK  status: ('A' for Active; 'I' for Inactive)
REMARK    1  A    between atoms: C10_16  and  N1_5 
REMARK       I    between atoms: C12_18  and  N1_5 
REMARK    2  A    between atoms: C12_18  and  C13_19 
ROOT
HETATM    1  S1  UNK     1      30.230  -8.741  36.387  1.00  0.00    -0.075 SA
HETATM    2  N2  UNK     1      28.709  -4.956  39.413  1.00  0.00    -0.191 NA
HETATM    3  C1  UNK     1      32.951  -5.022  35.955  1.00  0.00     0.000 C 
HETATM    4  C2  UNK     1      34.057  -6.063  35.753  1.00  0.00     0.000 C 
HETATM    5  C3  UNK     1      32.615  -4.696  37.416  1.00  0.00     0.005 C 
HETATM    6  C4  UNK     1      33.559  -7.451  35.323  1.00  0.00     0.005 C 
HETATM    7  C5  UNK     1      32.310  -5.886  38.324  1.00  0.00     0.041 C 
HETATM    8  C6  UNK     1      32.986  -8.324  36.442  1.00  0.00     0.047 C 
HETATM    9  C7  UNK     1      31.306  -6.830  37.738  1.00  0.00    -0.021 A 
HETATM   10  C8  UNK     1      31.624  -7.888  36.901  1.00  0.00    -0.007 A 
HETATM   11  C9  UNK     1      29.893  -6.742  37.950  1.00  0.00     0.085 A 
HETATM   12  C10 UNK     1      29.195  -7.717  37.277  1.00  0.00     0.098 A 
HETATM   13  C11 UNK     1      29.239  -5.756  38.758  1.00  0.00     0.103 C 
ENDROOT
BRANCH  12  14
HETATM   14  N1  UNK     1      27.855  -7.990  37.204  1.00  0.00    -0.316 N 
HETATM   15  C12 UNK     1      27.180  -9.043  37.833  1.00  0.00     0.262 C 
HETATM   16  O2  UNK     1      27.638  -9.915  38.562  1.00  0.00    -0.267 OA
HETATM   17  H13 UNK     1      27.319  -7.334  36.641  1.00  0.00     0.170 HD
BRANCH  15  18
HETATM   18  C13 UNK     1      25.731  -9.042  37.538  1.00  0.00     0.108 A 
HETATM   19  C14 UNK     1      25.276 -10.064  36.805  1.00  0.00     0.037 A 
HETATM   20  C15 UNK     1      23.865 -10.149  36.462  1.00  0.00    -0.001 A 
HETATM   21  C16 UNK     1      23.002  -9.154  36.909  1.00  0.00     0.089 A 
HETATM   22  C18 UNK     1      23.345 -11.198  35.698  1.00  0.00     0.014 A 
HETATM   23  O1  UNK     1      23.487  -8.080  37.682  1.00  0.00    -0.274 OA
HETATM   24  C19 UNK     1      21.640  -9.176  36.615  1.00  0.00     0.038 A 
HETATM   25  C17 UNK     1      24.832  -7.972  38.026  1.00  0.00     0.304 A 
HETATM   26  O3  UNK     1      25.246  -7.033  38.698  1.00  0.00    -0.259 OA
HETATM   27  C21 UNK     1      21.131 -10.225  35.854  1.00  0.00     0.003 A 
HETATM   28  C20 UNK     1      21.982 -11.234  35.396  1.00  0.00     0.001 A 
ENDBRANCH  15  18
ENDBRANCH  12  14
TORSDOF 2
ENDMDL
