MODEL 1
REMARK VINA RESULT:      -7.9      0.000      0.000
REMARK  2 active torsions:
REMARK  status: ('A' for Active; 'I' for Inactive)
REMARK    1  A    between atoms: C13_16  and  N1_3 
REMARK    2  A    between atoms: C1_4  and  C3_6 
ROOT
HETATM    1  O1  UNK     1      19.318   1.048  15.472  1.00  0.00    -0.274 OA
HETATM    2  O2  UNK     1      19.484  -0.559  13.862  1.00  0.00    -0.259 OA
HETATM    3  C1  UNK     1      19.112  -1.322  16.086  1.00  0.00     0.051 A 
HETATM    4  C2  UNK     1      18.971   0.411  17.788  1.00  0.00    -0.001 A 
HETATM    5  C4  UNK     1      18.950  -0.982  17.373  1.00  0.00     0.032 A 
HETATM    6  C5  UNK     1      19.153   1.396  16.826  1.00  0.00     0.089 A 
HETATM    7  C6  UNK     1      19.316  -0.277  15.044  1.00  0.00     0.299 A 
HETATM    8  C9  UNK     1      18.812   0.794  19.123  1.00  0.00     0.014 A 
HETATM    9  C10 UNK     1      19.182   2.749  17.156  1.00  0.00     0.038 A 
HETATM   10  C14 UNK     1      18.837   2.147  19.470  1.00  0.00     0.001 A 
HETATM   11  C15 UNK     1      19.022   3.123  18.488  1.00  0.00     0.003 A 
ENDROOT
BRANCH   3  12
HETATM   12  C3  UNK     1      19.067  -2.748  15.711  1.00  0.00    -0.020 A 
HETATM   13  C7  UNK     1      20.239  -3.505  15.710  1.00  0.00     0.014 A 
HETATM   14  C11 UNK     1      20.196  -4.853  15.356  1.00  0.00     0.030 A 
HETATM   15  C13 UNK     1      18.983  -5.445  15.004  1.00  0.00     0.025 A 
HETATM   16  C12 UNK     1      17.811  -4.688  15.007  1.00  0.00     0.030 A 
HETATM   17  C8  UNK     1      17.854  -3.339  15.361  1.00  0.00     0.014 A 
BRANCH  15  18
HETATM   18  N1  UNK     1      18.939  -6.809  14.648  1.00  0.00    -0.399 N 
HETATM   19  H10 UNK     1      19.570  -7.467  15.088  1.00  0.00     0.156 HD
HETATM   20  H11 UNK     1      18.271  -7.132  13.962  1.00  0.00     0.156 HD
ENDBRANCH  15  18
ENDBRANCH   3  12
TORSDOF 2
ENDMDL
MODEL 2
REMARK VINA RESULT:      -7.8     13.468     15.907
REMARK  2 active torsions:
REMARK  status: ('A' for Active; 'I' for Inactive)
REMARK    1  A    between atoms: C13_16  and  N1_3 
REMARK    2  A    between atoms: C1_4  and  C3_6 
ROOT
HETATM    1  O1  UNK     1      18.897   0.760  28.531  1.00  0.00    -0.274 OA
HETATM    2  O2  UNK     1      17.991   2.825  28.190  1.00  0.00    -0.259 OA
HETATM    3  C1  UNK     1      18.909   2.413  30.347  1.00  0.00     0.051 A 
HETATM    4  C2  UNK     1      19.839   0.192  30.694  1.00  0.00    -0.001 A 
HETATM    5  C4  UNK     1      19.513   1.530  31.157  1.00  0.00     0.032 A 
HETATM    6  C5  UNK     1      19.525  -0.163  29.388  1.00  0.00     0.089 A 
HETATM    7  C6  UNK     1      18.559   2.044  28.948  1.00  0.00     0.299 A 
HETATM    8  C9  UNK     1      20.462  -0.751  31.517  1.00  0.00     0.014 A 
HETATM    9  C10 UNK     1      19.813  -1.429  28.881  1.00  0.00     0.038 A 
HETATM   10  C14 UNK     1      20.757  -2.025  31.023  1.00  0.00     0.001 A 
HETATM   11  C15 UNK     1      20.433  -2.362  29.707  1.00  0.00     0.003 A 
ENDROOT
BRANCH   3  12
HETATM   12  C3  UNK     1      18.612   3.764  30.858  1.00  0.00    -0.020 A 
HETATM   13  C7  UNK     1      17.854   3.919  32.019  1.00  0.00     0.014 A 
HETATM   14  C11 UNK     1      17.573   5.197  32.502  1.00  0.00     0.030 A 
HETATM   15  C13 UNK     1      18.050   6.320  31.825  1.00  0.00     0.025 A 
HETATM   16  C12 UNK     1      18.809   6.165  30.665  1.00  0.00     0.030 A 
HETATM   17  C8  UNK     1      19.090   4.887  30.182  1.00  0.00     0.014 A 
BRANCH  15  18
HETATM   18  N1  UNK     1      17.768   7.612  32.315  1.00  0.00    -0.399 N 
HETATM   19  H10 UNK     1      18.525   8.247  32.532  1.00  0.00     0.156 HD
HETATM   20  H11 UNK     1      16.809   7.908  32.439  1.00  0.00     0.156 HD
ENDBRANCH  15  18
ENDBRANCH   3  12
TORSDOF 2
ENDMDL
MODEL 3
REMARK VINA RESULT:      -7.6     15.039     17.799
REMARK  2 active torsions:
REMARK  status: ('A' for Active; 'I' for Inactive)
REMARK    1  A    between atoms: C13_16  and  N1_3 
REMARK    2  A    between atoms: C1_4  and  C3_6 
ROOT
HETATM    1  O1  UNK     1      18.698   1.783  30.826  1.00  0.00    -0.274 OA
HETATM    2  O2  UNK     1      17.769   3.080  32.457  1.00  0.00    -0.259 OA
HETATM    3  C1  UNK     1      18.492   0.910  33.113  1.00  0.00     0.051 A 
HETATM    4  C2  UNK     1      19.450  -0.464  31.348  1.00  0.00    -0.001 A 
HETATM    5  C4  UNK     1      19.044  -0.251  32.727  1.00  0.00     0.032 A 
HETATM    6  C5  UNK     1      19.270   0.561  30.427  1.00  0.00     0.089 A 
HETATM    7  C6  UNK     1      18.285   2.014  32.136  1.00  0.00     0.299 A 
HETATM    8  C9  UNK     1      20.021  -1.665  30.916  1.00  0.00     0.014 A 
HETATM    9  C10 UNK     1      19.640   0.422  29.092  1.00  0.00     0.038 A 
HETATM   10  C14 UNK     1      20.398  -1.819  29.579  1.00  0.00     0.001 A 
HETATM   11  C15 UNK     1      20.207  -0.777  28.669  1.00  0.00     0.003 A 
ENDROOT
BRANCH   3  12
HETATM   12  C3  UNK     1      18.111   1.084  34.527  1.00  0.00    -0.020 A 
HETATM   13  C7  UNK     1      18.932   1.816  35.385  1.00  0.00     0.014 A 
HETATM   14  C11 UNK     1      18.571   1.981  36.722  1.00  0.00     0.030 A 
HETATM   15  C13 UNK     1      17.389   1.415  37.201  1.00  0.00     0.025 A 
HETATM   16  C12 UNK     1      16.568   0.685  36.342  1.00  0.00     0.030 A 
HETATM   17  C8  UNK     1      16.928   0.520  35.005  1.00  0.00     0.014 A 
BRANCH  15  18
HETATM   18  N1  UNK     1      17.024   1.584  38.553  1.00  0.00    -0.399 N 
HETATM   19  H10 UNK     1      17.715   1.876  39.232  1.00  0.00     0.156 HD
HETATM   20  H11 UNK     1      16.068   1.424  38.842  1.00  0.00     0.156 HD
ENDBRANCH  15  18
ENDBRANCH   3  12
TORSDOF 2
ENDMDL
MODEL 4
REMARK VINA RESULT:      -7.6     12.725     14.783
REMARK  2 active torsions:
REMARK  status: ('A' for Active; 'I' for Inactive)
REMARK    1  A    between atoms: C13_16  and  N1_3 
REMARK    2  A    between atoms: C1_4  and  C3_6 
ROOT
HETATM    1  O1  UNK     1      10.829   7.815   9.515  1.00  0.00    -0.274 OA
HETATM    2  O2  UNK     1      12.333   8.790  10.926  1.00  0.00    -0.259 OA
HETATM    3  C1  UNK     1      13.129   8.222   8.756  1.00  0.00     0.051 A 
HETATM    4  C2  UNK     1      11.515   7.154   7.283  1.00  0.00    -0.001 A 
HETATM    5  C4  UNK     1      12.841   7.676   7.565  1.00  0.00     0.032 A 
HETATM    6  C5  UNK     1      10.536   7.238   8.266  1.00  0.00     0.089 A 
HETATM    7  C6  UNK     1      12.093   8.311   9.822  1.00  0.00     0.299 A 
HETATM    8  C9  UNK     1      11.188   6.574   6.054  1.00  0.00     0.014 A 
HETATM    9  C10 UNK     1       9.244   6.759   8.059  1.00  0.00     0.038 A 
HETATM   10  C14 UNK     1       9.896   6.089   5.831  1.00  0.00     0.001 A 
HETATM   11  C15 UNK     1       8.926   6.182   6.832  1.00  0.00     0.003 A 
ENDROOT
BRANCH   3  12
HETATM   12  C3  UNK     1      14.486   8.752   8.990  1.00  0.00    -0.020 A 
HETATM   13  C7  UNK     1      14.842  10.002   8.483  1.00  0.00     0.014 A 
HETATM   14  C11 UNK     1      16.125  10.504   8.704  1.00  0.00     0.030 A 
HETATM   15  C13 UNK     1      17.051   9.756   9.431  1.00  0.00     0.025 A 
HETATM   16  C12 UNK     1      16.695   8.507   9.938  1.00  0.00     0.030 A 
HETATM   17  C8  UNK     1      15.412   8.005   9.717  1.00  0.00     0.014 A 
BRANCH  15  18
HETATM   18  N1  UNK     1      18.347  10.264   9.655  1.00  0.00    -0.399 N 
HETATM   19  H10 UNK     1      18.875  10.662   8.890  1.00  0.00     0.156 HD
HETATM   20  H11 UNK     1      18.746  10.242  10.585  1.00  0.00     0.156 HD
ENDBRANCH  15  18
ENDBRANCH   3  12
TORSDOF 2
ENDMDL
MODEL 5
REMARK VINA RESULT:      -7.5     14.007     15.445
REMARK  2 active torsions:
REMARK  status: ('A' for Active; 'I' for Inactive)
REMARK    1  A    between atoms: C13_16  and  N1_3 
REMARK    2  A    between atoms: C1_4  and  C3_6 
ROOT
HETATM    1  O1  UNK     1      17.798   3.325  32.905  1.00  0.00    -0.274 OA
HETATM    2  O2  UNK     1      18.011   1.097  33.348  1.00  0.00    -0.259 OA
HETATM    3  C1  UNK     1      18.963   1.868  31.308  1.00  0.00     0.051 A 
HETATM    4  C2  UNK     1      18.694   4.241  30.844  1.00  0.00    -0.001 A 
HETATM    5  C4  UNK     1      19.174   2.914  30.495  1.00  0.00     0.032 A 
HETATM    6  C5  UNK     1      18.017   4.417  32.045  1.00  0.00     0.089 A 
HETATM    7  C6  UNK     1      18.232   2.039  32.593  1.00  0.00     0.299 A 
HETATM    8  C9  UNK     1      18.893   5.348  30.014  1.00  0.00     0.014 A 
HETATM    9  C10 UNK     1      17.533   5.662  32.440  1.00  0.00     0.038 A 
HETATM   10  C14 UNK     1      18.414   6.604  30.397  1.00  0.00     0.001 A 
HETATM   11  C15 UNK     1      17.735   6.760  31.608  1.00  0.00     0.003 A 
ENDROOT
BRANCH   3  12
HETATM   12  C3  UNK     1      19.483   0.544  30.917  1.00  0.00    -0.020 A 
HETATM   13  C7  UNK     1      20.072   0.368  29.664  1.00  0.00     0.014 A 
HETATM   14  C11 UNK     1      20.564  -0.883  29.295  1.00  0.00     0.030 A 
HETATM   15  C13 UNK     1      20.467  -1.960  30.177  1.00  0.00     0.025 A 
HETATM   16  C12 UNK     1      19.880  -1.784  31.430  1.00  0.00     0.030 A 
HETATM   17  C8  UNK     1      19.388  -0.532  31.800  1.00  0.00     0.014 A 
BRANCH  15  18
HETATM   18  N1  UNK     1      20.967  -3.225  29.804  1.00  0.00    -0.399 N 
HETATM   19  H10 UNK     1      20.538  -4.066  30.167  1.00  0.00     0.156 HD
HETATM   20  H11 UNK     1      21.748  -3.292  29.165  1.00  0.00     0.156 HD
ENDBRANCH  15  18
ENDBRANCH   3  12
TORSDOF 2
ENDMDL
MODEL 6
REMARK VINA RESULT:      -7.5     13.413     16.105
REMARK  2 active torsions:
REMARK  status: ('A' for Active; 'I' for Inactive)
REMARK    1  A    between atoms: C13_16  and  N1_3 
REMARK    2  A    between atoms: C1_4  and  C3_6 
ROOT
HETATM    1  O1  UNK     1      17.826   3.999  33.854  1.00  0.00    -0.274 OA
HETATM    2  O2  UNK     1      17.834   1.781  33.324  1.00  0.00    -0.259 OA
HETATM    3  C1  UNK     1      18.347   3.294  31.560  1.00  0.00     0.051 A 
HETATM    4  C2  UNK     1      18.301   5.655  32.145  1.00  0.00    -0.001 A 
HETATM    5  C4  UNK     1      18.493   4.575  31.191  1.00  0.00     0.032 A 
HETATM    6  C5  UNK     1      17.974   5.342  33.458  1.00  0.00     0.089 A 
HETATM    7  C6  UNK     1      17.989   2.943  32.962  1.00  0.00     0.299 A 
HETATM    8  C9  UNK     1      18.439   6.999  31.787  1.00  0.00     0.014 A 
HETATM    9  C10 UNK     1      17.779   6.328  34.423  1.00  0.00     0.038 A 
HETATM   10  C14 UNK     1      18.247   8.001  32.744  1.00  0.00     0.001 A 
HETATM   11  C15 UNK     1      17.918   7.665  34.059  1.00  0.00     0.003 A 
ENDROOT
BRANCH   3  12
HETATM   12  C3  UNK     1      18.567   2.233  30.559  1.00  0.00    -0.020 A 
HETATM   13  C7  UNK     1      19.424   1.170  30.848  1.00  0.00     0.014 A 
HETATM   14  C11 UNK     1      19.632   0.167  29.902  1.00  0.00     0.030 A 
HETATM   15  C13 UNK     1      18.984   0.225  28.668  1.00  0.00     0.025 A 
HETATM   16  C12 UNK     1      18.126   1.287  28.380  1.00  0.00     0.030 A 
HETATM   17  C8  UNK     1      17.918   2.291  29.326  1.00  0.00     0.014 A 
BRANCH  15  18
HETATM   18  N1  UNK     1      19.193  -0.791  27.712  1.00  0.00    -0.399 N 
HETATM   19  H10 UNK     1      19.939  -1.461  27.841  1.00  0.00     0.156 HD
HETATM   20  H11 UNK     1      18.589  -0.856  26.903  1.00  0.00     0.156 HD
ENDBRANCH  15  18
ENDBRANCH   3  12
TORSDOF 2
ENDMDL
MODEL 7
REMARK VINA RESULT:      -7.4     19.190     20.466
REMARK  2 active torsions:
REMARK  status: ('A' for Active; 'I' for Inactive)
REMARK    1  A    between atoms: C13_16  and  N1_3 
REMARK    2  A    between atoms: C1_4  and  C3_6 
ROOT
HETATM    1  O1  UNK     1      19.594  -1.060  34.854  1.00  0.00    -0.274 OA
HETATM    2  O2  UNK     1      20.676  -3.006  34.362  1.00  0.00    -0.259 OA
HETATM    3  C1  UNK     1      19.573  -2.910  36.469  1.00  0.00     0.051 A 
HETATM    4  C2  UNK     1      18.454  -0.812  36.983  1.00  0.00    -0.001 A 
HETATM    5  C4  UNK     1      18.845  -2.171  37.319  1.00  0.00     0.032 A 
HETATM    6  C5  UNK     1      18.836  -0.287  35.754  1.00  0.00     0.089 A 
HETATM    7  C6  UNK     1      19.997  -2.359  35.153  1.00  0.00     0.299 A 
HETATM    8  C9  UNK     1      17.702  -0.015  37.851  1.00  0.00     0.014 A 
HETATM    9  C10 UNK     1      18.492   1.007  35.369  1.00  0.00     0.038 A 
HETATM   10  C14 UNK     1      17.349   1.285  37.479  1.00  0.00     0.001 A 
HETATM   11  C15 UNK     1      17.743   1.794  36.240  1.00  0.00     0.003 A 
ENDROOT
BRANCH   3  12
HETATM   12  C3  UNK     1      19.932  -4.290  36.849  1.00  0.00    -0.020 A 
HETATM   13  C7  UNK     1      21.081  -4.527  37.604  1.00  0.00     0.014 A 
HETATM   14  C11 UNK     1      21.421  -5.831  37.963  1.00  0.00     0.030 A 
HETATM   15  C13 UNK     1      20.613  -6.898  37.569  1.00  0.00     0.025 A 
HETATM   16  C12 UNK     1      19.463  -6.659  36.815  1.00  0.00     0.030 A 
HETATM   17  C8  UNK     1      19.123  -5.355  36.456  1.00  0.00     0.014 A 
BRANCH  15  18
HETATM   18  N1  UNK     1      20.955  -8.216  37.934  1.00  0.00    -0.399 N 
HETATM   19  H10 UNK     1      20.300  -8.783  38.455  1.00  0.00     0.156 HD
HETATM   20  H11 UNK     1      21.853  -8.598  37.667  1.00  0.00     0.156 HD
ENDBRANCH  15  18
ENDBRANCH   3  12
TORSDOF 2
ENDMDL
MODEL 8
REMARK VINA RESULT:      -7.4     15.934     18.679
REMARK  2 active torsions:
REMARK  status: ('A' for Active; 'I' for Inactive)
REMARK    1  A    between atoms: C13_16  and  N1_3 
REMARK    2  A    between atoms: C1_4  and  C3_6 
ROOT
HETATM    1  O1  UNK     1      18.255   9.332  34.068  1.00  0.00    -0.274 OA
HETATM    2  O2  UNK     1      19.818   7.710  33.708  1.00  0.00    -0.259 OA
HETATM    3  C1  UNK     1      17.728   7.432  32.604  1.00  0.00     0.051 A 
HETATM    4  C2  UNK     1      16.068   9.158  33.030  1.00  0.00    -0.001 A 
HETATM    5  C4  UNK     1      16.497   7.923  32.397  1.00  0.00     0.032 A 
HETATM    6  C5  UNK     1      16.959   9.837  33.852  1.00  0.00     0.089 A 
HETATM    7  C6  UNK     1      18.691   8.144  33.488  1.00  0.00     0.299 A 
HETATM    8  C9  UNK     1      14.789   9.690  32.839  1.00  0.00     0.014 A 
HETATM    9  C10 UNK     1      16.613  11.028  34.487  1.00  0.00     0.038 A 
HETATM   10  C14 UNK     1      14.427  10.884  33.469  1.00  0.00     0.001 A 
HETATM   11  C15 UNK     1      15.337  11.551  34.291  1.00  0.00     0.003 A 
ENDROOT
BRANCH   3  12
HETATM   12  C3  UNK     1      18.122   6.182  31.926  1.00  0.00    -0.020 A 
HETATM   13  C7  UNK     1      17.825   4.950  32.508  1.00  0.00     0.014 A 
HETATM   14  C11 UNK     1      18.197   3.769  31.867  1.00  0.00     0.030 A 
HETATM   15  C13 UNK     1      18.868   3.819  30.645  1.00  0.00     0.025 A 
HETATM   16  C12 UNK     1      19.164   5.051  30.062  1.00  0.00     0.030 A 
HETATM   17  C8  UNK     1      18.791   6.233  30.703  1.00  0.00     0.014 A 
BRANCH  15  18
HETATM   18  N1  UNK     1      19.242   2.624  29.996  1.00  0.00    -0.399 N 
HETATM   19  H10 UNK     1      19.747   1.909  30.503  1.00  0.00     0.156 HD
HETATM   20  H11 UNK     1      18.997   2.477  29.026  1.00  0.00     0.156 HD
ENDBRANCH  15  18
ENDBRANCH   3  12
TORSDOF 2
ENDMDL
MODEL 9
REMARK VINA RESULT:      -7.4      3.032      6.143
REMARK  2 active torsions:
REMARK  status: ('A' for Active; 'I' for Inactive)
REMARK    1  A    between atoms: C13_16  and  N1_3 
REMARK    2  A    between atoms: C1_4  and  C3_6 
ROOT
HETATM    1  O1  UNK     1      19.491  -0.112  14.259  1.00  0.00    -0.274 OA
HETATM    2  O2  UNK     1      19.798   1.782  15.492  1.00  0.00    -0.259 OA
HETATM    3  C1  UNK     1      19.137  -0.165  16.689  1.00  0.00     0.051 A 
HETATM    4  C2  UNK     1      18.785  -2.164  15.347  1.00  0.00    -0.001 A 
HETATM    5  C4  UNK     1      18.803  -1.463  16.620  1.00  0.00     0.032 A 
HETATM    6  C5  UNK     1      19.133  -1.472  14.193  1.00  0.00     0.089 A 
HETATM    7  C6  UNK     1      19.504   0.591  15.461  1.00  0.00     0.299 A 
HETATM    8  C9  UNK     1      18.434  -3.513  15.243  1.00  0.00     0.014 A 
HETATM    9  C10 UNK     1      19.139  -2.085  12.942  1.00  0.00     0.038 A 
HETATM   10  C14 UNK     1      18.436  -4.142  13.995  1.00  0.00     0.001 A 
HETATM   11  C15 UNK     1      18.788  -3.429  12.847  1.00  0.00     0.003 A 
ENDROOT
BRANCH   3  12
HETATM   12  C3  UNK     1      19.155   0.498  18.007  1.00  0.00    -0.020 A 
HETATM   13  C7  UNK     1      19.364  -0.254  19.163  1.00  0.00     0.014 A 
HETATM   14  C11 UNK     1      19.381   0.374  20.408  1.00  0.00     0.030 A 
HETATM   15  C13 UNK     1      19.189   1.753  20.498  1.00  0.00     0.025 A 
HETATM   16  C12 UNK     1      18.981   2.504  19.342  1.00  0.00     0.030 A 
HETATM   17  C8  UNK     1      18.964   1.877  18.096  1.00  0.00     0.014 A 
BRANCH  15  18
HETATM   18  N1  UNK     1      19.209   2.387  21.757  1.00  0.00    -0.399 N 
HETATM   19  H10 UNK     1      19.954   2.190  22.412  1.00  0.00     0.156 HD
HETATM   20  H11 UNK     1      18.483   3.047  22.003  1.00  0.00     0.156 HD
ENDBRANCH  15  18
ENDBRANCH   3  12
TORSDOF 2
ENDMDL
MODEL 10
REMARK VINA RESULT:      -7.3     13.743     16.615
REMARK  2 active torsions:
REMARK  status: ('A' for Active; 'I' for Inactive)
REMARK    1  A    between atoms: C13_16  and  N1_3 
REMARK    2  A    between atoms: C1_4  and  C3_6 
ROOT
HETATM    1  O1  UNK     1      19.742   6.921  32.209  1.00  0.00    -0.274 OA
HETATM    2  O2  UNK     1      20.799   5.521  30.752  1.00  0.00    -0.259 OA
HETATM    3  C1  UNK     1      18.656   4.830  31.520  1.00  0.00     0.051 A 
HETATM    4  C2  UNK     1      17.564   6.326  33.098  1.00  0.00    -0.001 A 
HETATM    5  C4  UNK     1      17.602   5.110  32.301  1.00  0.00     0.032 A 
HETATM    6  C5  UNK     1      18.637   7.207  33.031  1.00  0.00     0.089 A 
HETATM    7  C6  UNK     1      19.816   5.760  31.445  1.00  0.00     0.299 A 
HETATM    8  C9  UNK     1      16.483   6.641  33.926  1.00  0.00     0.014 A 
HETATM    9  C10 UNK     1      18.662   8.389  33.767  1.00  0.00     0.038 A 
HETATM   10  C14 UNK     1      16.494   7.824  34.670  1.00  0.00     0.001 A 
HETATM   11  C15 UNK     1      17.582   8.697  34.590  1.00  0.00     0.003 A 
ENDROOT
BRANCH   3  12
HETATM   12  C3  UNK     1      18.641   3.591  30.718  1.00  0.00    -0.020 A 
HETATM   13  C7  UNK     1      18.206   3.625  29.393  1.00  0.00     0.014 A 
HETATM   14  C11 UNK     1      18.192   2.454  28.635  1.00  0.00     0.030 A 
HETATM   15  C13 UNK     1      18.612   1.250  29.201  1.00  0.00     0.025 A 
HETATM   16  C12 UNK     1      19.047   1.218  30.526  1.00  0.00     0.030 A 
HETATM   17  C8  UNK     1      19.062   2.388  31.284  1.00  0.00     0.014 A 
BRANCH  15  18
HETATM   18  N1  UNK     1      18.599   0.067  28.433  1.00  0.00    -0.399 N 
HETATM   19  H10 UNK     1      18.043  -0.723  28.730  1.00  0.00     0.156 HD
HETATM   20  H11 UNK     1      19.139   0.012  27.580  1.00  0.00     0.156 HD
ENDBRANCH  15  18
ENDBRANCH   3  12
TORSDOF 2
ENDMDL
