MODEL 1
REMARK VINA RESULT:      -7.7      0.000      0.000
REMARK  5 active torsions:
REMARK  status: ('A' for Active; 'I' for Inactive)
REMARK    1  A    between atoms: C7_12  and  O1_2 
REMARK    2  A    between atoms: C9_14  and  O1_2 
REMARK    3  A    between atoms: C1_6  and  C2_7 
REMARK    4  A    between atoms: C1_6  and  C3_8 
REMARK    5  A    between atoms: C2_7  and  C9_14 
ROOT
HETATM    1 Cl1  UNK     1      20.989   6.288  32.586  1.00  0.00    -0.081 Cl
HETATM    2  O2  UNK     1      17.161   8.960  34.569  1.00  0.00    -0.275 OA
HETATM    3  O4  UNK     1      15.508  10.216  35.531  1.00  0.00    -0.260 OA
HETATM    4  C4  UNK     1      16.574   7.336  32.841  1.00  0.00     0.007 A 
HETATM    5  C5  UNK     1      17.529   7.966  33.642  1.00  0.00     0.092 A 
HETATM    6  C6  UNK     1      15.167   7.732  32.984  1.00  0.00    -0.043 A 
HETATM    7  C7  UNK     1      18.381   6.032  31.860  1.00  0.00     0.101 A 
HETATM    8  C8  UNK     1      17.022   6.358  31.943  1.00  0.00     0.054 A 
HETATM    9  C11 UNK     1      18.887   7.651  33.570  1.00  0.00     0.065 A 
HETATM   10  C12 UNK     1      19.312   6.677  32.672  1.00  0.00     0.070 A 
HETATM   11  C13 UNK     1      14.845   8.680  33.874  1.00  0.00     0.090 A 
HETATM   12  C14 UNK     1      14.115   7.073  32.138  1.00  0.00     0.049 C 
HETATM   13  C15 UNK     1      15.841   9.353  34.725  1.00  0.00     0.288 A 
ENDROOT
BRANCH   7  14
HETATM   14  O1  UNK     1      18.767   5.072  30.970  1.00  0.00    -0.277 OA
BRANCH  14  15
HETATM   15  C9  UNK     1      18.387   3.767  31.330  1.00  0.00     0.264 C 
HETATM   16  O3  UNK     1      18.090   3.402  32.460  1.00  0.00    -0.265 OA
BRANCH  15  17
HETATM   17  C2  UNK     1      18.405   2.886  30.101  1.00  0.00     0.111 C 
BRANCH  17  18
HETATM   18  C1  UNK     1      19.004   1.511  30.393  1.00  0.00     0.009 C 
BRANCH  18  19
HETATM   19  C3  UNK     1      19.236   0.720  29.107  1.00  0.00    -0.004 C 
HETATM   20  C10 UNK     1      20.414  -0.232  29.242  1.00  0.00     0.005 C 
ENDBRANCH  18  19
ENDBRANCH  17  18
ENDBRANCH  15  17
ENDBRANCH  14  15
ENDBRANCH   7  14
TORSDOF 5
ENDMDL
MODEL 2
REMARK VINA RESULT:      -7.6      5.495      6.992
REMARK  5 active torsions:
REMARK  status: ('A' for Active; 'I' for Inactive)
REMARK    1  A    between atoms: C7_12  and  O1_2 
REMARK    2  A    between atoms: C9_14  and  O1_2 
REMARK    3  A    between atoms: C1_6  and  C2_7 
REMARK    4  A    between atoms: C1_6  and  C3_8 
REMARK    5  A    between atoms: C2_7  and  C9_14 
ROOT
HETATM    1 Cl1  UNK     1      18.363   2.573  31.932  1.00  0.00    -0.081 Cl
HETATM    2  O2  UNK     1      17.925   1.813  36.928  1.00  0.00    -0.275 OA
HETATM    3  O4  UNK     1      17.719   1.581  39.194  1.00  0.00    -0.260 OA
HETATM    4  C4  UNK     1      18.232  -0.179  35.547  1.00  0.00     0.007 A 
HETATM    5  C5  UNK     1      18.103   1.207  35.669  1.00  0.00     0.092 A 
HETATM    6  C6  UNK     1      18.178  -0.999  36.764  1.00  0.00    -0.043 A 
HETATM    7  C7  UNK     1      18.445   0.139  33.143  1.00  0.00     0.101 A 
HETATM    8  C8  UNK     1      18.404  -0.703  34.259  1.00  0.00     0.054 A 
HETATM    9  C11 UNK     1      18.142   2.059  34.565  1.00  0.00     0.065 A 
HETATM   10  C12 UNK     1      18.314   1.519  33.295  1.00  0.00     0.070 A 
HETATM   11  C13 UNK     1      18.009  -0.396  37.948  1.00  0.00     0.090 A 
HETATM   12  C14 UNK     1      18.315  -2.491  36.666  1.00  0.00     0.049 C 
HETATM   13  C15 UNK     1      17.872   1.063  38.093  1.00  0.00     0.288 A 
ENDROOT
BRANCH   7  14
HETATM   14  O1  UNK     1      18.615  -0.421  31.910  1.00  0.00    -0.277 OA
BRANCH  14  15
HETATM   15  C9  UNK     1      19.947  -0.766  31.614  1.00  0.00     0.264 C 
HETATM   16  O3  UNK     1      20.595  -1.637  32.180  1.00  0.00    -0.265 OA
BRANCH  15  17
HETATM   17  C2  UNK     1      20.451   0.110  30.489  1.00  0.00     0.111 C 
BRANCH  17  18
HETATM   18  C1  UNK     1      20.526  -0.648  29.165  1.00  0.00     0.009 C 
BRANCH  18  19
HETATM   19  C3  UNK     1      19.311  -0.355  28.286  1.00  0.00    -0.004 C 
HETATM   20  C10 UNK     1      18.653   0.961  28.666  1.00  0.00     0.005 C 
ENDBRANCH  18  19
ENDBRANCH  17  18
ENDBRANCH  15  17
ENDBRANCH  14  15
ENDBRANCH   7  14
TORSDOF 5
ENDMDL
MODEL 3
REMARK VINA RESULT:      -7.3      6.086      8.124
REMARK  5 active torsions:
REMARK  status: ('A' for Active; 'I' for Inactive)
REMARK    1  A    between atoms: C7_12  and  O1_2 
REMARK    2  A    between atoms: C9_14  and  O1_2 
REMARK    3  A    between atoms: C1_6  and  C2_7 
REMARK    4  A    between atoms: C1_6  and  C3_8 
REMARK    5  A    between atoms: C2_7  and  C9_14 
ROOT
HETATM    1 Cl1  UNK     1      21.330  -3.247  31.918  1.00  0.00    -0.081 Cl
HETATM    2  O2  UNK     1      19.414  -2.022  36.452  1.00  0.00    -0.275 OA
HETATM    3  O4  UNK     1      18.621  -1.543  38.543  1.00  0.00    -0.260 OA
HETATM    4  C4  UNK     1      18.442  -0.890  34.517  1.00  0.00     0.007 A 
HETATM    5  C5  UNK     1      19.353  -1.797  35.062  1.00  0.00     0.092 A 
HETATM    6  C6  UNK     1      17.542  -0.166  35.425  1.00  0.00    -0.043 A 
HETATM    7  C7  UNK     1      19.332  -1.447  32.321  1.00  0.00     0.101 A 
HETATM    8  C8  UNK     1      18.445  -0.723  33.126  1.00  0.00     0.054 A 
HETATM    9  C11 UNK     1      20.243  -2.525  34.272  1.00  0.00     0.065 A 
HETATM   10  C12 UNK     1      20.230  -2.346  32.893  1.00  0.00     0.070 A 
HETATM   11  C13 UNK     1      17.622  -0.400  36.742  1.00  0.00     0.090 A 
HETATM   12  C14 UNK     1      16.551   0.816  34.871  1.00  0.00     0.049 C 
HETATM   13  C15 UNK     1      18.577  -1.354  37.332  1.00  0.00     0.288 A 
ENDROOT
BRANCH   7  14
HETATM   14  O1  UNK     1      19.295  -1.249  30.971  1.00  0.00    -0.277 OA
BRANCH  14  15
HETATM   15  C9  UNK     1      20.198  -0.274  30.508  1.00  0.00     0.264 C 
HETATM   16  O3  UNK     1      21.211   0.087  31.092  1.00  0.00    -0.265 OA
BRANCH  15  17
HETATM   17  C2  UNK     1      19.715   0.259  29.177  1.00  0.00     0.111 C 
BRANCH  17  18
HETATM   18  C1  UNK     1      18.442   1.091  29.324  1.00  0.00     0.009 C 
BRANCH  18  19
HETATM   19  C3  UNK     1      18.755   2.510  29.797  1.00  0.00    -0.004 C 
HETATM   20  C10 UNK     1      18.349   2.716  31.247  1.00  0.00     0.005 C 
ENDBRANCH  18  19
ENDBRANCH  17  18
ENDBRANCH  15  17
ENDBRANCH  14  15
ENDBRANCH   7  14
TORSDOF 5
ENDMDL
MODEL 4
REMARK VINA RESULT:      -7.3     22.734     23.803
REMARK  5 active torsions:
REMARK  status: ('A' for Active; 'I' for Inactive)
REMARK    1  A    between atoms: C7_12  and  O1_2 
REMARK    2  A    between atoms: C9_14  and  O1_2 
REMARK    3  A    between atoms: C1_6  and  C2_7 
REMARK    4  A    between atoms: C1_6  and  C3_8 
REMARK    5  A    between atoms: C2_7  and  C9_14 
ROOT
HETATM    1 Cl1  UNK     1      15.283   4.286   9.974  1.00  0.00    -0.081 Cl
HETATM    2  O2  UNK     1      17.592   8.800   9.817  1.00  0.00    -0.275 OA
HETATM    3  O4  UNK     1      18.732  10.782   9.739  1.00  0.00    -0.260 OA
HETATM    4  C4  UNK     1      15.160   8.829  10.046  1.00  0.00     0.007 A 
HETATM    5  C5  UNK     1      16.360   8.125   9.924  1.00  0.00     0.092 A 
HETATM    6  C6  UNK     1      15.205  10.297  10.061  1.00  0.00    -0.043 A 
HETATM    7  C7  UNK     1      14.010   6.685  10.124  1.00  0.00     0.101 A 
HETATM    8  C8  UNK     1      13.978   8.084  10.146  1.00  0.00     0.054 A 
HETATM    9  C11 UNK     1      16.407   6.731   9.901  1.00  0.00     0.065 A 
HETATM   10  C12 UNK     1      15.223   6.009  10.002  1.00  0.00     0.070 A 
HETATM   11  C13 UNK     1      16.391  10.912   9.959  1.00  0.00     0.090 A 
HETATM   12  C14 UNK     1      13.932  11.083  10.193  1.00  0.00     0.049 C 
HETATM   13  C15 UNK     1      17.664  10.184   9.830  1.00  0.00     0.288 A 
ENDROOT
BRANCH   7  14
HETATM   14  O1  UNK     1      12.831   6.005  10.225  1.00  0.00    -0.277 OA
BRANCH  14  15
HETATM   15  C9  UNK     1      11.875   6.366   9.259  1.00  0.00     0.264 C 
HETATM   16  O3  UNK     1      10.893   7.068   9.462  1.00  0.00    -0.265 OA
BRANCH  15  17
HETATM   17  C2  UNK     1      12.250   5.747   7.931  1.00  0.00     0.111 C 
BRANCH  17  18
HETATM   18  C1  UNK     1      11.954   6.684   6.760  1.00  0.00     0.009 C 
BRANCH  18  19
HETATM   19  C3  UNK     1      10.944   6.067   5.794  1.00  0.00    -0.004 C 
HETATM   20  C10 UNK     1       9.520   6.222   6.303  1.00  0.00     0.005 C 
ENDBRANCH  18  19
ENDBRANCH  17  18
ENDBRANCH  15  17
ENDBRANCH  14  15
ENDBRANCH   7  14
TORSDOF 5
ENDMDL
MODEL 5
REMARK VINA RESULT:      -7.2     15.043     17.947
REMARK  5 active torsions:
REMARK  status: ('A' for Active; 'I' for Inactive)
REMARK    1  A    between atoms: C7_12  and  O1_2 
REMARK    2  A    between atoms: C9_14  and  O1_2 
REMARK    3  A    between atoms: C1_6  and  C2_7 
REMARK    4  A    between atoms: C1_6  and  C3_8 
REMARK    5  A    between atoms: C2_7  and  C9_14 
ROOT
HETATM    1 Cl1  UNK     1      19.519  -8.364  35.812  1.00  0.00    -0.081 Cl
HETATM    2  O2  UNK     1      23.053 -11.977  35.375  1.00  0.00    -0.275 OA
HETATM    3  O4  UNK     1      24.569 -13.671  35.128  1.00  0.00    -0.260 OA
HETATM    4  C4  UNK     1      23.738  -9.913  36.487  1.00  0.00     0.007 A 
HETATM    5  C5  UNK     1      22.765 -10.680  35.844  1.00  0.00     0.092 A 
HETATM    6  C6  UNK     1      25.079 -10.485  36.667  1.00  0.00    -0.043 A 
HETATM    7  C7  UNK     1      22.074  -8.151  36.718  1.00  0.00     0.101 A 
HETATM    8  C8  UNK     1      23.372  -8.633  36.924  1.00  0.00     0.054 A 
HETATM    9  C11 UNK     1      21.467 -10.213  35.633  1.00  0.00     0.065 A 
HETATM   10  C12 UNK     1      21.123  -8.939  36.073  1.00  0.00     0.070 A 
HETATM   11  C13 UNK     1      25.324 -11.721  36.211  1.00  0.00     0.090 A 
HETATM   12  C14 UNK     1      26.147  -9.686  37.355  1.00  0.00     0.049 C 
HETATM   13  C15 UNK     1      24.308 -12.542  35.531  1.00  0.00     0.288 A 
ENDROOT
BRANCH   7  14
HETATM   14  O1  UNK     1      21.767  -6.897  37.162  1.00  0.00    -0.277 OA
BRANCH  14  15
HETATM   15  C9  UNK     1      22.323  -6.578  38.414  1.00  0.00     0.264 C 
HETATM   16  O3  UNK     1      23.262  -5.815  38.599  1.00  0.00    -0.265 OA
BRANCH  15  17
HETATM   17  C2  UNK     1      21.580  -7.331  39.495  1.00  0.00     0.111 C 
BRANCH  17  18
HETATM   18  C1  UNK     1      20.077  -7.060  39.449  1.00  0.00     0.009 C 
BRANCH  18  19
HETATM   19  C3  UNK     1      19.286  -8.346  39.216  1.00  0.00    -0.004 C 
HETATM   20  C10 UNK     1      20.128  -9.578  39.506  1.00  0.00     0.005 C 
ENDBRANCH  18  19
ENDBRANCH  17  18
ENDBRANCH  15  17
ENDBRANCH  14  15
ENDBRANCH   7  14
TORSDOF 5
ENDMDL
MODEL 6
REMARK VINA RESULT:      -7.1      2.744      7.040
REMARK  5 active torsions:
REMARK  status: ('A' for Active; 'I' for Inactive)
REMARK    1  A    between atoms: C7_12  and  O1_2 
REMARK    2  A    between atoms: C9_14  and  O1_2 
REMARK    3  A    between atoms: C1_6  and  C2_7 
REMARK    4  A    between atoms: C1_6  and  C3_8 
REMARK    5  A    between atoms: C2_7  and  C9_14 
ROOT
HETATM    1 Cl1  UNK     1      18.801   5.601  29.979  1.00  0.00    -0.081 Cl
HETATM    2  O2  UNK     1      18.524   0.851  31.740  1.00  0.00    -0.275 OA
HETATM    3  O4  UNK     1      18.410  -1.327  32.428  1.00  0.00    -0.260 OA
HETATM    4  C4  UNK     1      18.335   2.639  33.395  1.00  0.00     0.007 A 
HETATM    5  C5  UNK     1      18.498   2.220  32.072  1.00  0.00     0.092 A 
HETATM    6  C6  UNK     1      18.191   1.619  34.442  1.00  0.00    -0.043 A 
HETATM    7  C7  UNK     1      18.464   4.934  32.594  1.00  0.00     0.101 A 
HETATM    8  C8  UNK     1      18.320   4.017  33.642  1.00  0.00     0.054 A 
HETATM    9  C11 UNK     1      18.641   3.122  31.017  1.00  0.00     0.065 A 
HETATM   10  C12 UNK     1      18.624   4.487  31.283  1.00  0.00     0.070 A 
HETATM   11  C13 UNK     1      18.220   0.324  34.096  1.00  0.00     0.090 A 
HETATM   12  C14 UNK     1      18.014   2.036  35.873  1.00  0.00     0.049 C 
HETATM   13  C15 UNK     1      18.390  -0.132  32.707  1.00  0.00     0.288 A 
ENDROOT
BRANCH   7  14
HETATM   14  O1  UNK     1      18.443   6.267  32.887  1.00  0.00    -0.277 OA
BRANCH  14  15
HETATM   15  C9  UNK     1      17.179   6.751  33.270  1.00  0.00     0.264 C 
HETATM   16  O3  UNK     1      16.147   6.627  32.623  1.00  0.00    -0.265 OA
BRANCH  15  17
HETATM   17  C2  UNK     1      17.298   7.452  34.605  1.00  0.00     0.111 C 
BRANCH  17  18
HETATM   18  C1  UNK     1      18.739   7.857  34.911  1.00  0.00     0.009 C 
BRANCH  18  19
HETATM   19  C3  UNK     1      19.084   9.205  34.280  1.00  0.00    -0.004 C 
HETATM   20  C10 UNK     1      20.539   9.575  34.516  1.00  0.00     0.005 C 
ENDBRANCH  18  19
ENDBRANCH  17  18
ENDBRANCH  15  17
ENDBRANCH  14  15
ENDBRANCH   7  14
TORSDOF 5
ENDMDL
MODEL 7
REMARK VINA RESULT:      -7.1     22.943     24.759
REMARK  5 active torsions:
REMARK  status: ('A' for Active; 'I' for Inactive)
REMARK    1  A    between atoms: C7_12  and  O1_2 
REMARK    2  A    between atoms: C9_14  and  O1_2 
REMARK    3  A    between atoms: C1_6  and  C2_7 
REMARK    4  A    between atoms: C1_6  and  C3_8 
REMARK    5  A    between atoms: C2_7  and  C9_14 
ROOT
HETATM    1 Cl1  UNK     1      11.498   4.596   9.032  1.00  0.00    -0.081 Cl
HETATM    2  O2  UNK     1      15.999   6.617  10.212  1.00  0.00    -0.275 OA
HETATM    3  O4  UNK     1      18.055   7.431  10.794  1.00  0.00    -0.260 OA
HETATM    4  C4  UNK     1      14.443   8.057   8.998  1.00  0.00     0.007 A 
HETATM    5  C5  UNK     1      14.752   6.832   9.593  1.00  0.00     0.092 A 
HETATM    6  C6  UNK     1      15.450   9.127   9.029  1.00  0.00    -0.043 A 
HETATM    7  C7  UNK     1      12.271   7.128   8.410  1.00  0.00     0.101 A 
HETATM    8  C8  UNK     1      13.182   8.191   8.403  1.00  0.00     0.054 A 
HETATM    9  C11 UNK     1      13.854   5.764   9.608  1.00  0.00     0.065 A 
HETATM   10  C12 UNK     1      12.606   5.916   9.011  1.00  0.00     0.070 A 
HETATM   11  C13 UNK     1      16.627   8.894   9.625  1.00  0.00     0.090 A 
HETATM   12  C14 UNK     1      15.149  10.456   8.399  1.00  0.00     0.049 C 
HETATM   13  C15 UNK     1      16.967   7.608  10.256  1.00  0.00     0.288 A 
ENDROOT
BRANCH   7  14
HETATM   14  O1  UNK     1      11.055   7.308   7.817  1.00  0.00    -0.277 OA
BRANCH  14  15
HETATM   15  C9  UNK     1      10.926   6.675   6.568  1.00  0.00     0.264 C 
HETATM   16  O3  UNK     1      11.823   6.539   5.746  1.00  0.00    -0.265 OA
BRANCH  15  17
HETATM   17  C2  UNK     1       9.503   6.191   6.399  1.00  0.00     0.111 C 
BRANCH  17  18
HETATM   18  C1  UNK     1       8.597   6.680   7.528  1.00  0.00     0.009 C 
BRANCH  18  19
HETATM   19  C3  UNK     1       7.965   5.510   8.282  1.00  0.00    -0.004 C 
HETATM   20  C10 UNK     1       7.774   5.833   9.755  1.00  0.00     0.005 C 
ENDBRANCH  18  19
ENDBRANCH  17  18
ENDBRANCH  15  17
ENDBRANCH  14  15
ENDBRANCH   7  14
TORSDOF 5
ENDMDL
MODEL 8
REMARK VINA RESULT:      -7.1      3.500      5.433
REMARK  5 active torsions:
REMARK  status: ('A' for Active; 'I' for Inactive)
REMARK    1  A    between atoms: C7_12  and  O1_2 
REMARK    2  A    between atoms: C9_14  and  O1_2 
REMARK    3  A    between atoms: C1_6  and  C2_7 
REMARK    4  A    between atoms: C1_6  and  C3_8 
REMARK    5  A    between atoms: C2_7  and  C9_14 
ROOT
HETATM    1 Cl1  UNK     1      18.306   0.173  36.711  1.00  0.00    -0.081 Cl
HETATM    2  O2  UNK     1      18.370   4.533  34.117  1.00  0.00    -0.275 OA
HETATM    3  O4  UNK     1      18.401   6.553  33.046  1.00  0.00    -0.260 OA
HETATM    4  C4  UNK     1      18.278   2.480  32.795  1.00  0.00     0.007 A 
HETATM    5  C5  UNK     1      18.327   3.127  34.032  1.00  0.00     0.092 A 
HETATM    6  C6  UNK     1      18.272   3.298  31.575  1.00  0.00    -0.043 A 
HETATM    7  C7  UNK     1      18.246   0.365  33.998  1.00  0.00     0.101 A 
HETATM    8  C8  UNK     1      18.237   1.080  32.796  1.00  0.00     0.054 A 
HETATM    9  C11 UNK     1      18.336   2.427  35.239  1.00  0.00     0.065 A 
HETATM   10  C12 UNK     1      18.296   1.037  35.219  1.00  0.00     0.070 A 
HETATM   11  C13 UNK     1      18.314   4.632  31.686  1.00  0.00     0.090 A 
HETATM   12  C14 UNK     1      18.219   2.633  30.229  1.00  0.00     0.049 C 
HETATM   13  C15 UNK     1      18.366   5.328  32.983  1.00  0.00     0.288 A 
ENDROOT
BRANCH   7  14
HETATM   14  O1  UNK     1      18.206  -0.999  33.946  1.00  0.00    -0.277 OA
BRANCH  14  15
HETATM   15  C9  UNK     1      19.406  -1.593  33.516  1.00  0.00     0.264 C 
HETATM   16  O3  UNK     1      20.349  -1.888  34.239  1.00  0.00    -0.265 OA
BRANCH  15  17
HETATM   17  C2  UNK     1      19.348  -1.807  32.020  1.00  0.00     0.111 C 
BRANCH  17  18
HETATM   18  C1  UNK     1      20.703  -1.563  31.356  1.00  0.00     0.009 C 
BRANCH  18  19
HETATM   19  C3  UNK     1      20.665  -0.334  30.449  1.00  0.00    -0.004 C 
HETATM   20  C10 UNK     1      20.767  -0.721  28.982  1.00  0.00     0.005 C 
ENDBRANCH  18  19
ENDBRANCH  17  18
ENDBRANCH  15  17
ENDBRANCH  14  15
ENDBRANCH   7  14
TORSDOF 5
ENDMDL
MODEL 9
REMARK VINA RESULT:      -7.1      5.882      8.913
REMARK  5 active torsions:
REMARK  status: ('A' for Active; 'I' for Inactive)
REMARK    1  A    between atoms: C7_12  and  O1_2 
REMARK    2  A    between atoms: C9_14  and  O1_2 
REMARK    3  A    between atoms: C1_6  and  C2_7 
REMARK    4  A    between atoms: C1_6  and  C3_8 
REMARK    5  A    between atoms: C2_7  and  C9_14 
ROOT
HETATM    1 Cl1  UNK     1      20.523  -1.984  30.762  1.00  0.00    -0.081 Cl
HETATM    2  O2  UNK     1      20.805  -3.378  35.632  1.00  0.00    -0.275 OA
HETATM    3  O4  UNK     1      21.015  -4.077  37.799  1.00  0.00    -0.260 OA
HETATM    4  C4  UNK     1      19.101  -1.720  35.071  1.00  0.00     0.007 A 
HETATM    5  C5  UNK     1      20.144  -2.565  34.689  1.00  0.00     0.092 A 
HETATM    6  C6  UNK     1      18.700  -1.692  36.484  1.00  0.00    -0.043 A 
HETATM    7  C7  UNK     1      18.930  -1.021  32.745  1.00  0.00     0.101 A 
HETATM    8  C8  UNK     1      18.496  -0.944  34.073  1.00  0.00     0.054 A 
HETATM    9  C11 UNK     1      20.588  -2.653  33.369  1.00  0.00     0.065 A 
HETATM   10  C12 UNK     1      19.975  -1.874  32.393  1.00  0.00     0.070 A 
HETATM   11  C13 UNK     1      19.345  -2.476  37.358  1.00  0.00     0.090 A 
HETATM   12  C14 UNK     1      17.580  -0.794  36.926  1.00  0.00     0.049 C 
HETATM   13  C15 UNK     1      20.447  -3.372  36.971  1.00  0.00     0.288 A 
ENDROOT
BRANCH   7  14
HETATM   14  O1  UNK     1      18.309  -0.244  31.810  1.00  0.00    -0.277 OA
BRANCH  14  15
HETATM   15  C9  UNK     1      18.622   1.124  31.900  1.00  0.00     0.264 C 
HETATM   16  O3  UNK     1      18.285   1.870  32.809  1.00  0.00    -0.265 OA
BRANCH  15  17
HETATM   17  C2  UNK     1      19.440   1.528  30.692  1.00  0.00     0.111 C 
BRANCH  17  18
HETATM   18  C1  UNK     1      18.621   2.352  29.699  1.00  0.00     0.009 C 
BRANCH  18  19
HETATM   19  C3  UNK     1      17.995   1.465  28.624  1.00  0.00    -0.004 C 
HETATM   20  C10 UNK     1      18.866   0.257  28.320  1.00  0.00     0.005 C 
ENDBRANCH  18  19
ENDBRANCH  17  18
ENDBRANCH  15  17
ENDBRANCH  14  15
ENDBRANCH   7  14
TORSDOF 5
ENDMDL
MODEL 10
REMARK VINA RESULT:      -7.0      2.824      7.925
REMARK  5 active torsions:
REMARK  status: ('A' for Active; 'I' for Inactive)
REMARK    1  A    between atoms: C7_12  and  O1_2 
REMARK    2  A    between atoms: C9_14  and  O1_2 
REMARK    3  A    between atoms: C1_6  and  C2_7 
REMARK    4  A    between atoms: C1_6  and  C3_8 
REMARK    5  A    between atoms: C2_7  and  C9_14 
ROOT
HETATM    1 Cl1  UNK     1      18.640   4.418  29.339  1.00  0.00    -0.081 Cl
HETATM    2  O2  UNK     1      19.957  -0.426  30.070  1.00  0.00    -0.275 OA
HETATM    3  O4  UNK     1      20.591  -2.613  30.295  1.00  0.00    -0.260 OA
HETATM    4  C4  UNK     1      18.851   0.695  31.938  1.00  0.00     0.007 A 
HETATM    5  C5  UNK     1      19.356   0.715  30.636  1.00  0.00     0.092 A 
HETATM    6  C6  UNK     1      18.958  -0.548  32.713  1.00  0.00    -0.043 A 
HETATM    7  C7  UNK     1      18.202   3.021  31.632  1.00  0.00     0.101 A 
HETATM    8  C8  UNK     1      18.269   1.871  32.427  1.00  0.00     0.054 A 
HETATM    9  C11 UNK     1      19.296   1.853  29.831  1.00  0.00     0.065 A 
HETATM   10  C12 UNK     1      18.714   3.012  30.335  1.00  0.00     0.070 A 
HETATM   11  C13 UNK     1      19.534  -1.619  32.149  1.00  0.00     0.090 A 
HETATM   12  C14 UNK     1      18.423  -0.604  34.115  1.00  0.00     0.049 C 
HETATM   13  C15 UNK     1      20.071  -1.612  30.779  1.00  0.00     0.288 A 
ENDROOT
BRANCH   7  14
HETATM   14  O1  UNK     1      17.626   4.142  32.154  1.00  0.00    -0.277 OA
BRANCH  14  15
HETATM   15  C9  UNK     1      18.424   4.812  33.099  1.00  0.00     0.264 C 
HETATM   16  O3  UNK     1      18.631   4.436  34.245  1.00  0.00    -0.265 OA
BRANCH  15  17
HETATM   17  C2  UNK     1      18.985   6.070  32.474  1.00  0.00     0.111 C 
BRANCH  17  18
HETATM   18  C1  UNK     1      20.036   6.730  33.366  1.00  0.00     0.009 C 
BRANCH  18  19
HETATM   19  C3  UNK     1      19.473   7.964  34.069  1.00  0.00    -0.004 C 
HETATM   20  C10 UNK     1      18.198   8.453  33.401  1.00  0.00     0.005 C 
ENDBRANCH  18  19
ENDBRANCH  17  18
ENDBRANCH  15  17
ENDBRANCH  14  15
ENDBRANCH   7  14
TORSDOF 5
ENDMDL
