MODEL 1
REMARK VINA RESULT:      -9.2      0.000      0.000
REMARK  4 active torsions:
REMARK  status: ('A' for Active; 'I' for Inactive)
REMARK    1  A    between atoms: C10_14  and  O2_2 
REMARK    2  A    between atoms: C7_11  and  N1_4 
REMARK    3  A    between atoms: C7_11  and  C8_12 
REMARK    4  A    between atoms: C16_20  and  C17_21 
ROOT
HETATM    1  O1  UNK     1      18.093   1.913  32.558  1.00  0.00    -0.309 OA
HETATM    2  O3  UNK     1      18.674   5.530  34.344  1.00  0.00    -0.287 OA
HETATM    3  C8  UNK     1      18.800   5.384  31.506  1.00  0.00     0.020 A 
HETATM    4  C9  UNK     1      18.551   4.289  32.336  1.00  0.00     0.059 A 
HETATM    5  C10 UNK     1      18.840   5.203  30.123  1.00  0.00     0.074 A 
HETATM    6  C11 UNK     1      18.343   3.023  31.790  1.00  0.00     0.091 A 
HETATM    7  C12 UNK     1      18.502   4.448  33.799  1.00  0.00     0.188 A 
HETATM    8  C13 UNK     1      18.630   3.936  29.575  1.00  0.00     0.040 A 
HETATM    9  C14 UNK     1      18.381   2.845  30.407  1.00  0.00     0.041 A 
HETATM   10  C15 UNK     1      18.233   3.225  34.581  1.00  0.00     0.093 A 
HETATM   11  C16 UNK     1      18.053   2.062  33.935  1.00  0.00     0.090 A 
ENDROOT
BRANCH   3  12
HETATM   12  C7  UNK     1      19.031   6.767  32.034  1.00  0.00     0.315 C 
BRANCH  12  13
HETATM   13  N1  UNK     1      17.799   7.370  32.546  1.00  0.00     0.092 N 
HETATM   14  C1  UNK     1      16.835   7.537  31.454  1.00  0.00     0.272 C 
HETATM   15  C3  UNK     1      15.594   8.389  31.737  1.00  0.00     0.030 C 
HETATM   16  C5  UNK     1      15.001   8.211  33.131  1.00  0.00     0.002 C 
HETATM   17  C6  UNK     1      15.689   9.101  34.164  1.00  0.00     0.002 C 
HETATM   18  C4  UNK     1      17.130   8.722  34.493  1.00  0.00     0.030 C 
HETATM   19  C2  UNK     1      18.078   8.595  33.297  1.00  0.00     0.272 C 
ENDBRANCH  12  13
ENDBRANCH   3  12
BRANCH   5  20
HETATM   20  O2  UNK     1      19.078   6.252  29.283  1.00  0.00    -0.360 OA
HETATM   21  H18 UNK     1      19.232   5.944  28.376  1.00  0.00     0.217 HD
ENDBRANCH   5  20
BRANCH  11  22
HETATM   22  C17 UNK     1      17.782   0.852  34.650  1.00  0.00    -0.002 A 
HETATM   23  C18 UNK     1      16.538   0.228  34.530  1.00  0.00     0.014 A 
HETATM   24  C20 UNK     1      16.275  -0.951  35.227  1.00  0.00     0.001 A 
HETATM   25  C22 UNK     1      17.256  -1.510  36.046  1.00  0.00     0.000 A 
HETATM   26  C21 UNK     1      18.500  -0.891  36.169  1.00  0.00     0.001 A 
HETATM   27  C19 UNK     1      18.763   0.288  35.471  1.00  0.00     0.014 A 
ENDBRANCH  11  22
TORSDOF 4
ENDMDL
MODEL 2
REMARK VINA RESULT:      -8.9     16.492     20.088
REMARK  4 active torsions:
REMARK  status: ('A' for Active; 'I' for Inactive)
REMARK    1  A    between atoms: C10_14  and  O2_2 
REMARK    2  A    between atoms: C7_11  and  N1_4 
REMARK    3  A    between atoms: C7_11  and  C8_12 
REMARK    4  A    between atoms: C16_20  and  C17_21 
ROOT
HETATM    1  O1  UNK     1      20.512  -1.789  17.688  1.00  0.00    -0.309 OA
HETATM    2  O3  UNK     1      17.672  -2.723  14.918  1.00  0.00    -0.287 OA
HETATM    3  C8  UNK     1      20.012  -4.335  15.056  1.00  0.00     0.020 A 
HETATM    4  C9  UNK     1      19.769  -3.234  15.881  1.00  0.00     0.059 A 
HETATM    5  C10 UNK     1      21.194  -5.060  15.208  1.00  0.00     0.074 A 
HETATM    6  C11 UNK     1      20.699  -2.861  16.850  1.00  0.00     0.091 A 
HETATM    7  C12 UNK     1      18.531  -2.450  15.745  1.00  0.00     0.188 A 
HETATM    8  C13 UNK     1      22.126  -4.688  16.179  1.00  0.00     0.040 A 
HETATM    9  C14 UNK     1      21.880  -3.588  17.001  1.00  0.00     0.041 A 
HETATM   10  C15 UNK     1      18.377  -1.307  16.667  1.00  0.00     0.093 A 
HETATM   11  C16 UNK     1      19.349  -1.048  17.556  1.00  0.00     0.090 A 
ENDROOT
BRANCH   3  12
HETATM   12  C7  UNK     1      19.051  -4.785  13.999  1.00  0.00     0.315 C 
BRANCH  12  13
HETATM   13  N1  UNK     1      19.578  -4.565  12.650  1.00  0.00     0.092 N 
HETATM   14  C1  UNK     1      19.187  -3.234  12.174  1.00  0.00     0.272 C 
HETATM   15  C3  UNK     1      19.415  -2.923  10.692  1.00  0.00     0.030 C 
HETATM   16  C5  UNK     1      20.709  -3.487  10.114  1.00  0.00     0.002 C 
HETATM   17  C6  UNK     1      20.548  -4.934   9.652  1.00  0.00     0.002 C 
HETATM   18  C4  UNK     1      20.349  -5.955  10.769  1.00  0.00     0.030 C 
HETATM   19  C2  UNK     1      19.211  -5.659  11.750  1.00  0.00     0.272 C 
ENDBRANCH  12  13
ENDBRANCH   3  12
BRANCH   5  20
HETATM   20  O2  UNK     1      21.461  -6.142  14.421  1.00  0.00    -0.360 OA
HETATM   21  H18 UNK     1      21.485  -5.895  13.484  1.00  0.00     0.217 HD
ENDBRANCH   5  20
BRANCH  11  22
HETATM   22  C17 UNK     1      19.241   0.045  18.475  1.00  0.00    -0.002 A 
HETATM   23  C18 UNK     1      19.024   1.341  18.002  1.00  0.00     0.014 A 
HETATM   24  C20 UNK     1      18.919   2.405  18.897  1.00  0.00     0.001 A 
HETATM   25  C22 UNK     1      19.031   2.176  20.268  1.00  0.00     0.000 A 
HETATM   26  C21 UNK     1      19.248   0.884  20.745  1.00  0.00     0.001 A 
HETATM   27  C19 UNK     1      19.353  -0.181  19.849  1.00  0.00     0.014 A 
ENDBRANCH  11  22
TORSDOF 4
ENDMDL
MODEL 3
REMARK VINA RESULT:      -8.8     23.439     25.377
REMARK  4 active torsions:
REMARK  status: ('A' for Active; 'I' for Inactive)
REMARK    1  A    between atoms: C10_14  and  O2_2 
REMARK    2  A    between atoms: C7_11  and  N1_4 
REMARK    3  A    between atoms: C7_11  and  C8_12 
REMARK    4  A    between atoms: C16_20  and  C17_21 
ROOT
HETATM    1  O1  UNK     1      12.906   6.463   8.552  1.00  0.00    -0.309 OA
HETATM    2  O3  UNK     1      13.760  10.229   9.856  1.00  0.00    -0.287 OA
HETATM    3  C8  UNK     1      15.805   8.255   9.978  1.00  0.00     0.020 A 
HETATM    4  C9  UNK     1      14.516   8.018   9.498  1.00  0.00     0.059 A 
HETATM    5  C10 UNK     1      16.736   7.216   9.994  1.00  0.00     0.074 A 
HETATM    6  C11 UNK     1      14.158   6.753   9.035  1.00  0.00     0.091 A 
HETATM    7  C12 UNK     1      13.513   9.095   9.468  1.00  0.00     0.188 A 
HETATM    8  C13 UNK     1      16.379   5.948   9.530  1.00  0.00     0.040 A 
HETATM    9  C14 UNK     1      15.090   5.715   9.050  1.00  0.00     0.041 A 
HETATM   10  C15 UNK     1      12.181   8.734   8.941  1.00  0.00     0.093 A 
HETATM   11  C16 UNK     1      11.961   7.476   8.529  1.00  0.00     0.090 A 
ENDROOT
BRANCH   3  12
HETATM   12  C7  UNK     1      16.249   9.594  10.487  1.00  0.00     0.315 C 
BRANCH  12  13
HETATM   13  N1  UNK     1      16.976  10.353   9.468  1.00  0.00     0.092 N 
HETATM   14  C1  UNK     1      18.290  10.747   9.986  1.00  0.00     0.272 C 
HETATM   15  C3  UNK     1      19.088  11.769   9.170  1.00  0.00     0.030 C 
HETATM   16  C5  UNK     1      18.989  11.597   7.658  1.00  0.00     0.002 C 
HETATM   17  C6  UNK     1      17.757  12.292   7.082  1.00  0.00     0.002 C 
HETATM   18  C4  UNK     1      16.419  11.662   7.458  1.00  0.00     0.030 C 
HETATM   19  C2  UNK     1      16.172  11.463   8.956  1.00  0.00     0.272 C 
ENDBRANCH  12  13
ENDBRANCH   3  12
BRANCH   5  20
HETATM   20  O2  UNK     1      18.004   7.414  10.454  1.00  0.00    -0.360 OA
HETATM   21  H18 UNK     1      18.249   6.739  11.105  1.00  0.00     0.217 HD
ENDBRANCH   5  20
BRANCH  11  22
HETATM   22  C17 UNK     1      10.688   7.080   8.004  1.00  0.00    -0.002 A 
HETATM   23  C18 UNK     1       9.524   7.301   8.744  1.00  0.00     0.014 A 
HETATM   24  C20 UNK     1       8.286   6.916   8.232  1.00  0.00     0.001 A 
HETATM   25  C22 UNK     1       8.207   6.308   6.978  1.00  0.00     0.000 A 
HETATM   26  C21 UNK     1       9.367   6.086   6.237  1.00  0.00     0.001 A 
HETATM   27  C19 UNK     1      10.606   6.472   6.748  1.00  0.00     0.014 A 
ENDBRANCH  11  22
TORSDOF 4
ENDMDL
MODEL 4
REMARK VINA RESULT:      -8.7      5.730     10.171
REMARK  4 active torsions:
REMARK  status: ('A' for Active; 'I' for Inactive)
REMARK    1  A    between atoms: C10_14  and  O2_2 
REMARK    2  A    between atoms: C7_11  and  N1_4 
REMARK    3  A    between atoms: C7_11  and  C8_12 
REMARK    4  A    between atoms: C16_20  and  C17_21 
ROOT
HETATM    1  O1  UNK     1      18.409  -0.519  33.008  1.00  0.00    -0.309 OA
HETATM    2  O3  UNK     1      21.594  -2.731  34.262  1.00  0.00    -0.287 OA
HETATM    3  C8  UNK     1      19.556  -2.100  36.144  1.00  0.00     0.020 A 
HETATM    4  C9  UNK     1      19.539  -1.699  34.807  1.00  0.00     0.059 A 
HETATM    5  C10 UNK     1      18.503  -1.738  36.985  1.00  0.00     0.074 A 
HETATM    6  C11 UNK     1      18.478  -0.941  34.312  1.00  0.00     0.091 A 
HETATM    7  C12 UNK     1      20.634  -2.067  33.896  1.00  0.00     0.188 A 
HETATM    8  C13 UNK     1      17.441  -0.979  36.491  1.00  0.00     0.040 A 
HETATM    9  C14 UNK     1      17.426  -0.580  35.154  1.00  0.00     0.041 A 
HETATM   10  C15 UNK     1      20.515  -1.589  32.503  1.00  0.00     0.093 A 
HETATM   11  C16 UNK     1      19.443  -0.861  32.152  1.00  0.00     0.090 A 
ENDROOT
BRANCH   3  12
HETATM   12  C7  UNK     1      20.667  -2.916  36.733  1.00  0.00     0.315 C 
BRANCH  12  13
HETATM   13  N1  UNK     1      20.203  -4.230  37.183  1.00  0.00     0.092 N 
HETATM   14  C1  UNK     1      21.270  -4.907  37.926  1.00  0.00     0.272 C 
HETATM   15  C3  UNK     1      21.069  -6.391  38.246  1.00  0.00     0.030 C 
HETATM   16  C5  UNK     1      19.643  -6.775  38.625  1.00  0.00     0.002 C 
HETATM   17  C6  UNK     1      18.780  -7.057  37.397  1.00  0.00     0.002 C 
HETATM   18  C4  UNK     1      18.453  -5.839  36.538  1.00  0.00     0.030 C 
HETATM   19  C2  UNK     1      19.653  -5.009  36.072  1.00  0.00     0.272 C 
ENDBRANCH  12  13
ENDBRANCH   3  12
BRANCH   5  20
HETATM   20  O2  UNK     1      18.488  -2.116  38.296  1.00  0.00    -0.360 OA
HETATM   21  H18 UNK     1      17.657  -1.857  38.724  1.00  0.00     0.217 HD
ENDBRANCH   5  20
BRANCH  11  22
HETATM   22  C17 UNK     1      19.280  -0.382  30.812  1.00  0.00    -0.002 A 
HETATM   23  C18 UNK     1      19.751  -1.135  29.734  1.00  0.00     0.014 A 
HETATM   24  C20 UNK     1      19.592  -0.667  28.430  1.00  0.00     0.001 A 
HETATM   25  C22 UNK     1      18.961   0.556  28.200  1.00  0.00     0.000 A 
HETATM   26  C21 UNK     1      18.490   1.311  29.273  1.00  0.00     0.001 A 
HETATM   27  C19 UNK     1      18.649   0.843  30.578  1.00  0.00     0.014 A 
ENDBRANCH  11  22
TORSDOF 4
ENDMDL
MODEL 5
REMARK VINA RESULT:      -8.7     16.232     19.824
REMARK  4 active torsions:
REMARK  status: ('A' for Active; 'I' for Inactive)
REMARK    1  A    between atoms: C10_14  and  O2_2 
REMARK    2  A    between atoms: C7_11  and  N1_4 
REMARK    3  A    between atoms: C7_11  and  C8_12 
REMARK    4  A    between atoms: C16_20  and  C17_21 
ROOT
HETATM    1  O1  UNK     1      20.440  -1.862  17.667  1.00  0.00    -0.309 OA
HETATM    2  O3  UNK     1      18.037  -2.295  14.404  1.00  0.00    -0.287 OA
HETATM    3  C8  UNK     1      20.151  -4.159  14.787  1.00  0.00     0.020 A 
HETATM    4  C9  UNK     1      19.879  -3.095  15.649  1.00  0.00     0.059 A 
HETATM    5  C10 UNK     1      21.214  -5.019  15.069  1.00  0.00     0.074 A 
HETATM    6  C11 UNK     1      20.662  -2.891  16.785  1.00  0.00     0.091 A 
HETATM    7  C12 UNK     1      18.764  -2.173  15.379  1.00  0.00     0.188 A 
HETATM    8  C13 UNK     1      21.998  -4.815  16.206  1.00  0.00     0.040 A 
HETATM    9  C14 UNK     1      21.723  -3.751  17.065  1.00  0.00     0.041 A 
HETATM   10  C15 UNK     1      18.567  -1.083  16.356  1.00  0.00     0.093 A 
HETATM   11  C16 UNK     1      19.394  -0.991  17.410  1.00  0.00     0.090 A 
ENDROOT
BRANCH   3  12
HETATM   12  C7  UNK     1      19.346  -4.431  13.553  1.00  0.00     0.315 C 
BRANCH  12  13
HETATM   13  N1  UNK     1      18.629  -5.705  13.636  1.00  0.00     0.092 N 
HETATM   14  C1  UNK     1      18.369  -6.219  12.288  1.00  0.00     0.272 C 
HETATM   15  C3  UNK     1      17.402  -7.400  12.161  1.00  0.00     0.030 C 
HETATM   16  C5  UNK     1      17.525  -8.447  13.264  1.00  0.00     0.002 C 
HETATM   17  C6  UNK     1      16.708  -8.077  14.499  1.00  0.00     0.002 C 
HETATM   18  C4  UNK     1      17.223  -6.876  15.285  1.00  0.00     0.030 C 
HETATM   19  C2  UNK     1      17.437  -5.591  14.479  1.00  0.00     0.272 C 
ENDBRANCH  12  13
ENDBRANCH   3  12
BRANCH   5  20
HETATM   20  O2  UNK     1      21.505  -6.069  14.249  1.00  0.00    -0.360 OA
HETATM   21  H18 UNK     1      22.460  -6.135  14.092  1.00  0.00     0.217 HD
ENDBRANCH   5  20
BRANCH  11  22
HETATM   22  C17 UNK     1      19.237   0.044  18.386  1.00  0.00    -0.002 A 
HETATM   23  C18 UNK     1      19.001   1.361  17.982  1.00  0.00     0.014 A 
HETATM   24  C20 UNK     1      18.849   2.368  18.934  1.00  0.00     0.001 A 
HETATM   25  C22 UNK     1      18.933   2.063  20.293  1.00  0.00     0.000 A 
HETATM   26  C21 UNK     1      19.169   0.751  20.700  1.00  0.00     0.001 A 
HETATM   27  C19 UNK     1      19.320  -0.258  19.748  1.00  0.00     0.014 A 
ENDBRANCH  11  22
TORSDOF 4
ENDMDL
MODEL 6
REMARK VINA RESULT:      -8.6      2.489      7.701
REMARK  4 active torsions:
REMARK  status: ('A' for Active; 'I' for Inactive)
REMARK    1  A    between atoms: C10_14  and  O2_2 
REMARK    2  A    between atoms: C7_11  and  N1_4 
REMARK    3  A    between atoms: C7_11  and  C8_12 
REMARK    4  A    between atoms: C16_20  and  C17_21 
ROOT
HETATM    1  O1  UNK     1      16.874   9.394  34.218  1.00  0.00    -0.309 OA
HETATM    2  O3  UNK     1      16.490   7.284  30.753  1.00  0.00    -0.287 OA
HETATM    3  C8  UNK     1      18.898   7.014  32.244  1.00  0.00     0.020 A 
HETATM    4  C9  UNK     1      17.829   7.829  32.623  1.00  0.00     0.059 A 
HETATM    5  C10 UNK     1      20.035   6.953  33.050  1.00  0.00     0.074 A 
HETATM    6  C11 UNK     1      17.894   8.577  33.797  1.00  0.00     0.091 A 
HETATM    7  C12 UNK     1      16.615   7.914  31.794  1.00  0.00     0.188 A 
HETATM    8  C13 UNK     1      20.102   7.701  34.227  1.00  0.00     0.040 A 
HETATM    9  C14 UNK     1      19.032   8.514  34.603  1.00  0.00     0.041 A 
HETATM   10  C15 UNK     1      15.548   8.806  32.287  1.00  0.00     0.093 A 
HETATM   11  C16 UNK     1      15.735   9.477  33.435  1.00  0.00     0.090 A 
ENDROOT
BRANCH   3  12
HETATM   12  C7  UNK     1      18.885   6.187  30.994  1.00  0.00     0.315 C 
BRANCH  12  13
HETATM   13  N1  UNK     1      18.834   4.753  31.288  1.00  0.00     0.092 N 
HETATM   14  C1  UNK     1      18.733   3.993  30.038  1.00  0.00     0.272 C 
HETATM   15  C3  UNK     1      18.402   2.502  30.148  1.00  0.00     0.030 C 
HETATM   16  C5  UNK     1      19.071   1.784  31.316  1.00  0.00     0.002 C 
HETATM   17  C6  UNK     1      18.271   1.925  32.609  1.00  0.00     0.002 C 
HETATM   18  C4  UNK     1      18.243   3.328  33.207  1.00  0.00     0.030 C 
HETATM   19  C2  UNK     1      17.789   4.447  32.266  1.00  0.00     0.272 C 
ENDBRANCH  12  13
ENDBRANCH   3  12
BRANCH   5  20
HETATM   20  O2  UNK     1      21.095   6.164  32.711  1.00  0.00    -0.360 OA
HETATM   21  H18 UNK     1      21.525   6.486  31.903  1.00  0.00     0.217 HD
ENDBRANCH   5  20
BRANCH  11  22
HETATM   22  C17 UNK     1      14.725  10.349  33.957  1.00  0.00    -0.002 A 
HETATM   23  C18 UNK     1      14.708  10.669  35.316  1.00  0.00     0.014 A 
HETATM   24  C20 UNK     1      13.725  11.518  35.823  1.00  0.00     0.001 A 
HETATM   25  C22 UNK     1      12.755  12.049  34.973  1.00  0.00     0.000 A 
HETATM   26  C21 UNK     1      12.769  11.732  33.615  1.00  0.00     0.001 A 
HETATM   27  C19 UNK     1      13.753  10.884  33.107  1.00  0.00     0.014 A 
ENDBRANCH  11  22
TORSDOF 4
ENDMDL
MODEL 7
REMARK VINA RESULT:      -8.5     23.449     25.258
REMARK  4 active torsions:
REMARK  status: ('A' for Active; 'I' for Inactive)
REMARK    1  A    between atoms: C10_14  and  O2_2 
REMARK    2  A    between atoms: C7_11  and  N1_4 
REMARK    3  A    between atoms: C7_11  and  C8_12 
REMARK    4  A    between atoms: C16_20  and  C17_21 
ROOT
HETATM    1  O1  UNK     1       8.544   5.335   8.505  1.00  0.00    -0.309 OA
HETATM    2  O3  UNK     1      11.965   4.666  10.617  1.00  0.00    -0.287 OA
HETATM    3  C8  UNK     1      12.180   5.751   7.996  1.00  0.00     0.020 A 
HETATM    4  C9  UNK     1      10.970   5.428   8.614  1.00  0.00     0.059 A 
HETATM    5  C10 UNK     1      12.175   6.281   6.706  1.00  0.00     0.074 A 
HETATM    6  C11 UNK     1       9.763   5.633   7.947  1.00  0.00     0.091 A 
HETATM    7  C12 UNK     1      10.944   4.869   9.975  1.00  0.00     0.188 A 
HETATM    8  C13 UNK     1      10.966   6.487   6.038  1.00  0.00     0.040 A 
HETATM    9  C14 UNK     1       9.759   6.164   6.657  1.00  0.00     0.041 A 
HETATM   10  C15 UNK     1       9.610   4.564  10.530  1.00  0.00     0.093 A 
HETATM   11  C16 UNK     1       8.521   4.804   9.784  1.00  0.00     0.090 A 
ENDROOT
BRANCH   3  12
HETATM   12  C7  UNK     1      13.509   5.555   8.662  1.00  0.00     0.315 C 
BRANCH  12  13
HETATM   13  N1  UNK     1      14.145   6.829   9.000  1.00  0.00     0.092 N 
HETATM   14  C1  UNK     1      15.417   6.583   9.688  1.00  0.00     0.272 C 
HETATM   15  C3  UNK     1      16.098   7.783  10.354  1.00  0.00     0.030 C 
HETATM   16  C5  UNK     1      16.003   9.087   9.570  1.00  0.00     0.002 C 
HETATM   17  C6  UNK     1      14.701   9.834   9.854  1.00  0.00     0.002 C 
HETATM   18  C4  UNK     1      13.438   9.167   9.316  1.00  0.00     0.030 C 
HETATM   19  C2  UNK     1      13.226   7.707   9.726  1.00  0.00     0.272 C 
ENDBRANCH  12  13
ENDBRANCH   3  12
BRANCH   5  20
HETATM   20  O2  UNK     1      13.339   6.610   6.075  1.00  0.00    -0.360 OA
HETATM   21  H18 UNK     1      13.571   7.538   6.233  1.00  0.00     0.217 HD
ENDBRANCH   5  20
BRANCH  11  22
HETATM   22  C17 UNK     1       7.206   4.530  10.283  1.00  0.00    -0.002 A 
HETATM   23  C18 UNK     1       6.480   5.529  10.935  1.00  0.00     0.014 A 
HETATM   24  C20 UNK     1       5.200   5.262  11.420  1.00  0.00     0.001 A 
HETATM   25  C22 UNK     1       4.643   3.994  11.255  1.00  0.00     0.000 A 
HETATM   26  C21 UNK     1       5.364   2.993  10.605  1.00  0.00     0.001 A 
HETATM   27  C19 UNK     1       6.644   3.261  10.119  1.00  0.00     0.014 A 
ENDBRANCH  11  22
TORSDOF 4
ENDMDL
MODEL 8
REMARK VINA RESULT:      -8.5     23.542     25.426
REMARK  4 active torsions:
REMARK  status: ('A' for Active; 'I' for Inactive)
REMARK    1  A    between atoms: C10_14  and  O2_2 
REMARK    2  A    between atoms: C7_11  and  N1_4 
REMARK    3  A    between atoms: C7_11  and  C8_12 
REMARK    4  A    between atoms: C16_20  and  C17_21 
ROOT
HETATM    1  O1  UNK     1      17.443   8.840   9.480  1.00  0.00    -0.309 OA
HETATM    2  O3  UNK     1      13.626  10.256   9.652  1.00  0.00    -0.287 OA
HETATM    3  C8  UNK     1      14.048   7.459   9.951  1.00  0.00     0.020 A 
HETATM    4  C9  UNK     1      15.070   8.388   9.747  1.00  0.00     0.059 A 
HETATM    5  C10 UNK     1      14.365   6.107  10.087  1.00  0.00     0.074 A 
HETATM    6  C11 UNK     1      16.399   7.971   9.679  1.00  0.00     0.091 A 
HETATM    7  C12 UNK     1      14.768   9.821   9.601  1.00  0.00     0.188 A 
HETATM    8  C13 UNK     1      15.695   5.688  10.020  1.00  0.00     0.040 A 
HETATM    9  C14 UNK     1      16.714   6.619   9.816  1.00  0.00     0.041 A 
HETATM   10  C15 UNK     1      15.924  10.715   9.387  1.00  0.00     0.093 A 
HETATM   11  C16 UNK     1      17.157  10.188   9.337  1.00  0.00     0.090 A 
ENDROOT
BRANCH   3  12
HETATM   12  C7  UNK     1      12.603   7.847  10.034  1.00  0.00     0.315 C 
BRANCH  12  13
HETATM   13  N1  UNK     1      11.812   7.242   8.960  1.00  0.00     0.092 N 
HETATM   14  C1  UNK     1      12.517   7.383   7.682  1.00  0.00     0.272 C 
HETATM   15  C3  UNK     1      11.734   7.053   6.408  1.00  0.00     0.030 C 
HETATM   16  C5  UNK     1      10.798   5.855   6.527  1.00  0.00     0.002 C 
HETATM   17  C6  UNK     1       9.440   6.243   7.105  1.00  0.00     0.002 C 
HETATM   18  C4  UNK     1       9.451   6.653   8.575  1.00  0.00     0.030 C 
HETATM   19  C2  UNK     1      10.442   7.758   8.953  1.00  0.00     0.272 C 
ENDBRANCH  12  13
ENDBRANCH   3  12
BRANCH   5  20
HETATM   20  O2  UNK     1      13.391   5.173  10.291  1.00  0.00    -0.360 OA
HETATM   21  H18 UNK     1      13.334   4.926  11.227  1.00  0.00     0.217 HD
ENDBRANCH   5  20
BRANCH  11  22
HETATM   22  C17 UNK     1      18.309  11.015   9.140  1.00  0.00    -0.002 A 
HETATM   23  C18 UNK     1      18.715  11.357   7.848  1.00  0.00     0.014 A 
HETATM   24  C20 UNK     1      19.836  12.163   7.656  1.00  0.00     0.001 A 
HETATM   25  C22 UNK     1      20.557  12.629   8.756  1.00  0.00     0.000 A 
HETATM   26  C21 UNK     1      20.156  12.289  10.048  1.00  0.00     0.001 A 
HETATM   27  C19 UNK     1      19.033  11.484  10.239  1.00  0.00     0.014 A 
ENDBRANCH  11  22
TORSDOF 4
ENDMDL
MODEL 9
REMARK VINA RESULT:      -8.5     15.494     17.593
REMARK  4 active torsions:
REMARK  status: ('A' for Active; 'I' for Inactive)
REMARK    1  A    between atoms: C10_14  and  O2_2 
REMARK    2  A    between atoms: C7_11  and  N1_4 
REMARK    3  A    between atoms: C7_11  and  C8_12 
REMARK    4  A    between atoms: C16_20  and  C17_21 
ROOT
HETATM    1  O1  UNK     1      26.435  -7.906  37.518  1.00  0.00    -0.309 OA
HETATM    2  O3  UNK     1      30.199  -9.467  37.453  1.00  0.00    -0.287 OA
HETATM    3  C8  UNK     1      29.859  -6.784  38.337  1.00  0.00     0.020 A 
HETATM    4  C9  UNK     1      28.813  -7.610  37.919  1.00  0.00     0.059 A 
HETATM    5  C10 UNK     1      29.583  -5.481  38.753  1.00  0.00     0.074 A 
HETATM    6  C11 UNK     1      27.501  -7.139  37.918  1.00  0.00     0.091 A 
HETATM    7  C12 UNK     1      29.073  -8.989  37.475  1.00  0.00     0.188 A 
HETATM    8  C13 UNK     1      28.269  -5.009  38.753  1.00  0.00     0.040 A 
HETATM    9  C14 UNK     1      27.227  -5.836  38.335  1.00  0.00     0.041 A 
HETATM   10  C15 UNK     1      27.895  -9.773  37.054  1.00  0.00     0.093 A 
HETATM   11  C16 UNK     1      26.681  -9.202  37.096  1.00  0.00     0.090 A 
ENDROOT
BRANCH   3  12
HETATM   12  C7  UNK     1      31.288  -7.234  38.361  1.00  0.00     0.315 C 
BRANCH  12  13
HETATM   13  N1  UNK     1      32.108  -6.507  37.390  1.00  0.00     0.092 N 
HETATM   14  C1  UNK     1      31.423  -6.466  36.093  1.00  0.00     0.272 C 
HETATM   15  C3  UNK     1      32.234  -5.984  34.886  1.00  0.00     0.030 C 
HETATM   16  C5  UNK     1      33.186  -4.828  35.177  1.00  0.00     0.002 C 
HETATM   17  C6  UNK     1      34.528  -5.313  35.721  1.00  0.00     0.002 C 
HETATM   18  C4  UNK     1      34.483  -5.913  37.123  1.00  0.00     0.030 C 
HETATM   19  C2  UNK     1      33.470  -7.041  37.336  1.00  0.00     0.272 C 
ENDBRANCH  12  13
ENDBRANCH   3  12
BRANCH   5  20
HETATM   20  O2  UNK     1      30.581  -4.650  39.170  1.00  0.00    -0.360 OA
HETATM   21  H18 UNK     1      31.255  -4.540  38.481  1.00  0.00     0.217 HD
ENDBRANCH   5  20
BRANCH  11  22
HETATM   22  C17 UNK     1      25.508  -9.925  36.704  1.00  0.00    -0.002 A 
HETATM   23  C18 UNK     1      24.257  -9.306  36.739  1.00  0.00     0.014 A 
HETATM   24  C20 UNK     1      23.116 -10.010  36.357  1.00  0.00     0.001 A 
HETATM   25  C22 UNK     1      23.222 -11.337  35.939  1.00  0.00     0.000 A 
HETATM   26  C21 UNK     1      24.470 -11.959  35.904  1.00  0.00     0.001 A 
HETATM   27  C19 UNK     1      25.611 -11.254  36.285  1.00  0.00     0.014 A 
ENDBRANCH  11  22
TORSDOF 4
ENDMDL
MODEL 10
REMARK VINA RESULT:      -8.4     13.130     16.155
REMARK  4 active torsions:
REMARK  status: ('A' for Active; 'I' for Inactive)
REMARK    1  A    between atoms: C10_14  and  O2_2 
REMARK    2  A    between atoms: C7_11  and  N1_4 
REMARK    3  A    between atoms: C7_11  and  C8_12 
REMARK    4  A    between atoms: C16_20  and  C17_21 
ROOT
HETATM    1  O1  UNK     1      24.794  -8.262  38.875  1.00  0.00    -0.309 OA
HETATM    2  O3  UNK     1      26.860  -4.749  38.882  1.00  0.00    -0.287 OA
HETATM    3  C8  UNK     1      28.324  -7.182  38.707  1.00  0.00     0.020 A 
HETATM    4  C9  UNK     1      26.932  -7.109  38.792  1.00  0.00     0.059 A 
HETATM    5  C10 UNK     1      28.944  -8.429  38.623  1.00  0.00     0.074 A 
HETATM    6  C11 UNK     1      26.165  -8.274  38.794  1.00  0.00     0.091 A 
HETATM    7  C12 UNK     1      26.249  -5.809  38.881  1.00  0.00     0.188 A 
HETATM    8  C13 UNK     1      28.177  -9.595  38.624  1.00  0.00     0.040 A 
HETATM    9  C14 UNK     1      26.786  -9.519  38.709  1.00  0.00     0.041 A 
HETATM   10  C15 UNK     1      24.775  -5.849  38.967  1.00  0.00     0.093 A 
HETATM   11  C16 UNK     1      24.152  -7.038  38.963  1.00  0.00     0.090 A 
ENDROOT
BRANCH   3  12
HETATM   12  C7  UNK     1      29.201  -5.967  38.700  1.00  0.00     0.315 C 
BRANCH  12  13
HETATM   13  N1  UNK     1      30.072  -5.928  37.524  1.00  0.00     0.092 N 
HETATM   14  C1  UNK     1      31.002  -4.799  37.631  1.00  0.00     0.272 C 
HETATM   15  C3  UNK     1      31.810  -4.434  36.382  1.00  0.00     0.030 C 
HETATM   16  C5  UNK     1      32.297  -5.627  35.566  1.00  0.00     0.002 C 
HETATM   17  C6  UNK     1      31.239  -6.117  34.580  1.00  0.00     0.002 C 
HETATM   18  C4  UNK     1      30.016  -6.774  35.212  1.00  0.00     0.030 C 
HETATM   19  C2  UNK     1      29.294  -5.953  36.284  1.00  0.00     0.272 C 
ENDBRANCH  12  13
ENDBRANCH   3  12
BRANCH   5  20
HETATM   20  O2  UNK     1      30.301  -8.535  38.536  1.00  0.00    -0.360 OA
HETATM   21  H18 UNK     1      30.730  -7.682  38.710  1.00  0.00     0.217 HD
ENDBRANCH   5  20
BRANCH  11  22
HETATM   22  C17 UNK     1      22.725  -7.127  39.039  1.00  0.00    -0.002 A 
HETATM   23  C18 UNK     1      22.119  -8.273  39.558  1.00  0.00     0.014 A 
HETATM   24  C20 UNK     1      20.729  -8.359  39.631  1.00  0.00     0.001 A 
HETATM   25  C22 UNK     1      19.940  -7.298  39.185  1.00  0.00     0.000 A 
HETATM   26  C21 UNK     1      20.541  -6.151  38.666  1.00  0.00     0.001 A 
HETATM   27  C19 UNK     1      21.932  -6.065  38.594  1.00  0.00     0.014 A 
ENDBRANCH  11  22
TORSDOF 4
ENDMDL
