MODEL 1
REMARK VINA RESULT:      -9.1      0.000      0.000
REMARK  5 active torsions:
REMARK  status: ('A' for Active; 'I' for Inactive)
REMARK    1  A    between atoms: C12_19  and  O3_4 
REMARK    2  A    between atoms: C21_28  and  O3_4 
REMARK    3  A    between atoms: C10_17  and  N1_6 
REMARK    4  A    between atoms: C1_8  and  C3_10 
REMARK    5  A    between atoms: C12_19  and  C5_12 
ROOT
HETATM    1  O1  UNK     1      30.354  -6.108  36.162  1.00  0.00    -0.269 OA
HETATM    2  O2  UNK     1      30.913  -7.660  34.498  1.00  0.00    -0.286 OA
HETATM    3  O4  UNK     1      27.510  -9.786  35.167  1.00  0.00    -0.287 OA
HETATM    4  N2  UNK     1      26.622  -4.925  38.970  1.00  0.00    -0.191 NA
HETATM    5  C1  UNK     1      27.951  -7.497  36.876  1.00  0.00     0.109 C 
HETATM    6  C2  UNK     1      28.891  -7.948  35.780  1.00  0.00     0.065 A 
HETATM    7  C4  UNK     1      28.306  -6.111  37.397  1.00  0.00     0.086 C 
HETATM    8  C6  UNK     1      30.016  -7.271  35.480  1.00  0.00     0.204 A 
HETATM    9  C7  UNK     1      28.545  -9.159  34.988  1.00  0.00     0.197 A 
HETATM   10  C8  UNK     1      29.518  -9.569  33.965  1.00  0.00     0.049 A 
HETATM   11  C10 UNK     1      29.456  -5.499  37.036  1.00  0.00     0.162 C 
HETATM   12  C11 UNK     1      30.658  -8.794  33.775  1.00  0.00     0.092 A 
HETATM   13  C16 UNK     1      29.306 -10.714  33.193  1.00  0.00     0.018 A 
HETATM   14  C17 UNK     1      31.597  -9.160  32.810  1.00  0.00     0.038 A 
HETATM   15  C18 UNK     1      27.376  -5.455  38.266  1.00  0.00     0.100 C 
HETATM   16  C19 UNK     1      30.246 -11.079  32.229  1.00  0.00     0.001 A 
HETATM   17  C20 UNK     1      31.390 -10.304  32.038  1.00  0.00     0.003 A 
ENDROOT
BRANCH   5  18
HETATM   18  C3  UNK     1      27.944  -8.489  38.003  1.00  0.00    -0.036 A 
HETATM   19  C9  UNK     1      29.160  -8.931  38.514  1.00  0.00     0.009 A 
HETATM   20  C14 UNK     1      29.176  -9.853  39.561  1.00  0.00     0.001 A 
HETATM   21  C15 UNK     1      27.977 -10.326  40.092  1.00  0.00     0.001 A 
HETATM   22  C13 UNK     1      26.760  -9.878  39.576  1.00  0.00     0.010 A 
HETATM   23  C5  UNK     1      26.744  -8.957  38.529  1.00  0.00    -0.027 A 
BRANCH  23  24
HETATM   24  C12 UNK     1      25.430  -8.493  37.992  1.00  0.00     0.215 C 
BRANCH  24  25
HETATM   25  O3  UNK     1      24.619  -8.034  39.065  1.00  0.00    -0.347 OA
BRANCH  25  26
HETATM   26  C21 UNK     1      23.275  -7.925  38.821  1.00  0.00     0.069 A 
HETATM   27  C22 UNK     1      22.748  -8.426  37.636  1.00  0.00     0.038 A 
HETATM   28  C24 UNK     1      21.381  -8.314  37.386  1.00  0.00     0.026 A 
HETATM   29  C26 UNK     1      20.548  -7.702  38.325  1.00  0.00     0.034 A 
HETATM   30  C25 UNK     1      21.083  -7.203  39.511  1.00  0.00     0.026 A 
HETATM   31 Cl1  UNK     1      18.861  -7.566  38.018  1.00  0.00    -0.084 Cl
HETATM   32  C23 UNK     1      22.452  -7.314  39.761  1.00  0.00     0.038 A 
ENDBRANCH  25  26
ENDBRANCH  24  25
ENDBRANCH  23  24
ENDBRANCH   5  18
BRANCH  11  33
HETATM   33  N1  UNK     1      29.859  -4.265  37.467  1.00  0.00    -0.379 N 
HETATM   34  H10 UNK     1      29.976  -3.499  36.817  1.00  0.00     0.158 HD
HETATM   35  H11 UNK     1      30.038  -4.127  38.454  1.00  0.00     0.158 HD
ENDBRANCH  11  33
TORSDOF 5
ENDMDL
MODEL 2
REMARK VINA RESULT:      -9.0      1.175      1.483
REMARK  5 active torsions:
REMARK  status: ('A' for Active; 'I' for Inactive)
REMARK    1  A    between atoms: C12_19  and  O3_4 
REMARK    2  A    between atoms: C21_28  and  O3_4 
REMARK    3  A    between atoms: C10_17  and  N1_6 
REMARK    4  A    between atoms: C1_8  and  C3_10 
REMARK    5  A    between atoms: C12_19  and  C5_12 
ROOT
HETATM    1  O1  UNK     1      31.796  -7.013  36.579  1.00  0.00    -0.269 OA
HETATM    2  O2  UNK     1      31.747  -8.514  34.779  1.00  0.00    -0.286 OA
HETATM    3  O4  UNK     1      27.783  -9.241  35.335  1.00  0.00    -0.287 OA
HETATM    4  N2  UNK     1      28.754  -4.748  39.549  1.00  0.00    -0.191 NA
HETATM    5  C1  UNK     1      29.037  -7.444  37.222  1.00  0.00     0.109 C 
HETATM    6  C2  UNK     1      29.750  -8.123  36.073  1.00  0.00     0.065 A 
HETATM    7  C4  UNK     1      29.884  -6.345  37.849  1.00  0.00     0.086 C 
HETATM    8  C6  UNK     1      31.051  -7.899  35.808  1.00  0.00     0.204 A 
HETATM    9  C7  UNK     1      28.981  -9.040  35.189  1.00  0.00     0.197 A 
HETATM   10  C8  UNK     1      29.740  -9.699  34.117  1.00  0.00     0.049 A 
HETATM   11  C10 UNK     1      31.184  -6.187  37.518  1.00  0.00     0.162 C 
HETATM   12  C11 UNK     1      31.091  -9.401  33.969  1.00  0.00     0.092 A 
HETATM   13  C16 UNK     1      29.120 -10.609  33.255  1.00  0.00     0.018 A 
HETATM   14  C17 UNK     1      31.834 -10.012  32.959  1.00  0.00     0.038 A 
HETATM   15  C18 UNK     1      29.260  -5.463  38.788  1.00  0.00     0.100 C 
HETATM   16  C19 UNK     1      29.865 -11.219  32.246  1.00  0.00     0.001 A 
HETATM   17  C20 UNK     1      31.219 -10.922  32.097  1.00  0.00     0.003 A 
ENDROOT
BRANCH   5  18
HETATM   18  C3  UNK     1      28.639  -8.451  38.262  1.00  0.00    -0.036 A 
HETATM   19  C9  UNK     1      29.594  -9.352  38.721  1.00  0.00     0.009 A 
HETATM   20  C14 UNK     1      29.245 -10.297  39.687  1.00  0.00     0.001 A 
HETATM   21  C15 UNK     1      27.945 -10.333  40.189  1.00  0.00     0.001 A 
HETATM   22  C13 UNK     1      26.992  -9.427  39.724  1.00  0.00     0.010 A 
HETATM   23  C5  UNK     1      27.340  -8.483  38.758  1.00  0.00    -0.027 A 
BRANCH  23  24
HETATM   24  C12 UNK     1      26.303  -7.523  38.275  1.00  0.00     0.215 C 
BRANCH  24  25
HETATM   25  O3  UNK     1      25.355  -8.218  37.476  1.00  0.00    -0.347 OA
BRANCH  25  26
HETATM   26  C21 UNK     1      24.065  -8.252  37.936  1.00  0.00     0.069 A 
HETATM   27  C22 UNK     1      23.758  -7.680  39.166  1.00  0.00     0.038 A 
HETATM   28  C24 UNK     1      22.446  -7.716  39.636  1.00  0.00     0.026 A 
HETATM   29  C26 UNK     1      21.447  -8.324  38.872  1.00  0.00     0.034 A 
HETATM   30  C25 UNK     1      21.763  -8.894  37.640  1.00  0.00     0.026 A 
HETATM   31 Cl1  UNK     1      19.828  -8.367  39.451  1.00  0.00    -0.084 Cl
HETATM   32  C23 UNK     1      23.076  -8.859  37.170  1.00  0.00     0.038 A 
ENDBRANCH  25  26
ENDBRANCH  24  25
ENDBRANCH  23  24
ENDBRANCH   5  18
BRANCH  11  33
HETATM   33  N1  UNK     1      32.019  -5.239  38.043  1.00  0.00    -0.379 N 
HETATM   34  H10 UNK     1      32.564  -4.634  37.442  1.00  0.00     0.158 HD
HETATM   35  H11 UNK     1      32.084  -5.147  39.049  1.00  0.00     0.158 HD
ENDBRANCH  11  33
TORSDOF 5
ENDMDL
MODEL 3
REMARK VINA RESULT:      -9.0      4.153      6.529
REMARK  5 active torsions:
REMARK  status: ('A' for Active; 'I' for Inactive)
REMARK    1  A    between atoms: C12_19  and  O3_4 
REMARK    2  A    between atoms: C21_28  and  O3_4 
REMARK    3  A    between atoms: C10_17  and  N1_6 
REMARK    4  A    between atoms: C1_8  and  C3_10 
REMARK    5  A    between atoms: C12_19  and  C5_12 
ROOT
HETATM    1  O1  UNK     1      30.223 -10.742  33.888  1.00  0.00    -0.269 OA
HETATM    2  O2  UNK     1      29.125  -9.753  32.070  1.00  0.00    -0.286 OA
HETATM    3  O4  UNK     1      28.114  -6.499  34.294  1.00  0.00    -0.287 OA
HETATM    4  N2  UNK     1      31.683  -9.624  38.341  1.00  0.00    -0.191 NA
HETATM    5  C1  UNK     1      29.541  -8.603  35.671  1.00  0.00     0.109 C 
HETATM    6  C2  UNK     1      29.147  -8.641  34.210  1.00  0.00     0.065 A 
HETATM    7  C4  UNK     1      30.525  -9.710  36.024  1.00  0.00     0.086 C 
HETATM    8  C6  UNK     1      29.481  -9.669  33.407  1.00  0.00     0.204 A 
HETATM    9  C7  UNK     1      28.397  -7.492  33.636  1.00  0.00     0.197 A 
HETATM   10  C8  UNK     1      28.009  -7.607  32.224  1.00  0.00     0.049 A 
HETATM   11  C10 UNK     1      30.809 -10.702  35.151  1.00  0.00     0.162 C 
HETATM   12  C11 UNK     1      28.394  -8.738  31.512  1.00  0.00     0.092 A 
HETATM   13  C16 UNK     1      27.268  -6.599  31.600  1.00  0.00     0.018 A 
HETATM   14  C17 UNK     1      28.040  -8.872  30.169  1.00  0.00     0.038 A 
HETATM   15  C18 UNK     1      31.165  -9.663  37.304  1.00  0.00     0.100 C 
HETATM   16  C19 UNK     1      26.915  -6.735  30.257  1.00  0.00     0.001 A 
HETATM   17  C20 UNK     1      27.299  -7.869  29.542  1.00  0.00     0.003 A 
ENDROOT
BRANCH   5  18
HETATM   18  C3  UNK     1      28.324  -8.692  36.545  1.00  0.00    -0.036 A 
HETATM   19  C9  UNK     1      27.313  -9.582  36.197  1.00  0.00     0.009 A 
HETATM   20  C14 UNK     1      26.173  -9.680  36.996  1.00  0.00     0.001 A 
HETATM   21  C15 UNK     1      26.051  -8.888  38.137  1.00  0.00     0.001 A 
HETATM   22  C13 UNK     1      27.069  -7.997  38.481  1.00  0.00     0.010 A 
HETATM   23  C5  UNK     1      28.208  -7.899  37.682  1.00  0.00    -0.027 A 
BRANCH  23  24
HETATM   24  C12 UNK     1      29.284  -6.938  38.068  1.00  0.00     0.215 C 
BRANCH  24  25
HETATM   25  O3  UNK     1      29.146  -5.746  37.306  1.00  0.00    -0.347 OA
BRANCH  25  26
HETATM   26  C21 UNK     1      30.298  -5.183  36.825  1.00  0.00     0.069 A 
HETATM   27  C22 UNK     1      31.064  -5.873  35.892  1.00  0.00     0.038 A 
HETATM   28  C24 UNK     1      32.238  -5.301  35.404  1.00  0.00     0.026 A 
HETATM   29  C26 UNK     1      32.639  -4.041  35.851  1.00  0.00     0.034 A 
HETATM   30  C25 UNK     1      31.865  -3.355  36.786  1.00  0.00     0.026 A 
HETATM   31 Cl1  UNK     1      34.087  -3.335  35.247  1.00  0.00    -0.084 Cl
HETATM   32  C23 UNK     1      30.691  -3.927  37.275  1.00  0.00     0.038 A 
ENDBRANCH  25  26
ENDBRANCH  24  25
ENDBRANCH  23  24
ENDBRANCH   5  18
BRANCH  11  33
HETATM   33  N1  UNK     1      31.667 -11.740  35.393  1.00  0.00    -0.379 N 
HETATM   34  H10 UNK     1      31.779 -12.117  36.325  1.00  0.00     0.158 HD
HETATM   35  H11 UNK     1      32.190 -12.131  34.619  1.00  0.00     0.158 HD
ENDBRANCH  11  33
TORSDOF 5
ENDMDL
MODEL 4
REMARK VINA RESULT:      -8.9      2.974      4.255
REMARK  5 active torsions:
REMARK  status: ('A' for Active; 'I' for Inactive)
REMARK    1  A    between atoms: C12_19  and  O3_4 
REMARK    2  A    between atoms: C21_28  and  O3_4 
REMARK    3  A    between atoms: C10_17  and  N1_6 
REMARK    4  A    between atoms: C1_8  and  C3_10 
REMARK    5  A    between atoms: C12_19  and  C5_12 
ROOT
HETATM    1  O1  UNK     1      32.171  -4.700  34.063  1.00  0.00    -0.269 OA
HETATM    2  O2  UNK     1      30.609  -5.129  32.370  1.00  0.00    -0.286 OA
HETATM    3  O4  UNK     1      28.182  -7.131  34.949  1.00  0.00    -0.287 OA
HETATM    4  N2  UNK     1      32.585  -5.060  38.849  1.00  0.00    -0.191 NA
HETATM    5  C1  UNK     1      30.676  -6.149  36.033  1.00  0.00     0.109 C 
HETATM    6  C2  UNK     1      30.232  -5.977  34.596  1.00  0.00     0.065 A 
HETATM    7  C4  UNK     1      31.881  -5.280  36.365  1.00  0.00     0.086 C 
HETATM    8  C6  UNK     1      30.968  -5.294  33.698  1.00  0.00     0.204 A 
HETATM    9  C7  UNK     1      28.927  -6.552  34.172  1.00  0.00     0.197 A 
HETATM   10  C8  UNK     1      28.572  -6.386  32.755  1.00  0.00     0.049 A 
HETATM   11  C10 UNK     1      32.559  -4.621  35.398  1.00  0.00     0.162 C 
HETATM   12  C11 UNK     1      29.437  -5.681  31.924  1.00  0.00     0.092 A 
HETATM   13  C16 UNK     1      27.386  -6.923  32.246  1.00  0.00     0.018 A 
HETATM   14  C17 UNK     1      29.124  -5.508  30.576  1.00  0.00     0.038 A 
HETATM   15  C18 UNK     1      32.270  -5.159  37.737  1.00  0.00     0.100 C 
HETATM   16  C19 UNK     1      27.075  -6.749  30.898  1.00  0.00     0.001 A 
HETATM   17  C20 UNK     1      27.941  -6.044  30.063  1.00  0.00     0.003 A 
ENDROOT
BRANCH   5  18
HETATM   18  C3  UNK     1      30.980  -7.591  36.319  1.00  0.00    -0.036 A 
HETATM   19  C9  UNK     1      31.890  -8.258  35.505  1.00  0.00     0.009 A 
HETATM   20  C14 UNK     1      32.187  -9.598  35.754  1.00  0.00     0.001 A 
HETATM   21  C15 UNK     1      31.574 -10.263  36.815  1.00  0.00     0.001 A 
HETATM   22  C13 UNK     1      30.662  -9.589  37.628  1.00  0.00     0.010 A 
HETATM   23  C5  UNK     1      30.365  -8.249  37.379  1.00  0.00    -0.027 A 
BRANCH  23  24
HETATM   24  C12 UNK     1      29.385  -7.548  38.262  1.00  0.00     0.215 C 
BRANCH  24  25
HETATM   25  O3  UNK     1      28.559  -8.509  38.904  1.00  0.00    -0.347 OA
BRANCH  25  26
HETATM   26  C21 UNK     1      27.282  -8.646  38.425  1.00  0.00     0.069 A 
HETATM   27  C22 UNK     1      26.247  -7.926  39.012  1.00  0.00     0.038 A 
HETATM   28  C24 UNK     1      24.947  -8.067  38.526  1.00  0.00     0.026 A 
HETATM   29  C26 UNK     1      24.691  -8.925  37.456  1.00  0.00     0.034 A 
HETATM   30  C25 UNK     1      25.734  -9.642  36.872  1.00  0.00     0.026 A 
HETATM   31 Cl1  UNK     1      23.088  -9.096  36.855  1.00  0.00    -0.084 Cl
HETATM   32  C23 UNK     1      27.035  -9.502  37.358  1.00  0.00     0.038 A 
ENDBRANCH  25  26
ENDBRANCH  24  25
ENDBRANCH  23  24
ENDBRANCH   5  18
BRANCH  11  33
HETATM   33  N1  UNK     1      33.658  -3.834  35.606  1.00  0.00    -0.379 N 
HETATM   34  H10 UNK     1      33.587  -2.965  36.120  1.00  0.00     0.158 HD
HETATM   35  H11 UNK     1      34.552  -4.136  35.239  1.00  0.00     0.158 HD
ENDBRANCH  11  33
TORSDOF 5
ENDMDL
MODEL 5
REMARK VINA RESULT:      -8.9      4.533      7.170
REMARK  5 active torsions:
REMARK  status: ('A' for Active; 'I' for Inactive)
REMARK    1  A    between atoms: C12_19  and  O3_4 
REMARK    2  A    between atoms: C21_28  and  O3_4 
REMARK    3  A    between atoms: C10_17  and  N1_6 
REMARK    4  A    between atoms: C1_8  and  C3_10 
REMARK    5  A    between atoms: C12_19  and  C5_12 
ROOT
HETATM    1  O1  UNK     1      30.601  -8.667  38.168  1.00  0.00    -0.269 OA
HETATM    2  O2  UNK     1      32.523  -7.422  37.670  1.00  0.00    -0.286 OA
HETATM    3  O4  UNK     1      31.624  -7.394  33.702  1.00  0.00    -0.287 OA
HETATM    4  N2  UNK     1      26.557 -10.182  36.033  1.00  0.00    -0.191 NA
HETATM    5  C1  UNK     1      29.820  -8.864  35.418  1.00  0.00     0.109 C 
HETATM    6  C2  UNK     1      31.055  -8.129  35.892  1.00  0.00     0.065 A 
HETATM    7  C4  UNK     1      28.927  -9.286  36.577  1.00  0.00     0.086 C 
HETATM    8  C6  UNK     1      31.392  -8.067  37.195  1.00  0.00     0.204 A 
HETATM    9  C7  UNK     1      31.904  -7.428  34.893  1.00  0.00     0.197 A 
HETATM   10  C8  UNK     1      33.111  -6.768  35.411  1.00  0.00     0.049 A 
HETATM   11  C10 UNK     1      29.344  -9.181  37.858  1.00  0.00     0.162 C 
HETATM   12  C11 UNK     1      33.359  -6.802  36.780  1.00  0.00     0.092 A 
HETATM   13  C16 UNK     1      33.997  -6.115  34.550  1.00  0.00     0.018 A 
HETATM   14  C17 UNK     1      34.496  -6.183  37.298  1.00  0.00     0.038 A 
HETATM   15  C18 UNK     1      27.618  -9.781  36.277  1.00  0.00     0.100 C 
HETATM   16  C19 UNK     1      35.133  -5.496  35.070  1.00  0.00     0.001 A 
HETATM   17  C20 UNK     1      35.384  -5.530  36.442  1.00  0.00     0.003 A 
ENDROOT
BRANCH   5  18
HETATM   18  C3  UNK     1      30.203 -10.059  34.594  1.00  0.00    -0.036 A 
HETATM   19  C9  UNK     1      31.175 -10.926  35.085  1.00  0.00     0.009 A 
HETATM   20  C14 UNK     1      31.546 -12.043  34.336  1.00  0.00     0.001 A 
HETATM   21  C15 UNK     1      30.944 -12.287  33.102  1.00  0.00     0.001 A 
HETATM   22  C13 UNK     1      29.970 -11.414  32.616  1.00  0.00     0.010 A 
HETATM   23  C5  UNK     1      29.599 -10.298  33.365  1.00  0.00    -0.027 A 
BRANCH  23  24
HETATM   24  C12 UNK     1      28.555  -9.376  32.823  1.00  0.00     0.215 C 
BRANCH  24  25
HETATM   25  O3  UNK     1      28.956  -8.913  31.540  1.00  0.00    -0.347 OA
BRANCH  25  26
HETATM   26  C21 UNK     1      29.215  -7.574  31.420  1.00  0.00     0.069 A 
HETATM   27  C22 UNK     1      28.594  -6.672  32.277  1.00  0.00     0.038 A 
HETATM   28  C24 UNK     1      28.855  -5.309  32.153  1.00  0.00     0.026 A 
HETATM   29  C26 UNK     1      29.739  -4.854  31.173  1.00  0.00     0.034 A 
HETATM   30  C25 UNK     1      30.359  -5.763  30.317  1.00  0.00     0.026 A 
HETATM   31 Cl1  UNK     1      30.064  -3.171  31.021  1.00  0.00    -0.084 Cl
HETATM   32  C23 UNK     1      30.096  -7.128  30.441  1.00  0.00     0.038 A 
ENDBRANCH  25  26
ENDBRANCH  24  25
ENDBRANCH  23  24
ENDBRANCH   5  18
BRANCH  11  33
HETATM   33  N1  UNK     1      28.615  -9.550  38.955  1.00  0.00    -0.379 N 
HETATM   34  H10 UNK     1      28.411 -10.523  39.142  1.00  0.00     0.158 HD
HETATM   35  H11 UNK     1      28.281  -8.831  39.584  1.00  0.00     0.158 HD
ENDBRANCH  11  33
TORSDOF 5
ENDMDL
MODEL 6
REMARK VINA RESULT:      -8.7      1.897      2.254
REMARK  5 active torsions:
REMARK  status: ('A' for Active; 'I' for Inactive)
REMARK    1  A    between atoms: C12_19  and  O3_4 
REMARK    2  A    between atoms: C21_28  and  O3_4 
REMARK    3  A    between atoms: C10_17  and  N1_6 
REMARK    4  A    between atoms: C1_8  and  C3_10 
REMARK    5  A    between atoms: C12_19  and  C5_12 
ROOT
HETATM    1  O1  UNK     1      31.616  -5.102  35.261  1.00  0.00    -0.269 OA
HETATM    2  O2  UNK     1      31.107  -6.170  33.238  1.00  0.00    -0.286 OA
HETATM    3  O4  UNK     1      27.727  -7.800  34.811  1.00  0.00    -0.287 OA
HETATM    4  N2  UNK     1      29.594  -4.185  39.536  1.00  0.00    -0.191 NA
HETATM    5  C1  UNK     1      29.346  -6.217  36.608  1.00  0.00     0.109 C 
HETATM    6  C2  UNK     1      29.675  -6.479  35.155  1.00  0.00     0.065 A 
HETATM    7  C4  UNK     1      30.222  -5.123  37.203  1.00  0.00     0.086 C 
HETATM    8  C6  UNK     1      30.758  -5.942  34.560  1.00  0.00     0.204 A 
HETATM    9  C7  UNK     1      28.758  -7.330  34.350  1.00  0.00     0.197 A 
HETATM   10  C8  UNK     1      29.155  -7.580  32.957  1.00  0.00     0.049 A 
HETATM   11  C10 UNK     1      31.287  -4.634  36.531  1.00  0.00     0.162 C 
HETATM   12  C11 UNK     1      30.315  -6.985  32.473  1.00  0.00     0.092 A 
HETATM   13  C16 UNK     1      28.382  -8.398  32.128  1.00  0.00     0.018 A 
HETATM   14  C17 UNK     1      30.714  -7.204  31.155  1.00  0.00     0.038 A 
HETATM   15  C18 UNK     1      29.875  -4.604  38.492  1.00  0.00     0.100 C 
HETATM   16  C19 UNK     1      28.782  -8.616  30.810  1.00  0.00     0.001 A 
HETATM   17  C20 UNK     1      29.946  -8.022  30.323  1.00  0.00     0.003 A 
ENDROOT
BRANCH   5  18
HETATM   18  C3  UNK     1      29.474  -7.479  37.412  1.00  0.00    -0.036 A 
HETATM   19  C9  UNK     1      30.678  -8.175  37.379  1.00  0.00     0.009 A 
HETATM   20  C14 UNK     1      30.818  -9.350  38.117  1.00  0.00     0.001 A 
HETATM   21  C15 UNK     1      29.755  -9.822  38.886  1.00  0.00     0.001 A 
HETATM   22  C13 UNK     1      28.549  -9.120  38.915  1.00  0.00     0.010 A 
HETATM   23  C5  UNK     1      28.409  -7.945  38.176  1.00  0.00    -0.027 A 
BRANCH  23  24
HETATM   24  C12 UNK     1      27.109  -7.211  38.221  1.00  0.00     0.215 C 
BRANCH  24  25
HETATM   25  O3  UNK     1      26.188  -7.934  39.027  1.00  0.00    -0.347 OA
BRANCH  25  26
HETATM   26  C21 UNK     1      24.951  -8.172  38.489  1.00  0.00     0.069 A 
HETATM   27  C22 UNK     1      24.835  -8.971  37.356  1.00  0.00     0.038 A 
HETATM   28  C24 UNK     1      23.577  -9.212  36.807  1.00  0.00     0.026 A 
HETATM   29  C26 UNK     1      22.440  -8.655  37.396  1.00  0.00     0.034 A 
HETATM   30  C25 UNK     1      22.564  -7.856  38.532  1.00  0.00     0.026 A 
HETATM   31 Cl1  UNK     1      20.887  -8.955  36.720  1.00  0.00    -0.084 Cl
HETATM   32  C23 UNK     1      23.823  -7.614  39.080  1.00  0.00     0.038 A 
ENDBRANCH  25  26
ENDBRANCH  24  25
ENDBRANCH  23  24
ENDBRANCH   5  18
BRANCH  11  33
HETATM   33  N1  UNK     1      32.133  -3.665  36.996  1.00  0.00    -0.379 N 
HETATM   34  H10 UNK     1      31.784  -2.885  37.537  1.00  0.00     0.158 HD
HETATM   35  H11 UNK     1      33.122  -3.741  36.792  1.00  0.00     0.158 HD
ENDBRANCH  11  33
TORSDOF 5
ENDMDL
MODEL 7
REMARK VINA RESULT:      -8.7      5.170      9.742
REMARK  5 active torsions:
REMARK  status: ('A' for Active; 'I' for Inactive)
REMARK    1  A    between atoms: C12_19  and  O3_4 
REMARK    2  A    between atoms: C21_28  and  O3_4 
REMARK    3  A    between atoms: C10_17  and  N1_6 
REMARK    4  A    between atoms: C1_8  and  C3_10 
REMARK    5  A    between atoms: C12_19  and  C5_12 
ROOT
HETATM    1  O1  UNK     1      30.647  -4.205  37.215  1.00  0.00    -0.269 OA
HETATM    2  O2  UNK     1      29.353  -5.823  38.310  1.00  0.00    -0.286 OA
HETATM    3  O4  UNK     1      31.351  -8.847  36.463  1.00  0.00    -0.287 OA
HETATM    4  N2  UNK     1      34.594  -3.908  34.468  1.00  0.00    -0.191 NA
HETATM    5  C1  UNK     1      32.121  -6.160  35.725  1.00  0.00     0.109 C 
HETATM    6  C2  UNK     1      31.039  -6.503  36.726  1.00  0.00     0.065 A 
HETATM    7  C4  UNK     1      32.490  -4.683  35.769  1.00  0.00     0.086 C 
HETATM    8  C6  UNK     1      30.363  -5.553  37.401  1.00  0.00     0.204 A 
HETATM    9  C7  UNK     1      30.735  -7.934  36.996  1.00  0.00     0.197 A 
HETATM   10  C8  UNK     1      29.647  -8.201  37.947  1.00  0.00     0.049 A 
HETATM   11  C10 UNK     1      31.759  -3.798  36.481  1.00  0.00     0.162 C 
HETATM   12  C11 UNK     1      29.009  -7.125  38.556  1.00  0.00     0.092 A 
HETATM   13  C16 UNK     1      29.257  -9.511  38.240  1.00  0.00     0.018 A 
HETATM   14  C17 UNK     1      27.973  -7.350  39.463  1.00  0.00     0.038 A 
HETATM   15  C18 UNK     1      33.652  -4.255  35.051  1.00  0.00     0.100 C 
HETATM   16  C19 UNK     1      28.221  -9.734  39.148  1.00  0.00     0.001 A 
HETATM   17  C20 UNK     1      27.579  -8.656  39.758  1.00  0.00     0.003 A 
ENDROOT
BRANCH   5  18
HETATM   18  C3  UNK     1      31.697  -6.548  34.338  1.00  0.00    -0.036 A 
HETATM   19  C9  UNK     1      30.506  -6.035  33.834  1.00  0.00     0.009 A 
HETATM   20  C14 UNK     1      30.093  -6.383  32.548  1.00  0.00     0.001 A 
HETATM   21  C15 UNK     1      30.872  -7.241  31.773  1.00  0.00     0.001 A 
HETATM   22  C13 UNK     1      32.066  -7.753  32.285  1.00  0.00     0.010 A 
HETATM   23  C5  UNK     1      32.478  -7.405  33.571  1.00  0.00    -0.027 A 
BRANCH  23  24
HETATM   24  C12 UNK     1      33.759  -7.966  34.098  1.00  0.00     0.215 C 
BRANCH  24  25
HETATM   25  O3  UNK     1      34.849  -7.409  33.376  1.00  0.00    -0.347 OA
BRANCH  25  26
HETATM   26  C21 UNK     1      35.717  -8.292  32.790  1.00  0.00     0.069 A 
HETATM   27  C22 UNK     1      35.510  -8.692  31.474  1.00  0.00     0.038 A 
HETATM   28  C24 UNK     1      36.392  -9.592  30.879  1.00  0.00     0.026 A 
HETATM   29  C26 UNK     1      37.479 -10.086  31.602  1.00  0.00     0.034 A 
HETATM   30  C25 UNK     1      37.681  -9.680  32.921  1.00  0.00     0.026 A 
HETATM   31 Cl1  UNK     1      38.569 -11.195  30.867  1.00  0.00    -0.084 Cl
HETATM   32  C23 UNK     1      36.798  -8.780  33.517  1.00  0.00     0.038 A 
ENDBRANCH  25  26
ENDBRANCH  24  25
ENDBRANCH  23  24
ENDBRANCH   5  18
BRANCH  11  33
HETATM   33  N1  UNK     1      32.010  -2.456  36.562  1.00  0.00    -0.379 N 
HETATM   34  H10 UNK     1      31.303  -1.812  36.893  1.00  0.00     0.158 HD
HETATM   35  H11 UNK     1      32.922  -2.112  36.288  1.00  0.00     0.158 HD
ENDBRANCH  11  33
TORSDOF 5
ENDMDL
MODEL 8
REMARK VINA RESULT:      -8.7      5.149      8.457
REMARK  5 active torsions:
REMARK  status: ('A' for Active; 'I' for Inactive)
REMARK    1  A    between atoms: C12_19  and  O3_4 
REMARK    2  A    between atoms: C21_28  and  O3_4 
REMARK    3  A    between atoms: C10_17  and  N1_6 
REMARK    4  A    between atoms: C1_8  and  C3_10 
REMARK    5  A    between atoms: C12_19  and  C5_12 
ROOT
HETATM    1  O1  UNK     1      33.061  -5.874  34.485  1.00  0.00    -0.269 OA
HETATM    2  O2  UNK     1      31.807  -5.200  36.346  1.00  0.00    -0.286 OA
HETATM    3  O4  UNK     1      28.775  -7.732  35.371  1.00  0.00    -0.287 OA
HETATM    4  N2  UNK     1      33.012  -9.261  31.059  1.00  0.00    -0.191 NA
HETATM    5  C1  UNK     1      31.017  -7.652  33.549  1.00  0.00     0.109 C 
HETATM    6  C2  UNK     1      30.900  -6.822  34.809  1.00  0.00     0.065 A 
HETATM    7  C4  UNK     1      32.423  -7.606  32.965  1.00  0.00     0.086 C 
HETATM    8  C6  UNK     1      31.881  -5.992  35.211  1.00  0.00     0.204 A 
HETATM    9  C7  UNK     1      29.677  -6.953  35.646  1.00  0.00     0.197 A 
HETATM   10  C8  UNK     1      29.606  -6.091  36.834  1.00  0.00     0.049 A 
HETATM   11  C10 UNK     1      33.351  -6.744  33.437  1.00  0.00     0.162 C 
HETATM   12  C11 UNK     1      30.680  -5.254  37.122  1.00  0.00     0.092 A 
HETATM   13  C16 UNK     1      28.482  -6.108  37.665  1.00  0.00     0.018 A 
HETATM   14  C17 UNK     1      30.638  -4.427  38.244  1.00  0.00     0.038 A 
HETATM   15  C18 UNK     1      32.748  -8.521  31.912  1.00  0.00     0.100 C 
HETATM   16  C19 UNK     1      28.443  -5.280  38.787  1.00  0.00     0.001 A 
HETATM   17  C20 UNK     1      29.518  -4.440  39.076  1.00  0.00     0.003 A 
ENDROOT
BRANCH   5  18
HETATM   18  C3  UNK     1      30.016  -7.199  32.526  1.00  0.00    -0.036 A 
HETATM   19  C9  UNK     1      30.038  -5.872  32.109  1.00  0.00     0.009 A 
HETATM   20  C14 UNK     1      29.115  -5.430  31.160  1.00  0.00     0.001 A 
HETATM   21  C15 UNK     1      28.178  -6.317  30.633  1.00  0.00     0.001 A 
HETATM   22  C13 UNK     1      28.161  -7.647  31.055  1.00  0.00     0.010 A 
HETATM   23  C5  UNK     1      29.083  -8.088  32.004  1.00  0.00    -0.027 A 
BRANCH  23  24
HETATM   24  C12 UNK     1      29.045  -9.516  32.442  1.00  0.00     0.215 C 
BRANCH  24  25
HETATM   25  O3  UNK     1      29.693 -10.324  31.468  1.00  0.00    -0.347 OA
BRANCH  25  26
HETATM   26  C21 UNK     1      30.257 -11.492  31.910  1.00  0.00     0.069 A 
HETATM   27  C22 UNK     1      30.224 -12.621  31.099  1.00  0.00     0.038 A 
HETATM   28  C24 UNK     1      30.795 -13.811  31.549  1.00  0.00     0.026 A 
HETATM   29  C26 UNK     1      31.399 -13.863  32.807  1.00  0.00     0.034 A 
HETATM   30  C25 UNK     1      31.429 -12.726  33.613  1.00  0.00     0.026 A 
HETATM   31 Cl1  UNK     1      32.106 -15.330  33.361  1.00  0.00    -0.084 Cl
HETATM   32  C23 UNK     1      30.856 -11.537  33.164  1.00  0.00     0.038 A 
ENDBRANCH  25  26
ENDBRANCH  24  25
ENDBRANCH  23  24
ENDBRANCH   5  18
BRANCH  11  33
HETATM   33  N1  UNK     1      34.628  -6.627  32.962  1.00  0.00    -0.379 N 
HETATM   34  H10 UNK     1      35.400  -7.090  33.424  1.00  0.00     0.158 HD
HETATM   35  H11 UNK     1      34.792  -6.068  32.133  1.00  0.00     0.158 HD
ENDBRANCH  11  33
TORSDOF 5
ENDMDL
MODEL 9
REMARK VINA RESULT:      -8.7      5.021      7.947
REMARK  5 active torsions:
REMARK  status: ('A' for Active; 'I' for Inactive)
REMARK    1  A    between atoms: C12_19  and  O3_4 
REMARK    2  A    between atoms: C21_28  and  O3_4 
REMARK    3  A    between atoms: C10_17  and  N1_6 
REMARK    4  A    between atoms: C1_8  and  C3_10 
REMARK    5  A    between atoms: C12_19  and  C5_12 
ROOT
HETATM    1  O1  UNK     1      27.575  -8.765  35.284  1.00  0.00    -0.269 OA
HETATM    2  O2  UNK     1      27.820  -7.538  33.302  1.00  0.00    -0.286 OA
HETATM    3  O4  UNK     1      31.451  -6.130  34.481  1.00  0.00    -0.287 OA
HETATM    4  N2  UNK     1      30.168 -10.094  39.120  1.00  0.00    -0.191 NA
HETATM    5  C1  UNK     1      30.057  -7.823  36.364  1.00  0.00     0.109 C 
HETATM    6  C2  UNK     1      29.527  -7.429  35.002  1.00  0.00     0.065 A 
HETATM    7  C4  UNK     1      29.239  -8.944  36.992  1.00  0.00     0.086 C 
HETATM    8  C6  UNK     1      28.351  -7.888  34.534  1.00  0.00     0.204 A 
HETATM    9  C7  UNK     1      30.347  -6.534  34.142  1.00  0.00     0.197 A 
HETATM   10  C8  UNK     1      29.759  -6.156  32.849  1.00  0.00     0.049 A 
HETATM   11  C10 UNK     1      28.069  -9.348  36.448  1.00  0.00     0.162 C 
HETATM   12  C11 UNK     1      28.520  -6.680  32.497  1.00  0.00     0.092 A 
HETATM   13  C16 UNK     1      30.431  -5.288  31.984  1.00  0.00     0.018 A 
HETATM   14  C17 UNK     1      27.940  -6.338  31.275  1.00  0.00     0.038 A 
HETATM   15  C18 UNK     1      29.752  -9.580  38.167  1.00  0.00     0.100 C 
HETATM   16  C19 UNK     1      29.850  -4.947  30.762  1.00  0.00     0.001 A 
HETATM   17  C20 UNK     1      28.606  -5.470  30.408  1.00  0.00     0.003 A 
ENDROOT
BRANCH   5  18
HETATM   18  C3  UNK     1      30.094  -6.633  37.278  1.00  0.00    -0.036 A 
HETATM   19  C9  UNK     1      28.933  -5.885  37.450  1.00  0.00     0.009 A 
HETATM   20  C14 UNK     1      28.946  -4.774  38.295  1.00  0.00     0.001 A 
HETATM   21  C15 UNK     1      30.117  -4.419  38.963  1.00  0.00     0.001 A 
HETATM   22  C13 UNK     1      31.277  -5.173  38.786  1.00  0.00     0.010 A 
HETATM   23  C5  UNK     1      31.265  -6.283  37.941  1.00  0.00    -0.027 A 
BRANCH  23  24
HETATM   24  C12 UNK     1      32.520  -7.075  37.765  1.00  0.00     0.215 C 
BRANCH  24  25
HETATM   25  O3  UNK     1      33.611  -6.187  37.559  1.00  0.00    -0.347 OA
BRANCH  25  26
HETATM   26  C21 UNK     1      34.160  -6.165  36.304  1.00  0.00     0.069 A 
HETATM   27  C22 UNK     1      34.464  -7.362  35.665  1.00  0.00     0.038 A 
HETATM   28  C24 UNK     1      35.025  -7.340  34.389  1.00  0.00     0.026 A 
HETATM   29  C26 UNK     1      35.278  -6.120  33.759  1.00  0.00     0.034 A 
HETATM   30  C25 UNK     1      34.970  -4.924  34.406  1.00  0.00     0.026 A 
HETATM   31 Cl1  UNK     1      35.969  -6.092  32.183  1.00  0.00    -0.084 Cl
HETATM   32  C23 UNK     1      34.409  -4.946  35.683  1.00  0.00     0.038 A 
ENDBRANCH  25  26
ENDBRANCH  24  25
ENDBRANCH  23  24
ENDBRANCH   5  18
BRANCH  11  33
HETATM   33  N1  UNK     1      27.266 -10.333  36.953  1.00  0.00    -0.379 N 
HETATM   34  H10 UNK     1      27.384 -11.298  36.670  1.00  0.00     0.158 HD
HETATM   35  H11 UNK     1      26.548 -10.084  37.622  1.00  0.00     0.158 HD
ENDBRANCH  11  33
TORSDOF 5
ENDMDL
MODEL 10
REMARK VINA RESULT:      -8.6      4.370      7.997
REMARK  5 active torsions:
REMARK  status: ('A' for Active; 'I' for Inactive)
REMARK    1  A    between atoms: C12_19  and  O3_4 
REMARK    2  A    between atoms: C21_28  and  O3_4 
REMARK    3  A    between atoms: C10_17  and  N1_6 
REMARK    4  A    between atoms: C1_8  and  C3_10 
REMARK    5  A    between atoms: C12_19  and  C5_12 
ROOT
HETATM    1  O1  UNK     1      31.632 -10.504  35.783  1.00  0.00    -0.269 OA
HETATM    2  O2  UNK     1      30.077 -10.107  37.491  1.00  0.00    -0.286 OA
HETATM    3  O4  UNK     1      28.783  -6.698  35.686  1.00  0.00    -0.287 OA
HETATM    4  N2  UNK     1      32.775  -8.849  31.406  1.00  0.00    -0.191 NA
HETATM    5  C1  UNK     1      30.955  -8.095  34.386  1.00  0.00     0.109 C 
HETATM    6  C2  UNK     1      30.291  -8.538  35.672  1.00  0.00     0.065 A 
HETATM    7  C4  UNK     1      31.853  -9.179  33.805  1.00  0.00     0.086 C 
HETATM    8  C6  UNK     1      30.644  -9.675  36.303  1.00  0.00     0.204 A 
HETATM    9  C7  UNK     1      29.194  -7.709  36.239  1.00  0.00     0.197 A 
HETATM   10  C8  UNK     1      28.619  -8.171  37.510  1.00  0.00     0.049 A 
HETATM   11  C10 UNK     1      32.149 -10.295  34.507  1.00  0.00     0.162 C 
HETATM   12  C11 UNK     1      29.095  -9.351  38.073  1.00  0.00     0.092 A 
HETATM   13  C16 UNK     1      27.609  -7.443  38.146  1.00  0.00     0.018 A 
HETATM   14  C17 UNK     1      28.565  -9.813  39.278  1.00  0.00     0.038 A 
HETATM   15  C18 UNK     1      32.362  -8.997  32.479  1.00  0.00     0.100 C 
HETATM   16  C19 UNK     1      27.081  -7.906  39.351  1.00  0.00     0.001 A 
HETATM   17  C20 UNK     1      27.558  -9.088  39.918  1.00  0.00     0.003 A 
ENDROOT
BRANCH   5  18
HETATM   18  C3  UNK     1      31.738  -6.834  34.606  1.00  0.00    -0.036 A 
HETATM   19  C9  UNK     1      32.821  -6.862  35.481  1.00  0.00     0.009 A 
HETATM   20  C14 UNK     1      33.562  -5.701  35.700  1.00  0.00     0.001 A 
HETATM   21  C15 UNK     1      33.219  -4.519  35.044  1.00  0.00     0.001 A 
HETATM   22  C13 UNK     1      32.133  -4.497  34.169  1.00  0.00     0.010 A 
HETATM   23  C5  UNK     1      31.391  -5.658  33.950  1.00  0.00    -0.027 A 
BRANCH  23  24
HETATM   24  C12 UNK     1      30.231  -5.611  33.009  1.00  0.00     0.215 C 
BRANCH  24  25
HETATM   25  O3  UNK     1      30.690  -5.846  31.684  1.00  0.00    -0.347 OA
BRANCH  25  26
HETATM   26  C21 UNK     1      30.006  -6.778  30.950  1.00  0.00     0.069 A 
HETATM   27  C22 UNK     1      28.885  -7.395  31.493  1.00  0.00     0.038 A 
HETATM   28  C24 UNK     1      28.189  -8.345  30.747  1.00  0.00     0.026 A 
HETATM   29  C26 UNK     1      28.618  -8.672  29.460  1.00  0.00     0.034 A 
HETATM   30  C25 UNK     1      29.743  -8.049  28.921  1.00  0.00     0.026 A 
HETATM   31 Cl1  UNK     1      27.759  -9.842  28.538  1.00  0.00    -0.084 Cl
HETATM   32  C23 UNK     1      30.440  -7.099  29.668  1.00  0.00     0.038 A 
ENDBRANCH  25  26
ENDBRANCH  24  25
ENDBRANCH  23  24
ENDBRANCH   5  18
BRANCH  11  33
HETATM   33  N1  UNK     1      32.957 -11.308  34.068  1.00  0.00    -0.379 N 
HETATM   34  H10 UNK     1      33.710 -11.129  33.416  1.00  0.00     0.158 HD
HETATM   35  H11 UNK     1      32.793 -12.247  34.410  1.00  0.00     0.158 HD
ENDBRANCH  11  33
TORSDOF 5
ENDMDL
