MODEL 1
REMARK VINA RESULT:      -8.8      0.000      0.000
REMARK  6 active torsions:
REMARK  status: ('A' for Active; 'I' for Inactive)
REMARK    1  A    between atoms: C1_6  and  O1_3 
REMARK    2  A    between atoms: C4_9  and  O1_3 
REMARK    3  A    between atoms: C3_8  and  O2_4 
REMARK    4  A    between atoms: C2_7  and  C9_14 
REMARK    5  A    between atoms: C4_9  and  C6_11 
REMARK    6  A    between atoms: C10_15  and  C11_16 
ROOT
HETATM    1  N1  UNK     1      15.403   6.689  32.044  1.00  0.00    -0.191 NA
HETATM    2  C9  UNK     1      18.754   6.513  32.837  1.00  0.00     0.036 C 
HETATM    3  C10 UNK     1      17.742   7.418  32.914  1.00  0.00     0.055 C 
HETATM    4  C23 UNK     1      16.451   7.006  32.429  1.00  0.00     0.100 C 
ENDROOT
BRANCH   3   5
HETATM    5  C11 UNK     1      17.893   8.759  33.459  1.00  0.00    -0.015 A 
HETATM    6  C16 UNK     1      16.777   9.580  33.615  1.00  0.00     0.013 A 
HETATM    7  C19 UNK     1      16.922  10.864  34.139  1.00  0.00     0.001 A 
HETATM    8  C21 UNK     1      18.185  11.326  34.508  1.00  0.00     0.000 A 
HETATM    9  C20 UNK     1      19.302  10.506  34.353  1.00  0.00     0.001 A 
HETATM   10  C17 UNK     1      19.156   9.221  33.829  1.00  0.00     0.013 A 
ENDBRANCH   3   5
BRANCH   2  11
HETATM   11  C2  UNK     1      18.644   5.149  32.302  1.00  0.00    -0.015 A 
HETATM   12  C5  UNK     1      18.186   4.163  33.168  1.00  0.00     0.052 A 
HETATM   13  C3  UNK     1      18.062   2.850  32.713  1.00  0.00     0.102 A 
HETATM   14  C1  UNK     1      18.397   2.534  31.396  1.00  0.00     0.103 A 
HETATM   15  C7  UNK     1      18.854   3.531  30.534  1.00  0.00     0.059 A 
HETATM   16  C8  UNK     1      18.978   4.844  30.989  1.00  0.00     0.024 A 
HETATM   17 Br1  UNK     1      19.609   6.152  29.763  1.00  0.00    -0.050 Br
BRANCH  13  18
HETATM   18  O2  UNK     1      17.614   1.886  33.564  1.00  0.00    -0.353 OA
HETATM   19  C22 UNK     1      18.207   1.841  34.861  1.00  0.00     0.210 C 
ENDBRANCH  13  18
BRANCH  14  20
HETATM   20  O1  UNK     1      18.280   1.256  30.940  1.00  0.00    -0.344 OA
BRANCH  20  21
HETATM   21  C4  UNK     1      19.247   0.816  29.988  1.00  0.00     0.214 C 
BRANCH  21  22
HETATM   22  C6  UNK     1      19.808  -0.502  30.433  1.00  0.00    -0.034 A 
HETATM   23  C12 UNK     1      19.747  -0.858  31.776  1.00  0.00     0.011 A 
HETATM   24  C14 UNK     1      20.268  -2.084  32.189  1.00  0.00     0.024 A 
HETATM   25  C18 UNK     1      20.847  -2.946  31.257  1.00  0.00     0.034 A 
HETATM   26  C15 UNK     1      20.906  -2.581  29.912  1.00  0.00     0.024 A 
HETATM   27 Cl1  UNK     1      21.490  -4.458  31.768  1.00  0.00    -0.084 Cl
HETATM   28  C13 UNK     1      20.385  -1.355  29.499  1.00  0.00     0.011 A 
ENDBRANCH  21  22
ENDBRANCH  20  21
ENDBRANCH  14  20
ENDBRANCH   2  11
TORSDOF 6
ENDMDL
MODEL 2
REMARK VINA RESULT:      -8.7      4.499      9.949
REMARK  6 active torsions:
REMARK  status: ('A' for Active; 'I' for Inactive)
REMARK    1  A    between atoms: C1_6  and  O1_3 
REMARK    2  A    between atoms: C4_9  and  O1_3 
REMARK    3  A    between atoms: C3_8  and  O2_4 
REMARK    4  A    between atoms: C2_7  and  C9_14 
REMARK    5  A    between atoms: C4_9  and  C6_11 
REMARK    6  A    between atoms: C10_15  and  C11_16 
ROOT
HETATM    1  N1  UNK     1      17.901   2.360  33.601  1.00  0.00    -0.191 NA
HETATM    2  C9  UNK     1      18.722   4.292  30.866  1.00  0.00     0.036 C 
HETATM    3  C10 UNK     1      18.602   2.973  31.174  1.00  0.00     0.055 C 
HETATM    4  C23 UNK     1      18.214   2.643  32.520  1.00  0.00     0.100 C 
ENDROOT
BRANCH   3   5
HETATM    5  C11 UNK     1      18.835   1.895  30.225  1.00  0.00    -0.015 A 
HETATM    6  C16 UNK     1      18.064   1.804  29.066  1.00  0.00     0.013 A 
HETATM    7  C19 UNK     1      18.291   0.772  28.156  1.00  0.00     0.001 A 
HETATM    8  C21 UNK     1      19.288  -0.170  28.406  1.00  0.00     0.000 A 
HETATM    9  C20 UNK     1      20.060  -0.080  29.564  1.00  0.00     0.001 A 
HETATM   10  C17 UNK     1      19.833   0.953  30.474  1.00  0.00     0.013 A 
ENDBRANCH   3   5
BRANCH   2  11
HETATM   11  C2  UNK     1      18.489   5.411  31.789  1.00  0.00    -0.015 A 
HETATM   12  C5  UNK     1      17.175   5.665  32.159  1.00  0.00     0.052 A 
HETATM   13  C3  UNK     1      16.896   6.716  33.034  1.00  0.00     0.102 A 
HETATM   14  C1  UNK     1      17.934   7.504  33.530  1.00  0.00     0.103 A 
HETATM   15  C7  UNK     1      19.251   7.242  33.152  1.00  0.00     0.059 A 
HETATM   16  C8  UNK     1      19.530   6.191  32.278  1.00  0.00     0.024 A 
HETATM   17 Br1  UNK     1      21.345   5.889  31.803  1.00  0.00    -0.050 Br
BRANCH  13  18
HETATM   18  O2  UNK     1      15.606   6.962  33.395  1.00  0.00    -0.353 OA
HETATM   19  C22 UNK     1      14.709   7.361  32.360  1.00  0.00     0.210 C 
ENDBRANCH  13  18
BRANCH  14  20
HETATM   20  O1  UNK     1      17.675   8.533  34.384  1.00  0.00    -0.344 OA
BRANCH  20  21
HETATM   21  C4  UNK     1      17.639   9.846  33.826  1.00  0.00     0.214 C 
BRANCH  21  22
HETATM   22  C6  UNK     1      16.553  10.634  34.497  1.00  0.00    -0.034 A 
HETATM   23  C12 UNK     1      15.414   9.983  34.958  1.00  0.00     0.011 A 
HETATM   24  C14 UNK     1      14.405  10.716  35.584  1.00  0.00     0.024 A 
HETATM   25  C18 UNK     1      14.542  12.095  35.744  1.00  0.00     0.034 A 
HETATM   26  C15 UNK     1      15.687  12.741  35.279  1.00  0.00     0.024 A 
HETATM   27 Cl1  UNK     1      13.298  12.999  36.515  1.00  0.00    -0.084 Cl
HETATM   28  C13 UNK     1      16.696  12.008  34.653  1.00  0.00     0.011 A 
ENDBRANCH  21  22
ENDBRANCH  20  21
ENDBRANCH  14  20
ENDBRANCH   2  11
TORSDOF 6
ENDMDL
MODEL 3
REMARK VINA RESULT:      -8.4      1.409      2.063
REMARK  6 active torsions:
REMARK  status: ('A' for Active; 'I' for Inactive)
REMARK    1  A    between atoms: C1_6  and  O1_3 
REMARK    2  A    between atoms: C4_9  and  O1_3 
REMARK    3  A    between atoms: C3_8  and  O2_4 
REMARK    4  A    between atoms: C2_7  and  C9_14 
REMARK    5  A    between atoms: C4_9  and  C6_11 
REMARK    6  A    between atoms: C10_15  and  C11_16 
ROOT
HETATM    1  N1  UNK     1      21.718   6.085  32.710  1.00  0.00    -0.191 NA
HETATM    2  C9  UNK     1      18.277   6.226  32.860  1.00  0.00     0.036 C 
HETATM    3  C10 UNK     1      19.335   7.035  33.131  1.00  0.00     0.055 C 
HETATM    4  C23 UNK     1      20.650   6.501  32.896  1.00  0.00     0.100 C 
ENDROOT
BRANCH   3   5
HETATM    5  C11 UNK     1      19.208   8.395  33.633  1.00  0.00    -0.015 A 
HETATM    6  C16 UNK     1      20.297   9.021  34.239  1.00  0.00     0.013 A 
HETATM    7  C19 UNK     1      20.175  10.325  34.717  1.00  0.00     0.001 A 
HETATM    8  C21 UNK     1      18.963  11.003  34.589  1.00  0.00     0.000 A 
HETATM    9  C20 UNK     1      17.874  10.379  33.983  1.00  0.00     0.001 A 
HETATM   10  C17 UNK     1      17.996   9.074  33.504  1.00  0.00     0.013 A 
ENDBRANCH   3   5
BRANCH   2  11
HETATM   11  C2  UNK     1      18.359   4.851  32.346  1.00  0.00    -0.015 A 
HETATM   12  C5  UNK     1      18.119   3.822  33.248  1.00  0.00     0.052 A 
HETATM   13  C3  UNK     1      18.183   2.497  32.814  1.00  0.00     0.102 A 
HETATM   14  C1  UNK     1      18.487   2.214  31.483  1.00  0.00     0.103 A 
HETATM   15  C7  UNK     1      18.725   3.254  30.585  1.00  0.00     0.059 A 
HETATM   16  C8  UNK     1      18.661   4.579  31.018  1.00  0.00     0.024 A 
HETATM   17 Br1  UNK     1      18.998   5.947  29.744  1.00  0.00    -0.050 Br
BRANCH  13  18
HETATM   18  O2  UNK     1      17.948   1.490  33.701  1.00  0.00    -0.353 OA
HETATM   19  C22 UNK     1      18.347   1.713  35.052  1.00  0.00     0.210 C 
ENDBRANCH  13  18
BRANCH  14  20
HETATM   20  O1  UNK     1      18.553   0.925  31.047  1.00  0.00    -0.344 OA
BRANCH  20  21
HETATM   21  C4  UNK     1      19.670   0.571  30.233  1.00  0.00     0.214 C 
BRANCH  21  22
HETATM   22  C6  UNK     1      20.159  -0.788  30.636  1.00  0.00    -0.034 A 
HETATM   23  C12 UNK     1      20.482  -1.722  29.657  1.00  0.00     0.011 A 
HETATM   24  C14 UNK     1      20.937  -2.986  30.031  1.00  0.00     0.024 A 
HETATM   25  C18 UNK     1      21.066  -3.309  31.382  1.00  0.00     0.034 A 
HETATM   26  C15 UNK     1      20.739  -2.368  32.359  1.00  0.00     0.024 A 
HETATM   27 Cl1  UNK     1      21.628  -4.868  31.843  1.00  0.00    -0.084 Cl
HETATM   28  C13 UNK     1      20.284  -1.104  31.984  1.00  0.00     0.011 A 
ENDBRANCH  21  22
ENDBRANCH  20  21
ENDBRANCH  14  20
ENDBRANCH   2  11
TORSDOF 6
ENDMDL
MODEL 4
REMARK VINA RESULT:      -8.3     16.420     18.469
REMARK  6 active torsions:
REMARK  status: ('A' for Active; 'I' for Inactive)
REMARK    1  A    between atoms: C1_6  and  O1_3 
REMARK    2  A    between atoms: C4_9  and  O1_3 
REMARK    3  A    between atoms: C3_8  and  O2_4 
REMARK    4  A    between atoms: C2_7  and  C9_14 
REMARK    5  A    between atoms: C4_9  and  C6_11 
REMARK    6  A    between atoms: C10_15  and  C11_16 
ROOT
HETATM    1  N1  UNK     1      27.499 -10.661  39.593  1.00  0.00    -0.191 NA
HETATM    2  C9  UNK     1      27.408  -8.804  36.689  1.00  0.00     0.036 C 
HETATM    3  C10 UNK     1      26.664  -9.765  37.299  1.00  0.00     0.055 C 
HETATM    4  C23 UNK     1      27.134 -10.255  38.568  1.00  0.00     0.100 C 
ENDROOT
BRANCH   3   5
HETATM    5  C11 UNK     1      25.434 -10.311  36.746  1.00  0.00    -0.015 A 
HETATM    6  C16 UNK     1      25.403 -11.621  36.267  1.00  0.00     0.013 A 
HETATM    7  C19 UNK     1      24.223 -12.144  35.740  1.00  0.00     0.001 A 
HETATM    8  C21 UNK     1      23.073 -11.356  35.693  1.00  0.00     0.000 A 
HETATM    9  C20 UNK     1      23.102 -10.047  36.172  1.00  0.00     0.001 A 
HETATM   10  C17 UNK     1      24.283  -9.524  36.700  1.00  0.00     0.013 A 
ENDBRANCH   3   5
BRANCH   2  11
HETATM   11  C2  UNK     1      28.650  -8.221  37.213  1.00  0.00    -0.015 A 
HETATM   12  C5  UNK     1      29.842  -8.841  36.857  1.00  0.00     0.052 A 
HETATM   13  C3  UNK     1      31.052  -8.328  37.326  1.00  0.00     0.102 A 
HETATM   14  C1  UNK     1      31.060  -7.201  38.148  1.00  0.00     0.103 A 
HETATM   15  C7  UNK     1      29.859  -6.586  38.500  1.00  0.00     0.059 A 
HETATM   16  C8  UNK     1      28.649  -7.098  38.030  1.00  0.00     0.024 A 
HETATM   17 Br1  UNK     1      27.050  -6.211  38.548  1.00  0.00    -0.050 Br
BRANCH  13  18
HETATM   18  O2  UNK     1      32.218  -8.939  36.976  1.00  0.00    -0.353 OA
HETATM   19  C22 UNK     1      32.552  -8.949  35.589  1.00  0.00     0.210 C 
ENDBRANCH  13  18
BRANCH  14  20
HETATM   20  O1  UNK     1      32.235  -6.692  38.612  1.00  0.00    -0.344 OA
BRANCH  20  21
HETATM   21  C4  UNK     1      32.611  -5.398  38.145  1.00  0.00     0.214 C 
BRANCH  21  22
HETATM   22  C6  UNK     1      33.384  -5.544  36.868  1.00  0.00    -0.034 A 
HETATM   23  C12 UNK     1      32.824  -5.113  35.671  1.00  0.00     0.011 A 
HETATM   24  C14 UNK     1      33.544  -5.248  34.484  1.00  0.00     0.024 A 
HETATM   25  C18 UNK     1      34.820  -5.812  34.502  1.00  0.00     0.034 A 
HETATM   26  C15 UNK     1      35.375  -6.243  35.706  1.00  0.00     0.024 A 
HETATM   27 Cl1  UNK     1      35.707  -5.978  33.037  1.00  0.00    -0.084 Cl
HETATM   28  C13 UNK     1      34.655  -6.108  36.894  1.00  0.00     0.011 A 
ENDBRANCH  21  22
ENDBRANCH  20  21
ENDBRANCH  14  20
ENDBRANCH   2  11
TORSDOF 6
ENDMDL
MODEL 5
REMARK VINA RESULT:      -8.3      5.218     10.376
REMARK  6 active torsions:
REMARK  status: ('A' for Active; 'I' for Inactive)
REMARK    1  A    between atoms: C1_6  and  O1_3 
REMARK    2  A    between atoms: C4_9  and  O1_3 
REMARK    3  A    between atoms: C3_8  and  O2_4 
REMARK    4  A    between atoms: C2_7  and  C9_14 
REMARK    5  A    between atoms: C4_9  and  C6_11 
REMARK    6  A    between atoms: C10_15  and  C11_16 
ROOT
HETATM    1  N1  UNK     1      21.919  -1.702  35.348  1.00  0.00    -0.191 NA
HETATM    2  C9  UNK     1      18.565  -2.252  35.922  1.00  0.00     0.036 C 
HETATM    3  C10 UNK     1      19.746  -2.890  36.137  1.00  0.00     0.055 C 
HETATM    4  C23 UNK     1      20.944  -2.225  35.696  1.00  0.00     0.100 C 
ENDROOT
BRANCH   3   5
HETATM    5  C11 UNK     1      19.860  -4.187  36.786  1.00  0.00    -0.015 A 
HETATM    6  C16 UNK     1      18.916  -5.182  36.531  1.00  0.00     0.013 A 
HETATM    7  C19 UNK     1      19.027  -6.426  37.151  1.00  0.00     0.001 A 
HETATM    8  C21 UNK     1      20.084  -6.676  38.027  1.00  0.00     0.000 A 
HETATM    9  C20 UNK     1      21.029  -5.682  38.282  1.00  0.00     0.001 A 
HETATM   10  C17 UNK     1      20.917  -4.438  37.661  1.00  0.00     0.013 A 
ENDBRANCH   3   5
BRANCH   2  11
HETATM   11  C2  UNK     1      18.404  -0.941  35.279  1.00  0.00    -0.015 A 
HETATM   12  C5  UNK     1      18.604  -0.880  33.905  1.00  0.00     0.052 A 
HETATM   13  C3  UNK     1      18.463   0.340  33.242  1.00  0.00     0.102 A 
HETATM   14  C1  UNK     1      18.125   1.488  33.959  1.00  0.00     0.103 A 
HETATM   15  C7  UNK     1      17.927   1.416  35.337  1.00  0.00     0.059 A 
HETATM   16  C8  UNK     1      18.067   0.197  36.000  1.00  0.00     0.024 A 
HETATM   17 Br1  UNK     1      17.783   0.170  37.879  1.00  0.00    -0.050 Br
BRANCH  13  18
HETATM   18  O2  UNK     1      18.660   0.396  31.895  1.00  0.00    -0.353 OA
HETATM   19  C22 UNK     1      19.762  -0.343  31.371  1.00  0.00     0.210 C 
ENDBRANCH  13  18
BRANCH  14  20
HETATM   20  O1  UNK     1      17.986   2.684  33.322  1.00  0.00    -0.344 OA
BRANCH  20  21
HETATM   21  C4  UNK     1      18.571   3.824  33.950  1.00  0.00     0.214 C 
BRANCH  21  22
HETATM   22  C6  UNK     1      17.898   5.063  33.440  1.00  0.00    -0.034 A 
HETATM   23  C12 UNK     1      17.334   5.961  34.340  1.00  0.00     0.011 A 
HETATM   24  C14 UNK     1      16.709   7.114  33.865  1.00  0.00     0.024 A 
HETATM   25  C18 UNK     1      16.651   7.362  32.493  1.00  0.00     0.034 A 
HETATM   26  C15 UNK     1      17.218   6.457  31.596  1.00  0.00     0.024 A 
HETATM   27 Cl1  UNK     1      15.880   8.784  31.908  1.00  0.00    -0.084 Cl
HETATM   28  C13 UNK     1      17.843   5.303  32.071  1.00  0.00     0.011 A 
ENDBRANCH  21  22
ENDBRANCH  20  21
ENDBRANCH  14  20
ENDBRANCH   2  11
TORSDOF 6
ENDMDL
MODEL 6
REMARK VINA RESULT:      -8.1      5.940     11.005
REMARK  6 active torsions:
REMARK  status: ('A' for Active; 'I' for Inactive)
REMARK    1  A    between atoms: C1_6  and  O1_3 
REMARK    2  A    between atoms: C4_9  and  O1_3 
REMARK    3  A    between atoms: C3_8  and  O2_4 
REMARK    4  A    between atoms: C2_7  and  C9_14 
REMARK    5  A    between atoms: C4_9  and  C6_11 
REMARK    6  A    between atoms: C10_15  and  C11_16 
ROOT
HETATM    1  N1  UNK     1      17.649  -5.356  36.372  1.00  0.00    -0.191 NA
HETATM    2  C9  UNK     1      20.563  -3.565  36.809  1.00  0.00     0.036 C 
HETATM    3  C10 UNK     1      20.038  -4.755  37.205  1.00  0.00     0.055 C 
HETATM    4  C23 UNK     1      18.715  -5.079  36.739  1.00  0.00     0.100 C 
ENDROOT
BRANCH   3   5
HETATM    5  C11 UNK     1      20.736  -5.705  38.057  1.00  0.00    -0.015 A 
HETATM    6  C16 UNK     1      22.106  -5.569  38.280  1.00  0.00     0.013 A 
HETATM    7  C19 UNK     1      22.774  -6.479  39.099  1.00  0.00     0.001 A 
HETATM    8  C21 UNK     1      22.071  -7.525  39.695  1.00  0.00     0.000 A 
HETATM    9  C20 UNK     1      20.701  -7.663  39.473  1.00  0.00     0.001 A 
HETATM   10  C17 UNK     1      20.033  -6.751  38.654  1.00  0.00     0.013 A 
ENDBRANCH   3   5
BRANCH   2  11
HETATM   11  C2  UNK     1      19.897  -2.580  35.945  1.00  0.00    -0.015 A 
HETATM   12  C5  UNK     1      20.251  -2.573  34.601  1.00  0.00     0.052 A 
HETATM   13  C3  UNK     1      19.649  -1.659  33.735  1.00  0.00     0.102 A 
HETATM   14  C1  UNK     1      18.701  -0.759  34.220  1.00  0.00     0.103 A 
HETATM   15  C7  UNK     1      18.352  -0.774  35.570  1.00  0.00     0.059 A 
HETATM   16  C8  UNK     1      18.953  -1.688  36.437  1.00  0.00     0.024 A 
HETATM   17 Br1  UNK     1      18.433  -1.653  38.264  1.00  0.00    -0.050 Br
BRANCH  13  18
HETATM   18  O2  UNK     1      19.998  -1.655  32.418  1.00  0.00    -0.353 OA
HETATM   19  C22 UNK     1      20.973  -2.612  32.004  1.00  0.00     0.210 C 
ENDBRANCH  13  18
BRANCH  14  20
HETATM   20  O1  UNK     1      18.107   0.138  33.384  1.00  0.00    -0.344 OA
BRANCH  20  21
HETATM   21  C4  UNK     1      17.752   1.404  33.938  1.00  0.00     0.214 C 
BRANCH  21  22
HETATM   22  C6  UNK     1      18.100   2.483  32.957  1.00  0.00    -0.034 A 
HETATM   23  C12 UNK     1      18.341   2.153  31.628  1.00  0.00     0.011 A 
HETATM   24  C14 UNK     1      18.664   3.158  30.715  1.00  0.00     0.024 A 
HETATM   25  C18 UNK     1      18.744   4.485  31.137  1.00  0.00     0.034 A 
HETATM   26  C15 UNK     1      18.502   4.808  32.472  1.00  0.00     0.024 A 
HETATM   27 Cl1  UNK     1      19.143   5.723  30.011  1.00  0.00    -0.084 Cl
HETATM   28  C13 UNK     1      18.179   3.804  33.385  1.00  0.00     0.011 A 
ENDBRANCH  21  22
ENDBRANCH  20  21
ENDBRANCH  14  20
ENDBRANCH   2  11
TORSDOF 6
ENDMDL
MODEL 7
REMARK VINA RESULT:      -7.9      5.106     10.527
REMARK  6 active torsions:
REMARK  status: ('A' for Active; 'I' for Inactive)
REMARK    1  A    between atoms: C1_6  and  O1_3 
REMARK    2  A    between atoms: C4_9  and  O1_3 
REMARK    3  A    between atoms: C3_8  and  O2_4 
REMARK    4  A    between atoms: C2_7  and  C9_14 
REMARK    5  A    between atoms: C4_9  and  C6_11 
REMARK    6  A    between atoms: C10_15  and  C11_16 
ROOT
HETATM    1  N1  UNK     1      20.125   6.188  29.822  1.00  0.00    -0.191 NA
HETATM    2  C9  UNK     1      17.841   4.790  31.994  1.00  0.00     0.036 C 
HETATM    3  C10 UNK     1      18.621   4.394  30.954  1.00  0.00     0.055 C 
HETATM    4  C23 UNK     1      19.450   5.394  30.333  1.00  0.00     0.100 C 
ENDROOT
BRANCH   3   5
HETATM    5  C11 UNK     1      18.666   3.031  30.447  1.00  0.00    -0.015 A 
HETATM    6  C16 UNK     1      19.127   1.997  31.262  1.00  0.00     0.013 A 
HETATM    7  C19 UNK     1      19.167   0.690  30.777  1.00  0.00     0.001 A 
HETATM    8  C21 UNK     1      18.744   0.417  29.476  1.00  0.00     0.000 A 
HETATM    9  C20 UNK     1      18.282   1.450  28.661  1.00  0.00     0.001 A 
HETATM   10  C17 UNK     1      18.243   2.757  29.147  1.00  0.00     0.013 A 
ENDBRANCH   3   5
BRANCH   2  11
HETATM   11  C2  UNK     1      17.771   6.152  32.542  1.00  0.00    -0.015 A 
HETATM   12  C5  UNK     1      16.736   6.964  32.092  1.00  0.00     0.052 A 
HETATM   13  C3  UNK     1      16.621   8.266  32.580  1.00  0.00     0.102 A 
HETATM   14  C1  UNK     1      17.541   8.746  33.511  1.00  0.00     0.103 A 
HETATM   15  C7  UNK     1      18.576   7.923  33.957  1.00  0.00     0.059 A 
HETATM   16  C8  UNK     1      18.691   6.621  33.470  1.00  0.00     0.024 A 
HETATM   17 Br1  UNK     1      20.124   5.555  34.118  1.00  0.00    -0.050 Br
BRANCH  13  18
HETATM   18  O2  UNK     1      15.606   9.059  32.137  1.00  0.00    -0.353 OA
HETATM   19  C22 UNK     1      14.356   8.950  32.815  1.00  0.00     0.210 C 
ENDBRANCH  13  18
BRANCH  14  20
HETATM   20  O1  UNK     1      17.440  10.015  33.994  1.00  0.00    -0.344 OA
BRANCH  20  21
HETATM   21  C4  UNK     1      18.605  10.834  33.916  1.00  0.00     0.214 C 
BRANCH  21  22
HETATM   22  C6  UNK     1      18.202  12.273  34.041  1.00  0.00    -0.034 A 
HETATM   23  C12 UNK     1      17.240  12.641  34.976  1.00  0.00     0.011 A 
HETATM   24  C14 UNK     1      16.866  13.980  35.092  1.00  0.00     0.024 A 
HETATM   25  C18 UNK     1      17.456  14.942  34.273  1.00  0.00     0.034 A 
HETATM   26  C15 UNK     1      18.419  14.567  33.337  1.00  0.00     0.024 A 
HETATM   27 Cl1  UNK     1      16.994  16.593  34.417  1.00  0.00    -0.084 Cl
HETATM   28  C13 UNK     1      18.794  13.228  33.221  1.00  0.00     0.011 A 
ENDBRANCH  21  22
ENDBRANCH  20  21
ENDBRANCH  14  20
ENDBRANCH   2  11
TORSDOF 6
ENDMDL
MODEL 8
REMARK VINA RESULT:      -7.9     15.691     18.246
REMARK  6 active torsions:
REMARK  status: ('A' for Active; 'I' for Inactive)
REMARK    1  A    between atoms: C1_6  and  O1_3 
REMARK    2  A    between atoms: C4_9  and  O1_3 
REMARK    3  A    between atoms: C3_8  and  O2_4 
REMARK    4  A    between atoms: C2_7  and  C9_14 
REMARK    5  A    between atoms: C4_9  and  C6_11 
REMARK    6  A    between atoms: C10_15  and  C11_16 
ROOT
HETATM    1  N1  UNK     1      27.420 -10.255  39.622  1.00  0.00    -0.191 NA
HETATM    2  C9  UNK     1      27.436  -8.837  36.479  1.00  0.00     0.036 C 
HETATM    3  C10 UNK     1      26.664  -9.695  37.198  1.00  0.00     0.055 C 
HETATM    4  C23 UNK     1      27.091 -10.000  38.538  1.00  0.00     0.100 C 
ENDROOT
BRANCH   3   5
HETATM    5  C11 UNK     1      25.445 -10.308  36.692  1.00  0.00    -0.015 A 
HETATM    6  C16 UNK     1      24.258  -9.576  36.656  1.00  0.00     0.013 A 
HETATM    7  C19 UNK     1      23.091 -10.163  36.168  1.00  0.00     0.001 A 
HETATM    8  C21 UNK     1      23.111 -11.482  35.715  1.00  0.00     0.000 A 
HETATM    9  C20 UNK     1      24.298 -12.214  35.750  1.00  0.00     0.001 A 
HETATM   10  C17 UNK     1      25.465 -11.626  36.238  1.00  0.00     0.013 A 
ENDBRANCH   3   5
BRANCH   2  11
HETATM   11  C2  UNK     1      28.668  -8.191  36.952  1.00  0.00    -0.015 A 
HETATM   12  C5  UNK     1      28.529  -7.149  37.861  1.00  0.00     0.052 A 
HETATM   13  C3  UNK     1      29.666  -6.501  38.344  1.00  0.00     0.102 A 
HETATM   14  C1  UNK     1      30.932  -6.899  37.914  1.00  0.00     0.103 A 
HETATM   15  C7  UNK     1      31.061  -7.946  37.002  1.00  0.00     0.059 A 
HETATM   16  C8  UNK     1      29.924  -8.595  36.519  1.00  0.00     0.024 A 
HETATM   17 Br1  UNK     1      30.171 -10.013  35.278  1.00  0.00    -0.050 Br
BRANCH  13  18
HETATM   18  O2  UNK     1      29.527  -5.479  39.235  1.00  0.00    -0.353 OA
HETATM   19  C22 UNK     1      29.000  -4.252  38.734  1.00  0.00     0.210 C 
ENDBRANCH  13  18
BRANCH  14  20
HETATM   20  O1  UNK     1      32.049  -6.273  38.378  1.00  0.00    -0.344 OA
BRANCH  20  21
HETATM   21  C4  UNK     1      32.463  -5.092  37.693  1.00  0.00     0.214 C 
BRANCH  21  22
HETATM   22  C6  UNK     1      33.396  -5.472  36.582  1.00  0.00    -0.034 A 
HETATM   23  C12 UNK     1      34.616  -6.068  36.881  1.00  0.00     0.011 A 
HETATM   24  C14 UNK     1      35.483  -6.422  35.847  1.00  0.00     0.024 A 
HETATM   25  C18 UNK     1      35.125  -6.177  34.521  1.00  0.00     0.034 A 
HETATM   26  C15 UNK     1      33.900  -5.578  34.229  1.00  0.00     0.024 A 
HETATM   27 Cl1  UNK     1      36.195  -6.614  33.247  1.00  0.00    -0.084 Cl
HETATM   28  C13 UNK     1      33.033  -5.224  35.263  1.00  0.00     0.011 A 
ENDBRANCH  21  22
ENDBRANCH  20  21
ENDBRANCH  14  20
ENDBRANCH   2  11
TORSDOF 6
ENDMDL
MODEL 9
REMARK VINA RESULT:      -7.9      5.203     10.268
REMARK  6 active torsions:
REMARK  status: ('A' for Active; 'I' for Inactive)
REMARK    1  A    between atoms: C1_6  and  O1_3 
REMARK    2  A    between atoms: C4_9  and  O1_3 
REMARK    3  A    between atoms: C3_8  and  O2_4 
REMARK    4  A    between atoms: C2_7  and  C9_14 
REMARK    5  A    between atoms: C4_9  and  C6_11 
REMARK    6  A    between atoms: C10_15  and  C11_16 
ROOT
HETATM    1  N1  UNK     1      22.002  -1.917  35.354  1.00  0.00    -0.191 NA
HETATM    2  C9  UNK     1      18.845  -2.756  36.457  1.00  0.00     0.036 C 
HETATM    3  C10 UNK     1      20.105  -3.262  36.517  1.00  0.00     0.055 C 
HETATM    4  C23 UNK     1      21.148  -2.511  35.870  1.00  0.00     0.100 C 
ENDROOT
BRANCH   3   5
HETATM    5  C11 UNK     1      20.449  -4.502  37.197  1.00  0.00    -0.015 A 
HETATM    6  C16 UNK     1      21.685  -4.632  37.830  1.00  0.00     0.013 A 
HETATM    7  C19 UNK     1      22.013  -5.819  38.484  1.00  0.00     0.001 A 
HETATM    8  C21 UNK     1      21.104  -6.877  38.505  1.00  0.00     0.000 A 
HETATM    9  C20 UNK     1      19.868  -6.748  37.873  1.00  0.00     0.001 A 
HETATM   10  C17 UNK     1      19.540  -5.559  37.219  1.00  0.00     0.013 A 
ENDBRANCH   3   5
BRANCH   2  11
HETATM   11  C2  UNK     1      18.454  -1.507  35.789  1.00  0.00    -0.015 A 
HETATM   12  C5  UNK     1      18.558  -1.470  34.404  1.00  0.00     0.052 A 
HETATM   13  C3  UNK     1      18.200  -0.309  33.717  1.00  0.00     0.102 A 
HETATM   14  C1  UNK     1      17.742   0.804  34.422  1.00  0.00     0.103 A 
HETATM   15  C7  UNK     1      17.641   0.757  35.812  1.00  0.00     0.059 A 
HETATM   16  C8  UNK     1      17.998  -0.404  36.498  1.00  0.00     0.024 A 
HETATM   17 Br1  UNK     1      17.837  -0.400  38.392  1.00  0.00    -0.050 Br
BRANCH  13  18
HETATM   18  O2  UNK     1      18.304  -0.275  32.359  1.00  0.00    -0.353 OA
HETATM   19  C22 UNK     1      19.396  -0.983  31.776  1.00  0.00     0.210 C 
ENDBRANCH  13  18
BRANCH  14  20
HETATM   20  O1  UNK     1      17.390   1.943  33.763  1.00  0.00    -0.344 OA
BRANCH  20  21
HETATM   21  C4  UNK     1      17.999   3.158  34.197  1.00  0.00     0.214 C 
BRANCH  21  22
HETATM   22  C6  UNK     1      18.487   3.917  32.999  1.00  0.00    -0.034 A 
HETATM   23  C12 UNK     1      18.413   3.335  31.738  1.00  0.00     0.011 A 
HETATM   24  C14 UNK     1      18.866   4.041  30.623  1.00  0.00     0.024 A 
HETATM   25  C18 UNK     1      19.390   5.325  30.777  1.00  0.00     0.034 A 
HETATM   26  C15 UNK     1      19.461   5.902  32.045  1.00  0.00     0.024 A 
HETATM   27 Cl1  UNK     1      19.948   6.196  29.402  1.00  0.00    -0.084 Cl
HETATM   28  C13 UNK     1      19.008   5.196  33.159  1.00  0.00     0.011 A 
ENDBRANCH  21  22
ENDBRANCH  20  21
ENDBRANCH  14  20
ENDBRANCH   2  11
TORSDOF 6
ENDMDL
MODEL 10
REMARK VINA RESULT:      -7.8     15.065     16.989
REMARK  6 active torsions:
REMARK  status: ('A' for Active; 'I' for Inactive)
REMARK    1  A    between atoms: C1_6  and  O1_3 
REMARK    2  A    between atoms: C4_9  and  O1_3 
REMARK    3  A    between atoms: C3_8  and  O2_4 
REMARK    4  A    between atoms: C2_7  and  C9_14 
REMARK    5  A    between atoms: C4_9  and  C6_11 
REMARK    6  A    between atoms: C10_15  and  C11_16 
ROOT
HETATM    1  N1  UNK     1      29.314  -6.216  34.585  1.00  0.00    -0.191 NA
HETATM    2  C9  UNK     1      30.798  -6.941  37.612  1.00  0.00     0.036 C 
HETATM    3  C10 UNK     1      31.175  -6.523  36.375  1.00  0.00     0.055 C 
HETATM    4  C23 UNK     1      30.138  -6.357  35.390  1.00  0.00     0.100 C 
ENDROOT
BRANCH   3   5
HETATM    5  C11 UNK     1      32.551  -6.234  36.002  1.00  0.00    -0.015 A 
HETATM    6  C16 UNK     1      32.835  -5.167  35.149  1.00  0.00     0.013 A 
HETATM    7  C19 UNK     1      34.155  -4.889  34.794  1.00  0.00     0.001 A 
HETATM    8  C21 UNK     1      35.191  -5.679  35.293  1.00  0.00     0.000 A 
HETATM    9  C20 UNK     1      34.909  -6.745  36.145  1.00  0.00     0.001 A 
HETATM   10  C17 UNK     1      33.588  -7.023  36.500  1.00  0.00     0.013 A 
ENDBRANCH   3   5
BRANCH   2  11
HETATM   11  C2  UNK     1      29.421  -7.237  38.033  1.00  0.00    -0.015 A 
HETATM   12  C5  UNK     1      28.947  -8.521  37.793  1.00  0.00     0.052 A 
HETATM   13  C3  UNK     1      27.647  -8.857  38.174  1.00  0.00     0.102 A 
HETATM   14  C1  UNK     1      26.833  -7.907  38.789  1.00  0.00     0.103 A 
HETATM   15  C7  UNK     1      27.318  -6.621  39.026  1.00  0.00     0.059 A 
HETATM   16  C8  UNK     1      28.618  -6.285  38.647  1.00  0.00     0.024 A 
HETATM   17 Br1  UNK     1      29.215  -4.516  38.998  1.00  0.00    -0.050 Br
BRANCH  13  18
HETATM   18  O2  UNK     1      27.185 -10.117  37.936  1.00  0.00    -0.353 OA
HETATM   19  C22 UNK     1      26.467 -10.324  36.721  1.00  0.00     0.210 C 
ENDBRANCH  13  18
BRANCH  14  20
HETATM   20  O1  UNK     1      25.562  -8.223  39.165  1.00  0.00    -0.344 OA
BRANCH  20  21
HETATM   21  C4  UNK     1      24.532  -7.305  38.804  1.00  0.00     0.214 C 
BRANCH  21  22
HETATM   22  C6  UNK     1      23.254  -8.061  38.590  1.00  0.00    -0.034 A 
HETATM   23  C12 UNK     1      22.992  -8.634  37.350  1.00  0.00     0.011 A 
HETATM   24  C14 UNK     1      21.805  -9.338  37.152  1.00  0.00     0.024 A 
HETATM   25  C18 UNK     1      20.886  -9.465  38.195  1.00  0.00     0.034 A 
HETATM   26  C15 UNK     1      21.155  -8.886  39.435  1.00  0.00     0.024 A 
HETATM   27 Cl1  UNK     1      19.422 -10.333  37.950  1.00  0.00    -0.084 Cl
HETATM   28  C13 UNK     1      22.343  -8.182  39.634  1.00  0.00     0.011 A 
ENDBRANCH  21  22
ENDBRANCH  20  21
ENDBRANCH  14  20
ENDBRANCH   2  11
TORSDOF 6
ENDMDL
