MODEL 1
REMARK VINA RESULT:      -8.8      0.000      0.000
REMARK  7 active torsions:
REMARK  status: ('A' for Active; 'I' for Inactive)
REMARK    1  A    between atoms: C13_17  and  O2_2 
REMARK    2  A    between atoms: C15_19  and  O2_2 
REMARK    3  A    between atoms: C1_5  and  C2_6 
REMARK    4  A    between atoms: C1_5  and  C3_7 
REMARK    5  A    between atoms: C3_7  and  C6_10 
REMARK    6  A    between atoms: C15_19  and  C16_20 
REMARK    7  A    between atoms: C16_20  and  C17_21 
ROOT
HETATM    1  O1  UNK     1      15.840   6.616  32.919  1.00  0.00    -0.274 OA
HETATM    2  O3  UNK     1      14.224   7.847  33.931  1.00  0.00    -0.259 OA
HETATM    3  C2  UNK     1      16.446   8.694  34.084  1.00  0.00     0.024 A 
HETATM    4  C4  UNK     1      17.753   8.508  33.800  1.00  0.00    -0.037 A 
HETATM    5  C5  UNK     1      18.162   7.337  32.998  1.00  0.00     0.005 A 
HETATM    6  C7  UNK     1      17.190   6.430  32.586  1.00  0.00     0.092 A 
HETATM    7  C8  UNK     1      15.411   7.710  33.651  1.00  0.00     0.295 A 
HETATM    8  C9  UNK     1      18.850   9.430  34.271  1.00  0.00     0.050 C 
HETATM    9  C10 UNK     1      19.486   7.078  32.607  1.00  0.00     0.017 A 
HETATM   10  C11 UNK     1      17.492   5.297  31.825  1.00  0.00     0.075 A 
HETATM   11  C13 UNK     1      18.810   5.057  31.454  1.00  0.00     0.072 A 
HETATM   12  C14 UNK     1      19.806   5.948  31.845  1.00  0.00     0.038 A 
ENDROOT
BRANCH  11  13
HETATM   13  O2  UNK     1      19.124   3.961  30.714  1.00  0.00    -0.344 OA
BRANCH  13  14
HETATM   14  C15 UNK     1      18.155   2.915  30.657  1.00  0.00     0.259 C 
BRANCH  14  15
HETATM   15  C16 UNK     1      18.441   2.005  29.479  1.00  0.00     0.183 C 
HETATM   16  O4  UNK     1      18.092   2.297  28.338  1.00  0.00    -0.290 OA
BRANCH  15  17
HETATM   17  C17 UNK     1      19.164   0.723  29.722  1.00  0.00     0.012 A 
HETATM   18  C18 UNK     1      19.353   0.306  31.022  1.00  0.00     0.015 A 
HETATM   19  C20 UNK     1      20.028  -0.893  31.248  1.00  0.00     0.001 A 
HETATM   20  C22 UNK     1      20.496  -1.645  30.170  1.00  0.00     0.000 A 
HETATM   21  C21 UNK     1      20.288  -1.196  28.865  1.00  0.00     0.001 A 
HETATM   22  C19 UNK     1      19.614   0.003  28.638  1.00  0.00     0.015 A 
ENDBRANCH  15  17
ENDBRANCH  14  15
ENDBRANCH  13  14
ENDBRANCH  11  13
BRANCH   3  23
HETATM   23  C1  UNK     1      15.887   9.874  34.836  1.00  0.00     0.045 C 
BRANCH  23  24
HETATM   24  C3  UNK     1      15.485  10.996  33.887  1.00  0.00     0.004 C 
BRANCH  24  25
HETATM   25  C6  UNK     1      14.057  11.461  34.174  1.00  0.00    -0.004 C 
HETATM   26  C12 UNK     1      13.115  11.104  33.034  1.00  0.00     0.005 C 
ENDBRANCH  24  25
ENDBRANCH  23  24
ENDBRANCH   3  23
TORSDOF 7
ENDMDL
MODEL 2
REMARK VINA RESULT:      -8.5      1.254      1.691
REMARK  7 active torsions:
REMARK  status: ('A' for Active; 'I' for Inactive)
REMARK    1  A    between atoms: C13_17  and  O2_2 
REMARK    2  A    between atoms: C15_19  and  O2_2 
REMARK    3  A    between atoms: C1_5  and  C2_6 
REMARK    4  A    between atoms: C1_5  and  C3_7 
REMARK    5  A    between atoms: C3_7  and  C6_10 
REMARK    6  A    between atoms: C15_19  and  C16_20 
REMARK    7  A    between atoms: C16_20  and  C17_21 
ROOT
HETATM    1  O1  UNK     1      16.516   7.872  32.046  1.00  0.00    -0.274 OA
HETATM    2  O3  UNK     1      15.288   9.566  32.925  1.00  0.00    -0.259 OA
HETATM    3  C2  UNK     1      17.517   9.347  33.738  1.00  0.00     0.024 A 
HETATM    4  C4  UNK     1      18.670   8.646  33.712  1.00  0.00    -0.037 A 
HETATM    5  C5  UNK     1      18.805   7.505  32.783  1.00  0.00     0.005 A 
HETATM    6  C7  UNK     1      17.721   7.157  31.983  1.00  0.00     0.092 A 
HETATM    7  C8  UNK     1      16.354   8.960  32.887  1.00  0.00     0.295 A 
HETATM    8  C9  UNK     1      19.852   8.947  34.599  1.00  0.00     0.050 C 
HETATM    9  C10 UNK     1      19.975   6.742  32.643  1.00  0.00     0.017 A 
HETATM   10  C11 UNK     1      17.765   6.092  31.079  1.00  0.00     0.075 A 
HETATM   11  C13 UNK     1      18.932   5.346  30.960  1.00  0.00     0.072 A 
HETATM   12  C14 UNK     1      20.037   5.672  31.742  1.00  0.00     0.038 A 
ENDROOT
BRANCH  11  13
HETATM   13  O2  UNK     1      18.995   4.307  30.086  1.00  0.00    -0.344 OA
BRANCH  13  14
HETATM   14  C15 UNK     1      18.504   3.045  30.539  1.00  0.00     0.259 C 
BRANCH  14  15
HETATM   15  C16 UNK     1      18.601   2.020  29.426  1.00  0.00     0.183 C 
HETATM   16  O4  UNK     1      18.172   2.249  28.299  1.00  0.00    -0.290 OA
BRANCH  15  17
HETATM   17  C17 UNK     1      19.233   0.701  29.720  1.00  0.00     0.012 A 
HETATM   18  C18 UNK     1      19.674  -0.070  28.668  1.00  0.00     0.015 A 
HETATM   19  C20 UNK     1      20.267  -1.303  28.945  1.00  0.00     0.001 A 
HETATM   20  C22 UNK     1      20.403  -1.731  30.265  1.00  0.00     0.000 A 
HETATM   21  C21 UNK     1      19.946  -0.926  31.309  1.00  0.00     0.001 A 
HETATM   22  C19 UNK     1      19.354   0.306  31.034  1.00  0.00     0.015 A 
ENDBRANCH  15  17
ENDBRANCH  14  15
ENDBRANCH  13  14
ENDBRANCH  11  13
BRANCH   3  23
HETATM   23  C1  UNK     1      17.269  10.567  34.588  1.00  0.00     0.045 C 
BRANCH  23  24
HETATM   24  C3  UNK     1      17.906  11.808  33.976  1.00  0.00     0.004 C 
BRANCH  24  25
HETATM   25  C6  UNK     1      17.107  13.060  34.340  1.00  0.00    -0.004 C 
HETATM   26  C12 UNK     1      15.685  12.989  33.804  1.00  0.00     0.005 C 
ENDBRANCH  24  25
ENDBRANCH  23  24
ENDBRANCH   3  23
TORSDOF 7
ENDMDL
MODEL 3
REMARK VINA RESULT:      -8.3      6.918     12.556
REMARK  7 active torsions:
REMARK  status: ('A' for Active; 'I' for Inactive)
REMARK    1  A    between atoms: C13_17  and  O2_2 
REMARK    2  A    between atoms: C15_19  and  O2_2 
REMARK    3  A    between atoms: C1_5  and  C2_6 
REMARK    4  A    between atoms: C1_5  and  C3_7 
REMARK    5  A    between atoms: C3_7  and  C6_10 
REMARK    6  A    between atoms: C15_19  and  C16_20 
REMARK    7  A    between atoms: C16_20  and  C17_21 
ROOT
HETATM    1  O1  UNK     1      20.400  -5.662  34.501  1.00  0.00    -0.274 OA
HETATM    2  O3  UNK     1      20.819  -7.876  34.230  1.00  0.00    -0.259 OA
HETATM    3  C2  UNK     1      20.686  -7.094  36.477  1.00  0.00     0.024 A 
HETATM    4  C4  UNK     1      20.527  -6.039  37.303  1.00  0.00    -0.037 A 
HETATM    5  C5  UNK     1      20.250  -4.705  36.732  1.00  0.00     0.005 A 
HETATM    6  C7  UNK     1      20.198  -4.563  35.348  1.00  0.00     0.092 A 
HETATM    7  C8  UNK     1      20.642  -6.933  34.995  1.00  0.00     0.295 A 
HETATM    8  C9  UNK     1      20.631  -6.129  38.805  1.00  0.00     0.050 C 
HETATM    9  C10 UNK     1      20.022  -3.553  37.502  1.00  0.00     0.017 A 
HETATM   10  C11 UNK     1      19.942  -3.338  34.727  1.00  0.00     0.075 A 
HETATM   11  C13 UNK     1      19.724  -2.209  35.509  1.00  0.00     0.072 A 
HETATM   12  C14 UNK     1      19.764  -2.318  36.897  1.00  0.00     0.038 A 
ENDROOT
BRANCH  11  13
HETATM   13  O2  UNK     1      19.473  -1.008  34.924  1.00  0.00    -0.344 OA
BRANCH  13  14
HETATM   14  C15 UNK     1      18.411  -0.958  33.972  1.00  0.00     0.259 C 
BRANCH  14  15
HETATM   15  C16 UNK     1      18.712   0.084  32.912  1.00  0.00     0.183 C 
HETATM   16  O4  UNK     1      18.432   1.268  33.074  1.00  0.00    -0.290 OA
BRANCH  15  17
HETATM   17  C17 UNK     1      19.364  -0.352  31.643  1.00  0.00     0.012 A 
HETATM   18  C18 UNK     1      19.744  -1.670  31.513  1.00  0.00     0.015 A 
HETATM   19  C20 UNK     1      20.352  -2.076  30.325  1.00  0.00     0.001 A 
HETATM   20  C22 UNK     1      20.563  -1.156  29.298  1.00  0.00     0.000 A 
HETATM   21  C21 UNK     1      20.167   0.172  29.461  1.00  0.00     0.001 A 
HETATM   22  C19 UNK     1      19.559   0.580  30.648  1.00  0.00     0.015 A 
ENDBRANCH  15  17
ENDBRANCH  14  15
ENDBRANCH  13  14
ENDBRANCH  11  13
BRANCH   3  23
HETATM   23  C1  UNK     1      20.909  -8.515  36.928  1.00  0.00     0.045 C 
BRANCH  23  24
HETATM   24  C3  UNK     1      19.615  -9.319  36.892  1.00  0.00     0.004 C 
BRANCH  24  25
HETATM   25  C6  UNK     1      18.970  -9.366  38.277  1.00  0.00    -0.004 C 
HETATM   26  C12 UNK     1      19.986  -9.718  39.353  1.00  0.00     0.005 C 
ENDBRANCH  24  25
ENDBRANCH  23  24
ENDBRANCH   3  23
TORSDOF 7
ENDMDL
MODEL 4
REMARK VINA RESULT:      -8.0     15.742     17.728
REMARK  7 active torsions:
REMARK  status: ('A' for Active; 'I' for Inactive)
REMARK    1  A    between atoms: C13_17  and  O2_2 
REMARK    2  A    between atoms: C15_19  and  O2_2 
REMARK    3  A    between atoms: C1_5  and  C2_6 
REMARK    4  A    between atoms: C1_5  and  C3_7 
REMARK    5  A    between atoms: C3_7  and  C6_10 
REMARK    6  A    between atoms: C15_19  and  C16_20 
REMARK    7  A    between atoms: C16_20  and  C17_21 
ROOT
HETATM    1  O1  UNK     1      27.997  -5.443  39.298  1.00  0.00    -0.274 OA
HETATM    2  O3  UNK     1      29.542  -3.865  39.822  1.00  0.00    -0.259 OA
HETATM    3  C2  UNK     1      30.253  -5.585  38.334  1.00  0.00     0.024 A 
HETATM    4  C4  UNK     1      29.940  -6.729  37.691  1.00  0.00    -0.037 A 
HETATM    5  C5  UNK     1      28.572  -7.275  37.804  1.00  0.00     0.005 A 
HETATM    6  C7  UNK     1      27.647  -6.611  38.606  1.00  0.00     0.092 A 
HETATM    7  C8  UNK     1      29.262  -4.887  39.203  1.00  0.00     0.295 A 
HETATM    8  C9  UNK     1      30.920  -7.515  36.857  1.00  0.00     0.050 C 
HETATM    9  C10 UNK     1      28.129  -8.429  37.139  1.00  0.00     0.017 A 
HETATM   10  C11 UNK     1      26.333  -7.060  38.768  1.00  0.00     0.075 A 
HETATM   11  C13 UNK     1      25.918  -8.209  38.105  1.00  0.00     0.072 A 
HETATM   12  C14 UNK     1      26.817  -8.892  37.289  1.00  0.00     0.038 A 
ENDROOT
BRANCH  11  13
HETATM   13  O2  UNK     1      24.645  -8.661  38.249  1.00  0.00    -0.344 OA
BRANCH  13  14
HETATM   14  C15 UNK     1      23.746  -7.845  39.000  1.00  0.00     0.259 C 
BRANCH  14  15
HETATM   15  C16 UNK     1      22.453  -7.652  38.231  1.00  0.00     0.183 C 
HETATM   16  O4  UNK     1      22.176  -6.583  37.694  1.00  0.00    -0.290 OA
BRANCH  15  17
HETATM   17  C17 UNK     1      21.500  -8.795  38.133  1.00  0.00     0.012 A 
HETATM   18  C18 UNK     1      20.569  -8.969  39.133  1.00  0.00     0.015 A 
HETATM   19  C20 UNK     1      19.678 -10.037  39.039  1.00  0.00     0.001 A 
HETATM   20  C22 UNK     1      19.740 -10.904  37.948  1.00  0.00     0.000 A 
HETATM   21  C21 UNK     1      20.695 -10.702  36.951  1.00  0.00     0.001 A 
HETATM   22  C19 UNK     1      21.587  -9.634  37.044  1.00  0.00     0.015 A 
ENDBRANCH  15  17
ENDBRANCH  14  15
ENDBRANCH  13  14
ENDBRANCH  11  13
BRANCH   3  23
HETATM   23  C1  UNK     1      31.587  -4.888  38.253  1.00  0.00     0.045 C 
BRANCH  23  24
HETATM   24  C3  UNK     1      31.632  -3.910  37.087  1.00  0.00     0.004 C 
BRANCH  24  25
HETATM   25  C6  UNK     1      32.788  -4.245  36.143  1.00  0.00    -0.004 C 
HETATM   26  C12 UNK     1      32.282  -4.666  34.772  1.00  0.00     0.005 C 
ENDBRANCH  24  25
ENDBRANCH  23  24
ENDBRANCH   3  23
TORSDOF 7
ENDMDL
MODEL 5
REMARK VINA RESULT:      -8.0     22.047     24.356
REMARK  7 active torsions:
REMARK  status: ('A' for Active; 'I' for Inactive)
REMARK    1  A    between atoms: C13_17  and  O2_2 
REMARK    2  A    between atoms: C15_19  and  O2_2 
REMARK    3  A    between atoms: C1_5  and  C2_6 
REMARK    4  A    between atoms: C1_5  and  C3_7 
REMARK    5  A    between atoms: C3_7  and  C6_10 
REMARK    6  A    between atoms: C15_19  and  C16_20 
REMARK    7  A    between atoms: C16_20  and  C17_21 
ROOT
HETATM    1  O1  UNK     1      13.901   5.133   8.725  1.00  0.00    -0.274 OA
HETATM    2  O3  UNK     1      16.037   4.854   9.440  1.00  0.00    -0.259 OA
HETATM    3  C2  UNK     1      14.993   6.918  10.013  1.00  0.00     0.024 A 
HETATM    4  C4  UNK     1      13.899   7.702   9.912  1.00  0.00    -0.037 A 
HETATM    5  C5  UNK     1      12.701   7.191   9.214  1.00  0.00     0.005 A 
HETATM    6  C7  UNK     1      12.745   5.923   8.643  1.00  0.00     0.092 A 
HETATM    7  C8  UNK     1      15.038   5.565   9.387  1.00  0.00     0.295 A 
HETATM    8  C9  UNK     1      13.821   9.104  10.464  1.00  0.00     0.050 C 
HETATM    9  C10 UNK     1      11.498   7.905   9.096  1.00  0.00     0.017 A 
HETATM   10  C11 UNK     1      11.658   5.365   7.966  1.00  0.00     0.075 A 
HETATM   11  C13 UNK     1      10.478   6.091   7.855  1.00  0.00     0.072 A 
HETATM   12  C14 UNK     1      10.399   7.361   8.421  1.00  0.00     0.038 A 
ENDROOT
BRANCH  11  13
HETATM   13  O2  UNK     1       9.408   5.566   7.201  1.00  0.00    -0.344 OA
BRANCH  13  14
HETATM   14  C15 UNK     1       8.113   5.985   7.631  1.00  0.00     0.259 C 
BRANCH  14  15
HETATM   15  C16 UNK     1       7.700   5.209   8.866  1.00  0.00     0.183 C 
HETATM   16  O4  UNK     1       7.791   3.985   8.919  1.00  0.00    -0.290 OA
BRANCH  15  17
HETATM   17  C17 UNK     1       7.167   5.960  10.039  1.00  0.00     0.012 A 
HETATM   18  C18 UNK     1       7.163   7.336   9.998  1.00  0.00     0.015 A 
HETATM   19  C20 UNK     1       6.663   8.037  11.096  1.00  0.00     0.001 A 
HETATM   20  C22 UNK     1       6.181   7.343  12.205  1.00  0.00     0.000 A 
HETATM   21  C21 UNK     1       6.198   5.948  12.217  1.00  0.00     0.001 A 
HETATM   22  C19 UNK     1       6.697   5.247  11.120  1.00  0.00     0.015 A 
ENDBRANCH  15  17
ENDBRANCH  14  15
ENDBRANCH  13  14
ENDBRANCH  11  13
BRANCH   3  23
HETATM   23  C1  UNK     1      16.255   7.290  10.750  1.00  0.00     0.045 C 
BRANCH  23  24
HETATM   24  C3  UNK     1      17.237   8.014   9.837  1.00  0.00     0.004 C 
BRANCH  24  25
HETATM   25  C6  UNK     1      17.306   9.500  10.189  1.00  0.00    -0.004 C 
HETATM   26  C12 UNK     1      17.020  10.373   8.976  1.00  0.00     0.005 C 
ENDBRANCH  24  25
ENDBRANCH  23  24
ENDBRANCH   3  23
TORSDOF 7
ENDMDL
MODEL 6
REMARK VINA RESULT:      -8.0     22.757     24.661
REMARK  7 active torsions:
REMARK  status: ('A' for Active; 'I' for Inactive)
REMARK    1  A    between atoms: C13_17  and  O2_2 
REMARK    2  A    between atoms: C15_19  and  O2_2 
REMARK    3  A    between atoms: C1_5  and  C2_6 
REMARK    4  A    between atoms: C1_5  and  C3_7 
REMARK    5  A    between atoms: C3_7  and  C6_10 
REMARK    6  A    between atoms: C15_19  and  C16_20 
REMARK    7  A    between atoms: C16_20  and  C17_21 
ROOT
HETATM    1  O1  UNK     1      14.968  10.317   7.954  1.00  0.00    -0.274 OA
HETATM    2  O3  UNK     1      15.266  12.207   6.733  1.00  0.00    -0.259 OA
HETATM    3  C2  UNK     1      16.998  11.664   8.276  1.00  0.00     0.024 A 
HETATM    4  C4  UNK     1      17.437  10.828   9.241  1.00  0.00    -0.037 A 
HETATM    5  C5  UNK     1      16.639   9.634   9.585  1.00  0.00     0.005 A 
HETATM    6  C7  UNK     1      15.429   9.421   8.929  1.00  0.00     0.092 A 
HETATM    7  C8  UNK     1      15.695  11.438   7.587  1.00  0.00     0.295 A 
HETATM    8  C9  UNK     1      18.711  11.045  10.020  1.00  0.00     0.050 C 
HETATM    9  C10 UNK     1      17.027   8.678  10.537  1.00  0.00     0.017 A 
HETATM   10  C11 UNK     1      14.613   8.318   9.195  1.00  0.00     0.075 A 
HETATM   11  C13 UNK     1      15.015   7.386  10.145  1.00  0.00     0.072 A 
HETATM   12  C14 UNK     1      16.223   7.566  10.815  1.00  0.00     0.038 A 
ENDROOT
BRANCH  11  13
HETATM   13  O2  UNK     1      14.236   6.306  10.418  1.00  0.00    -0.344 OA
BRANCH  13  14
HETATM   14  C15 UNK     1      13.706   5.589   9.304  1.00  0.00     0.259 C 
BRANCH  14  15
HETATM   15  C16 UNK     1      12.202   5.453   9.441  1.00  0.00     0.183 C 
HETATM   16  O4  UNK     1      11.681   5.086  10.491  1.00  0.00    -0.290 OA
BRANCH  15  17
HETATM   17  C17 UNK     1      11.343   5.772   8.265  1.00  0.00     0.012 A 
HETATM   18  C18 UNK     1       9.990   5.942   8.460  1.00  0.00     0.015 A 
HETATM   19  C20 UNK     1       9.188   6.242   7.359  1.00  0.00     0.001 A 
HETATM   20  C22 UNK     1       9.759   6.364   6.092  1.00  0.00     0.000 A 
HETATM   21  C21 UNK     1      11.133   6.186   5.927  1.00  0.00     0.001 A 
HETATM   22  C19 UNK     1      11.935   5.886   7.027  1.00  0.00     0.015 A 
ENDBRANCH  15  17
ENDBRANCH  14  15
ENDBRANCH  13  14
ENDBRANCH  11  13
BRANCH   3  23
HETATM   23  C1  UNK     1      17.743  12.879   7.785  1.00  0.00     0.045 C 
BRANCH  23  24
HETATM   24  C3  UNK     1      18.778  12.506   6.730  1.00  0.00     0.004 C 
BRANCH  24  25
HETATM   25  C6  UNK     1      18.618  13.379   5.485  1.00  0.00    -0.004 C 
HETATM   26  C12 UNK     1      17.703  14.564   5.749  1.00  0.00     0.005 C 
ENDBRANCH  24  25
ENDBRANCH  23  24
ENDBRANCH   3  23
TORSDOF 7
ENDMDL
MODEL 7
REMARK VINA RESULT:      -8.0     22.694     24.662
REMARK  7 active torsions:
REMARK  status: ('A' for Active; 'I' for Inactive)
REMARK    1  A    between atoms: C13_17  and  O2_2 
REMARK    2  A    between atoms: C15_19  and  O2_2 
REMARK    3  A    between atoms: C1_5  and  C2_6 
REMARK    4  A    between atoms: C1_5  and  C3_7 
REMARK    5  A    between atoms: C3_7  and  C6_10 
REMARK    6  A    between atoms: C15_19  and  C16_20 
REMARK    7  A    between atoms: C16_20  and  C17_21 
ROOT
HETATM    1  O1  UNK     1      17.780   9.602  10.100  1.00  0.00    -0.274 OA
HETATM    2  O3  UNK     1      19.514  11.064  10.022  1.00  0.00    -0.259 OA
HETATM    3  C2  UNK     1      17.613  11.611   8.694  1.00  0.00     0.024 A 
HETATM    4  C4  UNK     1      16.387  11.246   8.264  1.00  0.00    -0.037 A 
HETATM    5  C5  UNK     1      15.771  10.010   8.789  1.00  0.00     0.005 A 
HETATM    6  C7  UNK     1      16.492   9.229   9.689  1.00  0.00     0.092 A 
HETATM    7  C8  UNK     1      18.385  10.763   9.648  1.00  0.00     0.295 A 
HETATM    8  C9  UNK     1      15.590  12.026   7.248  1.00  0.00     0.050 C 
HETATM    9  C10 UNK     1      14.484   9.566   8.445  1.00  0.00     0.017 A 
HETATM   10  C11 UNK     1      15.984   8.046  10.232  1.00  0.00     0.075 A 
HETATM   11  C13 UNK     1      14.710   7.623   9.873  1.00  0.00     0.072 A 
HETATM   12  C14 UNK     1      13.960   8.384   8.980  1.00  0.00     0.038 A 
ENDROOT
BRANCH  11  13
HETATM   13  O2  UNK     1      14.197   6.475  10.391  1.00  0.00    -0.344 OA
BRANCH  13  14
HETATM   14  C15 UNK     1      13.724   5.498   9.465  1.00  0.00     0.259 C 
BRANCH  14  15
HETATM   15  C16 UNK     1      12.213   5.393   9.548  1.00  0.00     0.183 C 
HETATM   16  O4  UNK     1      11.648   5.034  10.577  1.00  0.00    -0.290 OA
BRANCH  15  17
HETATM   17  C17 UNK     1      11.404   5.733   8.342  1.00  0.00     0.012 A 
HETATM   18  C18 UNK     1      10.042   5.887   8.480  1.00  0.00     0.015 A 
HETATM   19  C20 UNK     1       9.287   6.206   7.352  1.00  0.00     0.001 A 
HETATM   20  C22 UNK     1       9.913   6.364   6.115  1.00  0.00     0.000 A 
HETATM   21  C21 UNK     1      11.294   6.202   6.008  1.00  0.00     0.001 A 
HETATM   22  C19 UNK     1      12.050   5.882   7.135  1.00  0.00     0.015 A 
ENDBRANCH  15  17
ENDBRANCH  14  15
ENDBRANCH  13  14
ENDBRANCH  11  13
BRANCH   3  23
HETATM   23  C1  UNK     1      18.327  12.876   8.289  1.00  0.00     0.045 C 
BRANCH  23  24
HETATM   24  C3  UNK     1      19.106  12.683   6.995  1.00  0.00     0.004 C 
BRANCH  24  25
HETATM   25  C6  UNK     1      18.624  13.660   5.923  1.00  0.00    -0.004 C 
HETATM   26  C12 UNK     1      19.451  13.543   4.651  1.00  0.00     0.005 C 
ENDBRANCH  24  25
ENDBRANCH  23  24
ENDBRANCH   3  23
TORSDOF 7
ENDMDL
MODEL 8
REMARK VINA RESULT:      -7.9      5.038      7.644
REMARK  7 active torsions:
REMARK  status: ('A' for Active; 'I' for Inactive)
REMARK    1  A    between atoms: C13_17  and  O2_2 
REMARK    2  A    between atoms: C15_19  and  O2_2 
REMARK    3  A    between atoms: C1_5  and  C2_6 
REMARK    4  A    between atoms: C1_5  and  C3_7 
REMARK    5  A    between atoms: C3_7  and  C6_10 
REMARK    6  A    between atoms: C15_19  and  C16_20 
REMARK    7  A    between atoms: C16_20  and  C17_21 
ROOT
HETATM    1  O1  UNK     1      18.626   1.019  31.491  1.00  0.00    -0.274 OA
HETATM    2  O3  UNK     1      18.708   2.263  29.595  1.00  0.00    -0.259 OA
HETATM    3  C2  UNK     1      18.401   3.462  31.631  1.00  0.00     0.024 A 
HETATM    4  C4  UNK     1      18.237   3.401  32.969  1.00  0.00    -0.037 A 
HETATM    5  C5  UNK     1      18.301   2.091  33.650  1.00  0.00     0.005 A 
HETATM    6  C7  UNK     1      18.492   0.944  32.885  1.00  0.00     0.092 A 
HETATM    7  C8  UNK     1      18.592   2.227  30.816  1.00  0.00     0.295 A 
HETATM    8  C9  UNK     1      17.971   4.607  33.835  1.00  0.00     0.050 C 
HETATM    9  C10 UNK     1      18.191   1.923  35.039  1.00  0.00     0.017 A 
HETATM   10  C11 UNK     1      18.564  -0.333  33.449  1.00  0.00     0.075 A 
HETATM   11  C13 UNK     1      18.447  -0.477  34.826  1.00  0.00     0.072 A 
HETATM   12  C14 UNK     1      18.262   0.651  35.621  1.00  0.00     0.038 A 
ENDROOT
BRANCH  11  13
HETATM   13  O2  UNK     1      18.516  -1.710  35.394  1.00  0.00    -0.344 OA
BRANCH  13  14
HETATM   14  C15 UNK     1      19.814  -2.280  35.558  1.00  0.00     0.259 C 
BRANCH  14  15
HETATM   15  C16 UNK     1      19.897  -3.012  36.883  1.00  0.00     0.183 C 
HETATM   16  O4  UNK     1      19.637  -2.454  37.945  1.00  0.00    -0.290 OA
BRANCH  15  17
HETATM   17  C17 UNK     1      20.308  -4.446  36.885  1.00  0.00     0.012 A 
HETATM   18  C18 UNK     1      19.792  -5.284  35.922  1.00  0.00     0.015 A 
HETATM   19  C20 UNK     1      20.179  -6.624  35.924  1.00  0.00     0.001 A 
HETATM   20  C22 UNK     1      21.071  -7.091  36.889  1.00  0.00     0.000 A 
HETATM   21  C21 UNK     1      21.577  -6.217  37.851  1.00  0.00     0.001 A 
HETATM   22  C19 UNK     1      21.191  -4.877  37.850  1.00  0.00     0.015 A 
ENDBRANCH  15  17
ENDBRANCH  14  15
ENDBRANCH  13  14
ENDBRANCH  11  13
BRANCH   3  23
HETATM   23  C1  UNK     1      18.422   4.734  30.823  1.00  0.00     0.045 C 
BRANCH  23  24
HETATM   24  C3  UNK     1      19.820   5.337  30.772  1.00  0.00     0.004 C 
BRANCH  24  25
HETATM   25  C6  UNK     1      19.964   6.456  31.804  1.00  0.00    -0.004 C 
HETATM   26  C12 UNK     1      21.202   6.263  32.666  1.00  0.00     0.005 C 
ENDBRANCH  24  25
ENDBRANCH  23  24
ENDBRANCH   3  23
TORSDOF 7
ENDMDL
MODEL 9
REMARK VINA RESULT:      -7.9     21.782     24.130
REMARK  7 active torsions:
REMARK  status: ('A' for Active; 'I' for Inactive)
REMARK    1  A    between atoms: C13_17  and  O2_2 
REMARK    2  A    between atoms: C15_19  and  O2_2 
REMARK    3  A    between atoms: C1_5  and  C2_6 
REMARK    4  A    between atoms: C1_5  and  C3_7 
REMARK    5  A    between atoms: C3_7  and  C6_10 
REMARK    6  A    between atoms: C15_19  and  C16_20 
REMARK    7  A    between atoms: C16_20  and  C17_21 
ROOT
HETATM    1  O1  UNK     1      12.437   8.284  10.167  1.00  0.00    -0.274 OA
HETATM    2  O3  UNK     1      13.642   9.616  11.555  1.00  0.00    -0.259 OA
HETATM    3  C2  UNK     1      14.794   7.754  10.615  1.00  0.00     0.024 A 
HETATM    4  C4  UNK     1      14.726   6.652   9.839  1.00  0.00    -0.037 A 
HETATM    5  C5  UNK     1      13.465   6.334   9.139  1.00  0.00     0.005 A 
HETATM    6  C7  UNK     1      12.362   7.162   9.329  1.00  0.00     0.092 A 
HETATM    7  C8  UNK     1      13.605   8.630  10.826  1.00  0.00     0.295 A 
HETATM    8  C9  UNK     1      15.874   5.693   9.646  1.00  0.00     0.050 C 
HETATM    9  C10 UNK     1      13.302   5.241   8.272  1.00  0.00     0.017 A 
HETATM   10  C11 UNK     1      11.132   6.933   8.706  1.00  0.00     0.075 A 
HETATM   11  C13 UNK     1      10.992   5.842   7.856  1.00  0.00     0.072 A 
HETATM   12  C14 UNK     1      12.077   4.997   7.639  1.00  0.00     0.038 A 
ENDROOT
BRANCH  11  13
HETATM   13  O2  UNK     1       9.804   5.602   7.240  1.00  0.00    -0.344 OA
BRANCH  13  14
HETATM   14  C15 UNK     1       8.684   6.380   7.660  1.00  0.00     0.259 C 
BRANCH  14  15
HETATM   15  C16 UNK     1       7.755   5.537   8.511  1.00  0.00     0.183 C 
HETATM   16  O4  UNK     1       7.418   4.406   8.171  1.00  0.00    -0.290 OA
BRANCH  15  17
HETATM   17  C17 UNK     1       7.241   6.105   9.791  1.00  0.00     0.012 A 
HETATM   18  C18 UNK     1       7.235   7.473   9.953  1.00  0.00     0.015 A 
HETATM   19  C20 UNK     1       6.753   8.003  11.149  1.00  0.00     0.001 A 
HETATM   20  C22 UNK     1       6.290   7.152  12.153  1.00  0.00     0.000 A 
HETATM   21  C21 UNK     1       6.309   5.770  11.959  1.00  0.00     0.001 A 
HETATM   22  C19 UNK     1       6.790   5.239  10.762  1.00  0.00     0.015 A 
ENDBRANCH  15  17
ENDBRANCH  14  15
ENDBRANCH  13  14
ENDBRANCH  11  13
BRANCH   3  23
HETATM   23  C1  UNK     1      16.033   8.228  11.331  1.00  0.00     0.045 C 
BRANCH  23  24
HETATM   24  C3  UNK     1      17.047   8.816  10.358  1.00  0.00     0.004 C 
BRANCH  24  25
HETATM   25  C6  UNK     1      16.818  10.317  10.181  1.00  0.00    -0.004 C 
HETATM   26  C12 UNK     1      16.201  10.630   8.826  1.00  0.00     0.005 C 
ENDBRANCH  24  25
ENDBRANCH  23  24
ENDBRANCH   3  23
TORSDOF 7
ENDMDL
MODEL 10
REMARK VINA RESULT:      -7.9      7.012      9.792
REMARK  7 active torsions:
REMARK  status: ('A' for Active; 'I' for Inactive)
REMARK    1  A    between atoms: C13_17  and  O2_2 
REMARK    2  A    between atoms: C15_19  and  O2_2 
REMARK    3  A    between atoms: C1_5  and  C2_6 
REMARK    4  A    between atoms: C1_5  and  C3_7 
REMARK    5  A    between atoms: C3_7  and  C6_10 
REMARK    6  A    between atoms: C15_19  and  C16_20 
REMARK    7  A    between atoms: C16_20  and  C17_21 
ROOT
HETATM    1  O1  UNK     1      19.399  -1.177  33.436  1.00  0.00    -0.274 OA
HETATM    2  O3  UNK     1      18.828   0.498  32.015  1.00  0.00    -0.259 OA
HETATM    3  C2  UNK     1      18.226   0.802  34.301  1.00  0.00     0.024 A 
HETATM    4  C4  UNK     1      18.205   0.283  35.546  1.00  0.00    -0.037 A 
HETATM    5  C5  UNK     1      18.841  -1.026  35.799  1.00  0.00     0.005 A 
HETATM    6  C7  UNK     1      19.415  -1.712  34.732  1.00  0.00     0.092 A 
HETATM    7  C8  UNK     1      18.831   0.055  33.159  1.00  0.00     0.295 A 
HETATM    8  C9  UNK     1      17.546   0.959  36.723  1.00  0.00     0.050 C 
HETATM    9  C10 UNK     1      18.916  -1.631  37.063  1.00  0.00     0.017 A 
HETATM   10  C11 UNK     1      20.036  -2.955  34.884  1.00  0.00     0.075 A 
HETATM   11  C13 UNK     1      20.095  -3.538  36.144  1.00  0.00     0.072 A 
HETATM   12  C14 UNK     1      19.535  -2.876  37.234  1.00  0.00     0.038 A 
ENDROOT
BRANCH  11  13
HETATM   13  O2  UNK     1      20.695  -4.746  36.313  1.00  0.00    -0.344 OA
BRANCH  13  14
HETATM   14  C15 UNK     1      19.846  -5.892  36.366  1.00  0.00     0.259 C 
BRANCH  14  15
HETATM   15  C16 UNK     1      20.372  -6.972  35.439  1.00  0.00     0.183 C 
HETATM   16  O4  UNK     1      20.662  -6.733  34.271  1.00  0.00    -0.290 OA
BRANCH  15  17
HETATM   17  C17 UNK     1      20.533  -8.356  35.971  1.00  0.00     0.012 A 
HETATM   18  C18 UNK     1      21.707  -9.030  35.716  1.00  0.00     0.015 A 
HETATM   19  C20 UNK     1      21.857 -10.324  36.214  1.00  0.00     0.001 A 
HETATM   20  C22 UNK     1      20.831 -10.910  36.955  1.00  0.00     0.000 A 
HETATM   21  C21 UNK     1      19.653 -10.201  37.196  1.00  0.00     0.001 A 
HETATM   22  C19 UNK     1      19.502  -8.907  36.698  1.00  0.00     0.015 A 
ENDBRANCH  15  17
ENDBRANCH  14  15
ENDBRANCH  13  14
ENDBRANCH  11  13
BRANCH   3  23
HETATM   23  C1  UNK     1      17.672   2.151  33.919  1.00  0.00     0.045 C 
BRANCH  23  24
HETATM   24  C3  UNK     1      18.631   3.272  34.301  1.00  0.00     0.004 C 
BRANCH  24  25
HETATM   25  C6  UNK     1      18.252   4.572  33.592  1.00  0.00    -0.004 C 
HETATM   26  C12 UNK     1      19.310   5.646  33.795  1.00  0.00     0.005 C 
ENDBRANCH  24  25
ENDBRANCH  23  24
ENDBRANCH   3  23
TORSDOF 7
ENDMDL
