MODEL 1
REMARK VINA RESULT:     -10.1      0.000      0.000
REMARK  6 active torsions:
REMARK  status: ('A' for Active; 'I' for Inactive)
REMARK    1  A    between atoms: C21_28  and  O4_4 
REMARK    2  A    between atoms: C5_12  and  N1_5 
REMARK    3  A    between atoms: C6_13  and  N2_6 
REMARK    4  A    between atoms: C17_24  and  N3_7 
REMARK       I    between atoms: C9_16  and  N3_7 
REMARK    5  A    between atoms: C5_12  and  C7_14 
REMARK    6  A    between atoms: C6_13  and  C9_16 
ROOT
HETATM    1  N1  UNK     1      19.298  -3.148  36.182  1.00  0.00     0.096 N 
HETATM    2  N2  UNK     1      18.300  -0.543  35.422  1.00  0.00     0.100 N 
HETATM    3  C1  UNK     1      20.045  -2.285  35.259  1.00  0.00     0.303 C 
HETATM    4  C2  UNK     1      18.498  -2.337  37.108  1.00  0.00     0.303 C 
HETATM    5  C3  UNK     1      19.097  -1.355  34.494  1.00  0.00     0.303 C 
HETATM    6  C4  UNK     1      17.551  -1.406  36.343  1.00  0.00     0.303 C 
ENDROOT
BRANCH   1   7
HETATM    7  C5  UNK     1      20.201  -4.033  36.913  1.00  0.00     0.312 C 
BRANCH   7   8
HETATM    8  C7  UNK     1      20.197  -5.419  36.367  1.00  0.00    -0.011 A 
HETATM    9  C10 UNK     1      20.287  -5.645  35.049  1.00  0.00     0.092 A 
HETATM   10  C13 UNK     1      20.287  -6.996  34.463  1.00  0.00     0.288 A 
HETATM   11  O1  UNK     1      20.188  -8.058  35.349  1.00  0.00    -0.275 OA
HETATM   12  O3  UNK     1      20.370  -7.163  33.252  1.00  0.00    -0.260 OA
HETATM   13  C11 UNK     1      20.094  -7.852  36.739  1.00  0.00     0.090 A 
HETATM   14  C8  UNK     1      20.094  -6.565  37.280  1.00  0.00     0.006 A 
HETATM   15  C14 UNK     1      19.998  -8.995  37.535  1.00  0.00     0.045 A 
HETATM   16  C12 UNK     1      19.996  -6.445  38.673  1.00  0.00     0.015 A 
HETATM   17  C16 UNK     1      19.899  -7.582  39.483  1.00  0.00     0.007 A 
HETATM   18  C15 UNK     1      19.901  -8.854  38.915  1.00  0.00    -0.059 A 
HETATM   19  C18 UNK     1      19.799 -10.061  39.785  1.00  0.00     0.048 C 
ENDBRANCH   7   8
ENDBRANCH   1   7
BRANCH   2  20
HETATM   20  C6  UNK     1      17.396   0.343  34.691  1.00  0.00     0.375 C 
BRANCH  20  21
HETATM   21  C9  UNK     1      18.153   1.584  34.251  1.00  0.00     0.250 C 
HETATM   22  O2  UNK     1      19.045   2.089  34.924  1.00  0.00    -0.271 OA
HETATM   23  N3  UNK     1      17.684   2.020  33.012  1.00  0.00    -0.326 N 
HETATM   24  H15 UNK     1      16.931   1.492  32.579  1.00  0.00     0.169 HD
BRANCH  23  25
HETATM   25  C17 UNK     1      18.129   3.137  32.265  1.00  0.00     0.037 A 
HETATM   26  C19 UNK     1      18.178   4.399  32.859  1.00  0.00     0.066 A 
HETATM   27  C21 UNK     1      18.617   5.499  32.124  1.00  0.00     0.070 A 
HETATM   28  C23 UNK     1      19.006   5.339  30.794  1.00  0.00     0.037 A 
HETATM   29  C22 UNK     1      18.958   4.077  30.200  1.00  0.00     0.005 A 
HETATM   30  C20 UNK     1      18.519   2.976  30.936  1.00  0.00     0.029 A 
BRANCH  27  31
HETATM   31  O4  UNK     1      18.664   6.730  32.702  1.00  0.00    -0.356 OA
HETATM   32  C24 UNK     1      19.792   7.016  33.529  1.00  0.00     0.210 C 
ENDBRANCH  27  31
ENDBRANCH  23  25
ENDBRANCH  20  21
ENDBRANCH   2  20
TORSDOF 6
ENDMDL
MODEL 2
REMARK VINA RESULT:     -10.1      2.622      3.120
REMARK  6 active torsions:
REMARK  status: ('A' for Active; 'I' for Inactive)
REMARK    1  A    between atoms: C21_28  and  O4_4 
REMARK    2  A    between atoms: C5_12  and  N1_5 
REMARK    3  A    between atoms: C6_13  and  N2_6 
REMARK    4  A    between atoms: C17_24  and  N3_7 
REMARK       I    between atoms: C9_16  and  N3_7 
REMARK    5  A    between atoms: C5_12  and  C7_14 
REMARK    6  A    between atoms: C6_13  and  C9_16 
ROOT
HETATM    1  N1  UNK     1      19.486  -3.703  36.403  1.00  0.00     0.096 N 
HETATM    2  N2  UNK     1      18.927  -0.923  35.843  1.00  0.00     0.100 N 
HETATM    3  C1  UNK     1      20.557  -2.770  36.031  1.00  0.00     0.303 C 
HETATM    4  C2  UNK     1      18.400  -2.991  37.086  1.00  0.00     0.303 C 
HETATM    5  C3  UNK     1      20.012  -1.635  35.157  1.00  0.00     0.303 C 
HETATM    6  C4  UNK     1      17.856  -1.855  36.212  1.00  0.00     0.303 C 
ENDROOT
BRANCH   1   7
HETATM    7  C5  UNK     1      20.005  -4.784  37.238  1.00  0.00     0.312 C 
BRANCH   7   8
HETATM    8  C7  UNK     1      20.107  -6.071  36.495  1.00  0.00    -0.011 A 
HETATM    9  C10 UNK     1      20.365  -6.093  35.180  1.00  0.00     0.092 A 
HETATM   10  C13 UNK     1      20.476  -7.340  34.404  1.00  0.00     0.288 A 
HETATM   11  O1  UNK     1      20.299  -8.524  35.101  1.00  0.00    -0.275 OA
HETATM   12  O3  UNK     1      20.713  -7.320  33.201  1.00  0.00    -0.260 OA
HETATM   13  C11 UNK     1      20.028  -8.533  36.483  1.00  0.00     0.090 A 
HETATM   14  C8  UNK     1      19.925  -7.343  37.206  1.00  0.00     0.006 A 
HETATM   15  C14 UNK     1      19.868  -9.784  37.081  1.00  0.00     0.045 A 
HETATM   16  C12 UNK     1      19.652  -7.437  38.578  1.00  0.00     0.015 A 
HETATM   17  C16 UNK     1      19.489  -8.684  39.190  1.00  0.00     0.007 A 
HETATM   18  C15 UNK     1      19.597  -9.856  38.443  1.00  0.00    -0.059 A 
HETATM   19  C18 UNK     1      19.423 -11.182  39.104  1.00  0.00     0.048 C 
ENDBRANCH   7   8
ENDBRANCH   1   7
BRANCH   2  20
HETATM   20  C6  UNK     1      18.408   0.159  35.008  1.00  0.00     0.375 C 
BRANCH  20  21
HETATM   21  C9  UNK     1      18.248  -0.336  33.581  1.00  0.00     0.250 C 
HETATM   22  O2  UNK     1      17.301  -1.028  33.222  1.00  0.00    -0.271 OA
HETATM   23  N3  UNK     1      19.307   0.114  32.794  1.00  0.00    -0.326 N 
HETATM   24  H15 UNK     1      20.023   0.681  33.242  1.00  0.00     0.169 HD
BRANCH  23  25
HETATM   25  C17 UNK     1      19.523  -0.129  31.416  1.00  0.00     0.037 A 
HETATM   26  C19 UNK     1      18.982   0.733  30.462  1.00  0.00     0.066 A 
HETATM   27  C21 UNK     1      19.195   0.494  29.105  1.00  0.00     0.070 A 
HETATM   28  C23 UNK     1      19.950  -0.608  28.701  1.00  0.00     0.037 A 
HETATM   29  C22 UNK     1      20.493  -1.469  29.655  1.00  0.00     0.005 A 
HETATM   30  C20 UNK     1      20.279  -1.230  31.012  1.00  0.00     0.029 A 
BRANCH  27  31
HETATM   31  O4  UNK     1      18.666   1.334  28.174  1.00  0.00    -0.356 OA
HETATM   32  C24 UNK     1      17.895   2.434  28.654  1.00  0.00     0.210 C 
ENDBRANCH  27  31
ENDBRANCH  23  25
ENDBRANCH  20  21
ENDBRANCH   2  20
TORSDOF 6
ENDMDL
MODEL 3
REMARK VINA RESULT:      -9.9      5.218     12.812
REMARK  6 active torsions:
REMARK  status: ('A' for Active; 'I' for Inactive)
REMARK    1  A    between atoms: C21_28  and  O4_4 
REMARK    2  A    between atoms: C5_12  and  N1_5 
REMARK    3  A    between atoms: C6_13  and  N2_6 
REMARK    4  A    between atoms: C17_24  and  N3_7 
REMARK       I    between atoms: C9_16  and  N3_7 
REMARK    5  A    between atoms: C5_12  and  C7_14 
REMARK    6  A    between atoms: C6_13  and  C9_16 
ROOT
HETATM    1  N1  UNK     1      18.255   6.121  32.190  1.00  0.00     0.096 N 
HETATM    2  N2  UNK     1      18.981   4.120  30.234  1.00  0.00     0.100 N 
HETATM    3  C1  UNK     1      18.155   4.688  32.492  1.00  0.00     0.303 C 
HETATM    4  C2  UNK     1      19.319   6.365  31.208  1.00  0.00     0.303 C 
HETATM    5  C3  UNK     1      17.916   3.877  31.215  1.00  0.00     0.303 C 
HETATM    6  C4  UNK     1      19.080   5.552  29.930  1.00  0.00     0.303 C 
ENDROOT
BRANCH   1   7
HETATM    7  C5  UNK     1      18.486   6.894  33.408  1.00  0.00     0.312 C 
BRANCH   7   8
HETATM    8  C7  UNK     1      17.363   7.826  33.705  1.00  0.00    -0.011 A 
HETATM    9  C10 UNK     1      16.097   7.388  33.769  1.00  0.00     0.092 A 
HETATM   10  C13 UNK     1      14.955   8.271  34.059  1.00  0.00     0.288 A 
HETATM   11  O1  UNK     1      15.242   9.610  34.271  1.00  0.00    -0.275 OA
HETATM   12  O3  UNK     1      13.811   7.833  34.110  1.00  0.00    -0.260 OA
HETATM   13  C11 UNK     1      16.561  10.100  34.211  1.00  0.00     0.090 A 
HETATM   14  C8  UNK     1      17.635   9.251  33.934  1.00  0.00     0.006 A 
HETATM   15  C14 UNK     1      16.731  11.466  34.440  1.00  0.00     0.045 A 
HETATM   16  C12 UNK     1      18.916   9.817  33.891  1.00  0.00     0.015 A 
HETATM   17  C16 UNK     1      19.102  11.185  34.118  1.00  0.00     0.007 A 
HETATM   18  C15 UNK     1      18.012  12.008  34.393  1.00  0.00    -0.059 A 
HETATM   19  C18 UNK     1      18.218  13.465  34.636  1.00  0.00     0.048 C 
ENDBRANCH   7   8
ENDBRANCH   1   7
BRANCH   2  20
HETATM   20  C6  UNK     1      18.752   3.346  29.016  1.00  0.00     0.375 C 
BRANCH  20  21
HETATM   21  C9  UNK     1      18.569   1.881  29.375  1.00  0.00     0.250 C 
HETATM   22  O2  UNK     1      17.493   1.302  29.265  1.00  0.00    -0.271 OA
HETATM   23  N3  UNK     1      19.774   1.340  29.819  1.00  0.00    -0.326 N 
HETATM   24  H15 UNK     1      20.584   1.955  29.857  1.00  0.00     0.169 HD
BRANCH  23  25
HETATM   25  C17 UNK     1      20.020   0.013  30.245  1.00  0.00     0.037 A 
HETATM   26  C19 UNK     1      19.812  -0.343  31.578  1.00  0.00     0.066 A 
HETATM   27  C21 UNK     1      20.054  -1.650  31.996  1.00  0.00     0.070 A 
HETATM   28  C23 UNK     1      20.503  -2.604  31.083  1.00  0.00     0.037 A 
HETATM   29  C22 UNK     1      20.710  -2.249  29.749  1.00  0.00     0.005 A 
HETATM   30  C20 UNK     1      20.468  -0.941  29.331  1.00  0.00     0.029 A 
BRANCH  27  31
HETATM   31  O4  UNK     1      19.852  -1.998  33.297  1.00  0.00    -0.356 OA
HETATM   32  C24 UNK     1      18.883  -1.247  34.027  1.00  0.00     0.210 C 
ENDBRANCH  27  31
ENDBRANCH  23  25
ENDBRANCH  20  21
ENDBRANCH   2  20
TORSDOF 6
ENDMDL
MODEL 4
REMARK VINA RESULT:      -9.7      5.058     12.498
REMARK  6 active torsions:
REMARK  status: ('A' for Active; 'I' for Inactive)
REMARK    1  A    between atoms: C21_28  and  O4_4 
REMARK    2  A    between atoms: C5_12  and  N1_5 
REMARK    3  A    between atoms: C6_13  and  N2_6 
REMARK    4  A    between atoms: C17_24  and  N3_7 
REMARK       I    between atoms: C9_16  and  N3_7 
REMARK    5  A    between atoms: C5_12  and  C7_14 
REMARK    6  A    between atoms: C6_13  and  C9_16 
ROOT
HETATM    1  N1  UNK     1      18.126   5.702  32.910  1.00  0.00     0.096 N 
HETATM    2  N2  UNK     1      18.896   4.140  30.602  1.00  0.00     0.100 N 
HETATM    3  C1  UNK     1      18.151   4.235  32.956  1.00  0.00     0.303 C 
HETATM    4  C2  UNK     1      19.114   6.202  31.946  1.00  0.00     0.303 C 
HETATM    5  C3  UNK     1      17.906   3.641  31.565  1.00  0.00     0.303 C 
HETATM    6  C4  UNK     1      18.870   5.607  30.554  1.00  0.00     0.303 C 
ENDROOT
BRANCH   1   7
HETATM    7  C5  UNK     1      18.362   6.268  34.236  1.00  0.00     0.312 C 
BRANCH   7   8
HETATM    8  C7  UNK     1      18.363   7.757  34.221  1.00  0.00    -0.011 A 
HETATM    9  C10 UNK     1      19.502   8.451  34.363  1.00  0.00     0.092 A 
HETATM   10  C13 UNK     1      19.553   9.922  34.354  1.00  0.00     0.288 A 
HETATM   11  O1  UNK     1      18.347  10.586  34.188  1.00  0.00    -0.275 OA
HETATM   12  O3  UNK     1      20.614  10.522  34.487  1.00  0.00    -0.260 OA
HETATM   13  C11 UNK     1      17.135   9.885  34.035  1.00  0.00     0.090 A 
HETATM   14  C8  UNK     1      17.102   8.489  34.046  1.00  0.00     0.006 A 
HETATM   15  C14 UNK     1      15.983  10.656  33.875  1.00  0.00     0.045 A 
HETATM   16  C12 UNK     1      15.856   7.867  33.889  1.00  0.00     0.015 A 
HETATM   17  C16 UNK     1      14.692   8.628  33.729  1.00  0.00     0.007 A 
HETATM   18  C15 UNK     1      14.756  10.020  33.721  1.00  0.00    -0.059 A 
HETATM   19  C18 UNK     1      13.512  10.824  33.548  1.00  0.00     0.048 C 
ENDBRANCH   7   8
ENDBRANCH   1   7
BRANCH   2  20
HETATM   20  C6  UNK     1      18.662   3.574  29.276  1.00  0.00     0.375 C 
BRANCH  20  21
HETATM   21  C9  UNK     1      18.540   2.064  29.385  1.00  0.00     0.250 C 
HETATM   22  O2  UNK     1      17.524   1.456  29.061  1.00  0.00    -0.271 OA
HETATM   23  N3  UNK     1      19.722   1.520  29.885  1.00  0.00    -0.326 N 
HETATM   24  H15 UNK     1      20.479   2.161  30.112  1.00  0.00     0.169 HD
BRANCH  23  25
HETATM   25  C17 UNK     1      20.008   0.156  30.132  1.00  0.00     0.037 A 
HETATM   26  C19 UNK     1      20.049  -0.322  31.442  1.00  0.00     0.066 A 
HETATM   27  C21 UNK     1      20.330  -1.666  31.686  1.00  0.00     0.070 A 
HETATM   28  C23 UNK     1      20.570  -2.533  30.620  1.00  0.00     0.037 A 
HETATM   29  C22 UNK     1      20.528  -2.055  29.309  1.00  0.00     0.005 A 
HETATM   30  C20 UNK     1      20.247  -0.711  29.066  1.00  0.00     0.029 A 
BRANCH  27  31
HETATM   31  O4  UNK     1      20.371  -2.133  32.964  1.00  0.00    -0.356 OA
HETATM   32  C24 UNK     1      19.316  -1.731  33.837  1.00  0.00     0.210 C 
ENDBRANCH  27  31
ENDBRANCH  23  25
ENDBRANCH  20  21
ENDBRANCH   2  20
TORSDOF 6
ENDMDL
MODEL 5
REMARK VINA RESULT:      -9.4      3.879     11.476
REMARK  6 active torsions:
REMARK  status: ('A' for Active; 'I' for Inactive)
REMARK    1  A    between atoms: C21_28  and  O4_4 
REMARK    2  A    between atoms: C5_12  and  N1_5 
REMARK    3  A    between atoms: C6_13  and  N2_6 
REMARK    4  A    between atoms: C17_24  and  N3_7 
REMARK       I    between atoms: C9_16  and  N3_7 
REMARK    5  A    between atoms: C5_12  and  C7_14 
REMARK    6  A    between atoms: C6_13  and  C9_16 
ROOT
HETATM    1  N1  UNK     1      19.906  -4.325  36.476  1.00  0.00     0.096 N 
HETATM    2  N2  UNK     1      20.070  -7.186  36.861  1.00  0.00     0.100 N 
HETATM    3  C1  UNK     1      20.554  -4.899  37.661  1.00  0.00     0.303 C 
HETATM    4  C2  UNK     1      20.018  -5.243  35.336  1.00  0.00     0.303 C 
HETATM    5  C3  UNK     1      19.956  -6.268  38.001  1.00  0.00     0.303 C 
HETATM    6  C4  UNK     1      19.421  -6.613  35.676  1.00  0.00     0.303 C 
ENDROOT
BRANCH   1   7
HETATM    7  C5  UNK     1      20.478  -3.021  36.151  1.00  0.00     0.312 C 
BRANCH   7   8
HETATM    8  C7  UNK     1      19.540  -2.175  35.362  1.00  0.00    -0.011 A 
HETATM    9  C10 UNK     1      18.489  -1.579  35.942  1.00  0.00     0.092 A 
HETATM   10  C13 UNK     1      17.535  -0.734  35.203  1.00  0.00     0.288 A 
HETATM   11  O1  UNK     1      17.769  -0.572  33.847  1.00  0.00    -0.275 OA
HETATM   12  O3  UNK     1      16.585  -0.205  35.769  1.00  0.00    -0.260 OA
HETATM   13  C11 UNK     1      18.865  -1.185  33.209  1.00  0.00     0.090 A 
HETATM   14  C8  UNK     1      19.761  -1.984  33.922  1.00  0.00     0.006 A 
HETATM   15  C14 UNK     1      19.002  -0.953  31.839  1.00  0.00     0.045 A 
HETATM   16  C12 UNK     1      20.825  -2.559  33.214  1.00  0.00     0.015 A 
HETATM   17  C16 UNK     1      20.974  -2.336  31.841  1.00  0.00     0.007 A 
HETATM   18  C15 UNK     1      20.064  -1.533  31.155  1.00  0.00    -0.059 A 
HETATM   19  C18 UNK     1      20.231  -1.298  29.692  1.00  0.00     0.048 C 
ENDBRANCH   7   8
ENDBRANCH   1   7
BRANCH   2  20
HETATM   20  C6  UNK     1      19.500  -8.491  37.185  1.00  0.00     0.375 C 
BRANCH  20  21
HETATM   21  C9  UNK     1      20.619  -9.506  37.348  1.00  0.00     0.250 C 
HETATM   22  O2  UNK     1      20.509 -10.506  38.050  1.00  0.00    -0.271 OA
HETATM   23  N3  UNK     1      21.728  -9.124  36.595  1.00  0.00    -0.326 N 
HETATM   24  H15 UNK     1      21.665  -8.259  36.063  1.00  0.00     0.169 HD
BRANCH  23  25
HETATM   25  C17 UNK     1      22.967  -9.799  36.479  1.00  0.00     0.037 A 
HETATM   26  C19 UNK     1      23.027 -11.044  35.852  1.00  0.00     0.066 A 
HETATM   27  C21 UNK     1      24.247 -11.709  35.737  1.00  0.00     0.070 A 
HETATM   28  C23 UNK     1      25.408 -11.130  36.249  1.00  0.00     0.037 A 
HETATM   29  C22 UNK     1      25.348  -9.884  36.876  1.00  0.00     0.005 A 
HETATM   30  C20 UNK     1      24.127  -9.219  36.990  1.00  0.00     0.029 A 
BRANCH  27  31
HETATM   31  O4  UNK     1      24.306 -12.924  35.126  1.00  0.00    -0.356 OA
HETATM   32  C24 UNK     1      24.650 -14.044  35.940  1.00  0.00     0.210 C 
ENDBRANCH  27  31
ENDBRANCH  23  25
ENDBRANCH  20  21
ENDBRANCH   2  20
TORSDOF 6
ENDMDL
MODEL 6
REMARK VINA RESULT:      -9.3      4.044     12.500
REMARK  6 active torsions:
REMARK  status: ('A' for Active; 'I' for Inactive)
REMARK    1  A    between atoms: C21_28  and  O4_4 
REMARK    2  A    between atoms: C5_12  and  N1_5 
REMARK    3  A    between atoms: C6_13  and  N2_6 
REMARK    4  A    between atoms: C17_24  and  N3_7 
REMARK       I    between atoms: C9_16  and  N3_7 
REMARK    5  A    between atoms: C5_12  and  C7_14 
REMARK    6  A    between atoms: C6_13  and  C9_16 
ROOT
HETATM    1  N1  UNK     1      18.059   5.364  31.565  1.00  0.00     0.096 N 
HETATM    2  N2  UNK     1      18.991   2.694  30.964  1.00  0.00     0.100 N 
HETATM    3  C1  UNK     1      18.278   4.376  32.628  1.00  0.00     0.303 C 
HETATM    4  C2  UNK     1      18.957   5.107  30.433  1.00  0.00     0.303 C 
HETATM    5  C3  UNK     1      18.091   2.952  32.095  1.00  0.00     0.303 C 
HETATM    6  C4  UNK     1      18.771   3.681  29.900  1.00  0.00     0.303 C 
ENDROOT
BRANCH   1   7
HETATM    7  C5  UNK     1      18.240   6.722  32.072  1.00  0.00     0.312 C 
BRANCH   7   8
HETATM    8  C7  UNK     1      16.942   7.390  32.370  1.00  0.00    -0.011 A 
HETATM    9  C10 UNK     1      15.777   6.829  32.016  1.00  0.00     0.092 A 
HETATM   10  C13 UNK     1      14.470   7.451  32.289  1.00  0.00     0.288 A 
HETATM   11  O1  UNK     1      14.487   8.672  32.944  1.00  0.00    -0.275 OA
HETATM   12  O3  UNK     1      13.425   6.907  31.950  1.00  0.00    -0.260 OA
HETATM   13  C11 UNK     1      15.695   9.286  33.329  1.00  0.00     0.090 A 
HETATM   14  C8  UNK     1      16.927   8.685  33.063  1.00  0.00     0.006 A 
HETATM   15  C14 UNK     1      15.591  10.515  33.982  1.00  0.00     0.045 A 
HETATM   16  C12 UNK     1      18.082   9.361  33.478  1.00  0.00     0.015 A 
HETATM   17  C16 UNK     1      17.994  10.594  34.133  1.00  0.00     0.007 A 
HETATM   18  C15 UNK     1      16.750  11.170  34.385  1.00  0.00    -0.059 A 
HETATM   19  C18 UNK     1      16.663  12.483  35.086  1.00  0.00     0.048 C 
ENDBRANCH   7   8
ENDBRANCH   1   7
BRANCH   2  20
HETATM   20  C6  UNK     1      18.811   1.336  30.457  1.00  0.00     0.375 C 
BRANCH  20  21
HETATM   21  C9  UNK     1      19.613   0.368  31.310  1.00  0.00     0.250 C 
HETATM   22  O2  UNK     1      20.776   0.071  31.060  1.00  0.00    -0.271 OA
HETATM   23  N3  UNK     1      18.837  -0.092  32.373  1.00  0.00    -0.326 N 
HETATM   24  H15 UNK     1      17.880   0.248  32.444  1.00  0.00     0.169 HD
BRANCH  23  25
HETATM   25  C17 UNK     1      19.217  -1.002  33.389  1.00  0.00     0.037 A 
HETATM   26  C19 UNK     1      18.757  -0.823  34.694  1.00  0.00     0.066 A 
HETATM   27  C21 UNK     1      19.131  -1.719  35.694  1.00  0.00     0.070 A 
HETATM   28  C23 UNK     1      19.964  -2.796  35.390  1.00  0.00     0.037 A 
HETATM   29  C22 UNK     1      20.423  -2.976  34.085  1.00  0.00     0.005 A 
HETATM   30  C20 UNK     1      20.049  -2.079  33.085  1.00  0.00     0.029 A 
BRANCH  27  31
HETATM   31  O4  UNK     1      18.684  -1.544  36.968  1.00  0.00    -0.356 OA
HETATM   32  C24 UNK     1      17.792  -0.454  37.199  1.00  0.00     0.210 C 
ENDBRANCH  27  31
ENDBRANCH  23  25
ENDBRANCH  20  21
ENDBRANCH   2  20
TORSDOF 6
ENDMDL
MODEL 7
REMARK VINA RESULT:      -9.3      3.923     10.979
REMARK  6 active torsions:
REMARK  status: ('A' for Active; 'I' for Inactive)
REMARK    1  A    between atoms: C21_28  and  O4_4 
REMARK    2  A    between atoms: C5_12  and  N1_5 
REMARK    3  A    between atoms: C6_13  and  N2_6 
REMARK    4  A    between atoms: C17_24  and  N3_7 
REMARK       I    between atoms: C9_16  and  N3_7 
REMARK    5  A    between atoms: C5_12  and  C7_14 
REMARK    6  A    between atoms: C6_13  and  C9_16 
ROOT
HETATM    1  N1  UNK     1      20.119  -3.970  36.472  1.00  0.00     0.096 N 
HETATM    2  N2  UNK     1      20.387  -6.821  36.870  1.00  0.00     0.100 N 
HETATM    3  C1  UNK     1      20.906  -4.514  37.585  1.00  0.00     0.303 C 
HETATM    4  C2  UNK     1      20.124  -4.902  35.337  1.00  0.00     0.303 C 
HETATM    5  C3  UNK     1      20.380  -5.890  38.005  1.00  0.00     0.303 C 
HETATM    6  C4  UNK     1      19.598  -6.279  35.758  1.00  0.00     0.303 C 
ENDROOT
BRANCH   1   7
HETATM    7  C5  UNK     1      20.623  -2.659  36.070  1.00  0.00     0.312 C 
BRANCH   7   8
HETATM    8  C7  UNK     1      19.732  -1.993  35.079  1.00  0.00    -0.011 A 
HETATM    9  C10 UNK     1      19.971  -2.080  33.763  1.00  0.00     0.092 A 
HETATM   10  C13 UNK     1      19.119  -1.440  32.747  1.00  0.00     0.288 A 
HETATM   11  O1  UNK     1      18.028  -0.722  33.212  1.00  0.00    -0.275 OA
HETATM   12  O3  UNK     1      19.370  -1.542  31.552  1.00  0.00    -0.260 OA
HETATM   13  C11 UNK     1      17.750  -0.613  34.589  1.00  0.00     0.090 A 
HETATM   14  C8  UNK     1      18.568  -1.226  35.541  1.00  0.00     0.006 A 
HETATM   15  C14 UNK     1      16.626   0.135  34.942  1.00  0.00     0.045 A 
HETATM   16  C12 UNK     1      18.223  -1.068  36.890  1.00  0.00     0.015 A 
HETATM   17  C16 UNK     1      17.099  -0.321  37.260  1.00  0.00     0.007 A 
HETATM   18  C15 UNK     1      16.302   0.279  36.287  1.00  0.00    -0.059 A 
HETATM   19  C18 UNK     1      15.104   1.072  36.688  1.00  0.00     0.048 C 
ENDBRANCH   7   8
ENDBRANCH   1   7
BRANCH   2  20
HETATM   20  C6  UNK     1      19.885  -8.133  37.271  1.00  0.00     0.375 C 
BRANCH  20  21
HETATM   21  C9  UNK     1      21.055  -9.045  37.597  1.00  0.00     0.250 C 
HETATM   22  O2  UNK     1      21.244  -9.505  38.718  1.00  0.00    -0.271 OA
HETATM   23  N3  UNK     1      21.830  -9.259  36.458  1.00  0.00    -0.326 N 
HETATM   24  H15 UNK     1      21.543  -8.800  35.597  1.00  0.00     0.169 HD
BRANCH  23  25
HETATM   25  C17 UNK     1      23.002 -10.046  36.347  1.00  0.00     0.037 A 
HETATM   26  C19 UNK     1      24.230  -9.532  36.764  1.00  0.00     0.066 A 
HETATM   27  C21 UNK     1      25.383 -10.308  36.655  1.00  0.00     0.070 A 
HETATM   28  C23 UNK     1      25.310 -11.597  36.128  1.00  0.00     0.037 A 
HETATM   29  C22 UNK     1      24.081 -12.112  35.711  1.00  0.00     0.005 A 
HETATM   30  C20 UNK     1      22.927 -11.335  35.821  1.00  0.00     0.029 A 
BRANCH  27  31
HETATM   31  O4  UNK     1      26.582  -9.807  37.061  1.00  0.00    -0.356 OA
HETATM   32  C24 UNK     1      26.621  -8.428  37.423  1.00  0.00     0.210 C 
ENDBRANCH  27  31
ENDBRANCH  23  25
ENDBRANCH  20  21
ENDBRANCH   2  20
TORSDOF 6
ENDMDL
MODEL 8
REMARK VINA RESULT:      -9.2      1.882      2.336
REMARK  6 active torsions:
REMARK  status: ('A' for Active; 'I' for Inactive)
REMARK    1  A    between atoms: C21_28  and  O4_4 
REMARK    2  A    between atoms: C5_12  and  N1_5 
REMARK    3  A    between atoms: C6_13  and  N2_6 
REMARK    4  A    between atoms: C17_24  and  N3_7 
REMARK       I    between atoms: C9_16  and  N3_7 
REMARK    5  A    between atoms: C5_12  and  C7_14 
REMARK    6  A    between atoms: C6_13  and  C9_16 
ROOT
HETATM    1  N1  UNK     1      19.246  -2.468  35.865  1.00  0.00     0.096 N 
HETATM    2  N2  UNK     1      18.326   0.132  34.998  1.00  0.00     0.100 N 
HETATM    3  C1  UNK     1      19.645  -1.912  34.567  1.00  0.00     0.303 C 
HETATM    4  C2  UNK     1      18.990  -1.389  36.828  1.00  0.00     0.303 C 
HETATM    5  C3  UNK     1      18.580  -0.947  34.036  1.00  0.00     0.303 C 
HETATM    6  C4  UNK     1      17.925  -0.423  36.296  1.00  0.00     0.303 C 
ENDROOT
BRANCH   1   7
HETATM    7  C5  UNK     1      20.263  -3.386  36.373  1.00  0.00     0.312 C 
BRANCH   7   8
HETATM    8  C7  UNK     1      19.682  -4.688  36.802  1.00  0.00    -0.011 A 
HETATM    9  C10 UNK     1      18.450  -5.057  36.423  1.00  0.00     0.092 A 
HETATM   10  C13 UNK     1      17.835  -6.333  36.822  1.00  0.00     0.288 A 
HETATM   11  O1  UNK     1      18.595  -7.166  37.627  1.00  0.00    -0.275 OA
HETATM   12  O3  UNK     1      16.705  -6.636  36.455  1.00  0.00    -0.260 OA
HETATM   13  C11 UNK     1      19.893  -6.808  38.040  1.00  0.00     0.090 A 
HETATM   14  C8  UNK     1      20.464  -5.593  37.655  1.00  0.00     0.006 A 
HETATM   15  C14 UNK     1      20.566  -7.724  38.850  1.00  0.00     0.045 A 
HETATM   16  C12 UNK     1      21.759  -5.311  38.110  1.00  0.00     0.015 A 
HETATM   17  C16 UNK     1      22.446  -6.219  38.922  1.00  0.00     0.007 A 
HETATM   18  C15 UNK     1      21.851  -7.424  39.291  1.00  0.00    -0.059 A 
HETATM   19  C18 UNK     1      22.590  -8.388  40.156  1.00  0.00     0.048 C 
ENDBRANCH   7   8
ENDBRANCH   1   7
BRANCH   2  20
HETATM   20  C6  UNK     1      17.310   1.051  34.491  1.00  0.00     0.375 C 
BRANCH  20  21
HETATM   21  C9  UNK     1      17.961   2.060  33.559  1.00  0.00     0.250 C 
HETATM   22  O2  UNK     1      18.450   1.744  32.479  1.00  0.00    -0.271 OA
HETATM   23  N3  UNK     1      17.901   3.337  34.114  1.00  0.00    -0.326 N 
HETATM   24  H15 UNK     1      17.462   3.437  35.027  1.00  0.00     0.169 HD
BRANCH  23  25
HETATM   25  C17 UNK     1      18.393   4.543  33.560  1.00  0.00     0.037 A 
HETATM   26  C19 UNK     1      17.677   5.191  32.553  1.00  0.00     0.066 A 
HETATM   27  C21 UNK     1      18.161   6.379  32.008  1.00  0.00     0.070 A 
HETATM   28  C23 UNK     1      19.361   6.921  32.469  1.00  0.00     0.037 A 
HETATM   29  C22 UNK     1      20.076   6.274  33.477  1.00  0.00     0.005 A 
HETATM   30  C20 UNK     1      19.592   5.085  34.022  1.00  0.00     0.029 A 
BRANCH  27  31
HETATM   31  O4  UNK     1      17.463   7.012  31.024  1.00  0.00    -0.356 OA
HETATM   32  C24 UNK     1      16.444   7.922  31.433  1.00  0.00     0.210 C 
ENDBRANCH  27  31
ENDBRANCH  23  25
ENDBRANCH  20  21
ENDBRANCH   2  20
TORSDOF 6
ENDMDL
MODEL 9
REMARK VINA RESULT:      -9.0      1.900      2.532
REMARK  6 active torsions:
REMARK  status: ('A' for Active; 'I' for Inactive)
REMARK    1  A    between atoms: C21_28  and  O4_4 
REMARK    2  A    between atoms: C5_12  and  N1_5 
REMARK    3  A    between atoms: C6_13  and  N2_6 
REMARK    4  A    between atoms: C17_24  and  N3_7 
REMARK       I    between atoms: C9_16  and  N3_7 
REMARK    5  A    between atoms: C5_12  and  C7_14 
REMARK    6  A    between atoms: C6_13  and  C9_16 
ROOT
HETATM    1  N1  UNK     1      19.448  -3.115  36.340  1.00  0.00     0.096 N 
HETATM    2  N2  UNK     1      18.378  -0.437  36.553  1.00  0.00     0.100 N 
HETATM    3  C1  UNK     1      19.657  -2.124  35.277  1.00  0.00     0.303 C 
HETATM    4  C2  UNK     1      19.310  -2.450  37.641  1.00  0.00     0.303 C 
HETATM    5  C3  UNK     1      18.514  -1.103  35.251  1.00  0.00     0.303 C 
HETATM    6  C4  UNK     1      18.168  -1.428  37.615  1.00  0.00     0.303 C 
ENDROOT
BRANCH   1   7
HETATM    7  C5  UNK     1      20.540  -4.086  36.366  1.00  0.00     0.312 C 
BRANCH   7   8
HETATM    8  C7  UNK     1      20.055  -5.470  36.628  1.00  0.00    -0.011 A 
HETATM    9  C10 UNK     1      19.018  -5.981  35.950  1.00  0.00     0.092 A 
HETATM   10  C13 UNK     1      18.504  -7.342  36.173  1.00  0.00     0.288 A 
HETATM   11  O1  UNK     1      19.150  -8.101  37.137  1.00  0.00    -0.275 OA
HETATM   12  O3  UNK     1      17.552  -7.775  35.533  1.00  0.00    -0.260 OA
HETATM   13  C11 UNK     1      20.244  -7.592  37.864  1.00  0.00     0.090 A 
HETATM   14  C8  UNK     1      20.720  -6.299  37.642  1.00  0.00     0.006 A 
HETATM   15  C14 UNK     1      20.816  -8.445  38.809  1.00  0.00     0.045 A 
HETATM   16  C12 UNK     1      21.811  -5.868  38.408  1.00  0.00     0.015 A 
HETATM   17  C16 UNK     1      22.395  -6.711  39.360  1.00  0.00     0.007 A 
HETATM   18  C15 UNK     1      21.899  -7.998  39.560  1.00  0.00    -0.059 A 
HETATM   19  C18 UNK     1      22.527  -8.891  40.574  1.00  0.00     0.048 C 
ENDBRANCH   7   8
ENDBRANCH   1   7
BRANCH   2  20
HETATM   20  C6  UNK     1      17.288   0.535  36.527  1.00  0.00     0.375 C 
BRANCH  20  21
HETATM   21  C9  UNK     1      17.048   0.987  35.096  1.00  0.00     0.250 C 
HETATM   22  O2  UNK     1      16.095   0.596  34.430  1.00  0.00    -0.271 OA
HETATM   23  N3  UNK     1      18.042   1.879  34.700  1.00  0.00    -0.326 N 
HETATM   24  H15 UNK     1      18.773   2.104  35.371  1.00  0.00     0.169 HD
BRANCH  23  25
HETATM   25  C17 UNK     1      18.174   2.524  33.446  1.00  0.00     0.037 A 
HETATM   26  C19 UNK     1      18.260   1.766  32.278  1.00  0.00     0.066 A 
HETATM   27  C21 UNK     1      18.389   2.401  31.043  1.00  0.00     0.070 A 
HETATM   28  C23 UNK     1      18.432   3.794  30.976  1.00  0.00     0.037 A 
HETATM   29  C22 UNK     1      18.344   4.551  32.144  1.00  0.00     0.005 A 
HETATM   30  C20 UNK     1      18.215   3.916  33.379  1.00  0.00     0.029 A 
BRANCH  27  31
HETATM   31  O4  UNK     1      18.475   1.662  29.903  1.00  0.00    -0.356 OA
HETATM   32  C24 UNK     1      18.013   2.272  28.698  1.00  0.00     0.210 C 
ENDBRANCH  27  31
ENDBRANCH  23  25
ENDBRANCH  20  21
ENDBRANCH   2  20
TORSDOF 6
ENDMDL
MODEL 10
REMARK VINA RESULT:      -9.0      5.356     13.619
REMARK  6 active torsions:
REMARK  status: ('A' for Active; 'I' for Inactive)
REMARK    1  A    between atoms: C21_28  and  O4_4 
REMARK    2  A    between atoms: C5_12  and  N1_5 
REMARK    3  A    between atoms: C6_13  and  N2_6 
REMARK    4  A    between atoms: C17_24  and  N3_7 
REMARK       I    between atoms: C9_16  and  N3_7 
REMARK    5  A    between atoms: C5_12  and  C7_14 
REMARK    6  A    between atoms: C6_13  and  C9_16 
ROOT
HETATM    1  N1  UNK     1      18.130   7.593  33.504  1.00  0.00     0.096 N 
HETATM    2  N2  UNK     1      18.105   5.331  31.704  1.00  0.00     0.100 N 
HETATM    3  C1  UNK     1      17.125   7.476  32.440  1.00  0.00     0.303 C 
HETATM    4  C2  UNK     1      18.568   6.263  33.945  1.00  0.00     0.303 C 
HETATM    5  C3  UNK     1      17.670   6.661  31.263  1.00  0.00     0.303 C 
HETATM    6  C4  UNK     1      19.111   5.448  32.766  1.00  0.00     0.303 C 
ENDROOT
BRANCH   1   7
HETATM    7  C5  UNK     1      17.610   8.368  34.628  1.00  0.00     0.312 C 
BRANCH   7   8
HETATM    8  C7  UNK     1      17.464   9.813  34.297  1.00  0.00    -0.011 A 
HETATM    9  C10 UNK     1      18.490  10.516  33.797  1.00  0.00     0.092 A 
HETATM   10  C13 UNK     1      18.393  11.945  33.455  1.00  0.00     0.288 A 
HETATM   11  O1  UNK     1      17.168  12.556  33.672  1.00  0.00    -0.275 OA
HETATM   12  O3  UNK     1      19.354  12.556  33.000  1.00  0.00    -0.260 OA
HETATM   13  C11 UNK     1      16.071  11.843  34.194  1.00  0.00     0.090 A 
HETATM   14  C8  UNK     1      16.178  10.488  34.515  1.00  0.00     0.006 A 
HETATM   15  C14 UNK     1      14.887  12.560  34.372  1.00  0.00     0.045 A 
HETATM   16  C12 UNK     1      15.041   9.851  35.031  1.00  0.00     0.015 A 
HETATM   17  C16 UNK     1      13.847  10.557  35.216  1.00  0.00     0.007 A 
HETATM   18  C15 UNK     1      13.770  11.909  34.886  1.00  0.00    -0.059 A 
HETATM   19  C18 UNK     1      12.494  12.655  35.084  1.00  0.00     0.048 C 
ENDBRANCH   7   8
ENDBRANCH   1   7
BRANCH   2  20
HETATM   20  C6  UNK     1      18.625   4.555  30.581  1.00  0.00     0.375 C 
BRANCH  20  21
HETATM   21  C9  UNK     1      18.420   3.074  30.851  1.00  0.00     0.250 C 
HETATM   22  O2  UNK     1      17.451   2.641  31.466  1.00  0.00    -0.271 OA
HETATM   23  N3  UNK     1      19.467   2.335  30.302  1.00  0.00    -0.326 N 
HETATM   24  H15 UNK     1      20.204   2.844  29.820  1.00  0.00     0.169 HD
BRANCH  23  25
HETATM   25  C17 UNK     1      19.643   0.931  30.337  1.00  0.00     0.037 A 
HETATM   26  C19 UNK     1      19.393   0.225  31.514  1.00  0.00     0.066 A 
HETATM   27  C21 UNK     1      19.566  -1.158  31.548  1.00  0.00     0.070 A 
HETATM   28  C23 UNK     1      19.989  -1.837  30.406  1.00  0.00     0.037 A 
HETATM   29  C22 UNK     1      20.238  -1.131  29.228  1.00  0.00     0.005 A 
HETATM   30  C20 UNK     1      20.065   0.252  29.194  1.00  0.00     0.029 A 
BRANCH  27  31
HETATM   31  O4  UNK     1      19.323  -1.847  32.697  1.00  0.00    -0.356 OA
HETATM   32  C24 UNK     1      18.772  -1.114  33.790  1.00  0.00     0.210 C 
ENDBRANCH  27  31
ENDBRANCH  23  25
ENDBRANCH  20  21
ENDBRANCH   2  20
TORSDOF 6
ENDMDL
