MODEL 1
REMARK VINA RESULT:      -9.4      0.000      0.000
REMARK  6 active torsions:
REMARK  status: ('A' for Active; 'I' for Inactive)
REMARK    1  A    between atoms: C13_21  and  O1_2 
REMARK    2  A    between atoms: C17_25  and  O1_2 
REMARK    3  A    between atoms: C1_9  and  C10_18 
REMARK    4  A    between atoms: C11_19  and  C4_12 
REMARK    5  A    between atoms: C13_21  and  C8_16 
REMARK    6  A    between atoms: C12_20  and  C17_25 
ROOT
HETATM    1  O3  UNK     1      31.649 -10.982  35.065  1.00  0.00    -0.293 OA
HETATM    2  N1  UNK     1      31.173  -6.333  34.285  1.00  0.00    -0.362 N 
HETATM    3  C1  UNK     1      29.899  -9.310  32.376  1.00  0.00     0.031 C 
HETATM    4  C2  UNK     1      31.350  -8.644  34.774  1.00  0.00     0.024 C 
HETATM    5  C3  UNK     1      30.501  -7.904  32.523  1.00  0.00     0.067 C 
HETATM    6  C4  UNK     1      31.829  -8.333  36.188  1.00  0.00     0.104 C 
HETATM    7  C5  UNK     1      31.027  -7.655  33.913  1.00  0.00     0.021 C 
HETATM    8  C6  UNK     1      30.886 -10.359  32.890  1.00  0.00     0.093 C 
HETATM    9  C7  UNK     1      31.298 -10.069  34.317  1.00  0.00     0.159 C 
HETATM   10  C8  UNK     1      32.082  -6.841  36.411  1.00  0.00     0.052 C 
HETATM   11  C9  UNK     1      31.729  -5.918  35.485  1.00  0.00     0.018 C 
HETATM   12  C15 UNK     1      31.889  -4.430  35.633  1.00  0.00     0.069 C 
HETATM   13  H7  UNK     1      30.923  -5.620  33.610  1.00  0.00     0.165 HD
ENDROOT
BRANCH   6  14
HETATM   14  C11 UNK     1      30.839  -8.849  37.198  1.00  0.00     0.029 A 
HETATM   15  C18 UNK     1      29.472  -8.271  37.208  1.00  0.00     0.194 A 
HETATM   16  O6  UNK     1      29.128  -7.395  36.427  1.00  0.00    -0.287 OA
HETATM   17  C23 UNK     1      28.542  -8.811  38.218  1.00  0.00     0.048 A 
HETATM   18  C26 UNK     1      28.987  -9.809  39.085  1.00  0.00     0.089 A 
HETATM   19  C28 UNK     1      27.233  -8.332  38.310  1.00  0.00     0.018 A 
HETATM   20  O4  UNK     1      30.261 -10.317  39.040  1.00  0.00    -0.321 OA
HETATM   21  C29 UNK     1      28.125 -10.334  40.048  1.00  0.00     0.038 A 
HETATM   22  C22 UNK     1      31.116  -9.804  38.095  1.00  0.00     0.154 A 
HETATM   23  C31 UNK     1      26.818  -9.858  40.142  1.00  0.00     0.003 A 
HETATM   24  C30 UNK     1      26.372  -8.858  39.274  1.00  0.00     0.001 A 
ENDBRANCH   6  14
BRANCH  10  25
HETATM   25  C13 UNK     1      32.772  -6.469  37.658  1.00  0.00     0.292 C 
HETATM   26  O5  UNK     1      32.208  -5.957  38.606  1.00  0.00    -0.259 OA
BRANCH  25  27
HETATM   27  O1  UNK     1      34.081  -6.796  37.534  1.00  0.00    -0.315 OA
BRANCH  27  28
HETATM   28  C17 UNK     1      34.942  -5.718  37.153  1.00  0.00     0.211 C 
BRANCH  28  29
HETATM   29  C12 UNK     1      35.608  -6.060  35.835  1.00  0.00     0.145 C 
HETATM   30  O2  UNK     1      35.156  -5.158  34.812  1.00  0.00    -0.384 OA
HETATM   31  C21 UNK     1      34.931  -5.912  33.611  1.00  0.00     0.168 C 
HETATM   32  C16 UNK     1      35.482  -7.301  33.852  1.00  0.00     0.029 C 
HETATM   33  C14 UNK     1      35.288  -7.459  35.340  1.00  0.00     0.036 C 
ENDBRANCH  28  29
ENDBRANCH  27  28
ENDBRANCH  25  27
ENDBRANCH  10  25
BRANCH   3  34
HETATM   34  C10 UNK     1      29.451  -9.590  30.954  1.00  0.00    -0.053 A 
HETATM   35  C19 UNK     1      28.316  -8.961  30.447  1.00  0.00     0.010 A 
HETATM   36  C24 UNK     1      27.903  -9.218  29.140  1.00  0.00     0.043 A 
HETATM   37  C27 UNK     1      28.628 -10.104  28.342  1.00  0.00     0.116 A 
HETATM   38  C25 UNK     1      29.764 -10.732  28.851  1.00  0.00     0.043 A 
HETATM   39  F1  UNK     1      28.233 -10.350  27.086  1.00  0.00    -0.206 F 
HETATM   40  C20 UNK     1      30.177 -10.474  30.159  1.00  0.00     0.010 A 
ENDBRANCH   3  34
TORSDOF 6
ENDMDL
MODEL 2
REMARK VINA RESULT:      -9.4      4.063      7.888
REMARK  6 active torsions:
REMARK  status: ('A' for Active; 'I' for Inactive)
REMARK    1  A    between atoms: C13_21  and  O1_2 
REMARK    2  A    between atoms: C17_25  and  O1_2 
REMARK    3  A    between atoms: C1_9  and  C10_18 
REMARK    4  A    between atoms: C11_19  and  C4_12 
REMARK    5  A    between atoms: C13_21  and  C8_16 
REMARK    6  A    between atoms: C12_20  and  C17_25 
ROOT
HETATM    1  O3  UNK     1      28.986 -10.041  33.824  1.00  0.00    -0.293 OA
HETATM    2  N1  UNK     1      32.355  -7.118  32.225  1.00  0.00    -0.362 N 
HETATM    3  C1  UNK     1      30.604  -7.303  35.547  1.00  0.00     0.031 C 
HETATM    4  C2  UNK     1      30.746  -8.669  33.014  1.00  0.00     0.024 C 
HETATM    5  C3  UNK     1      31.231  -6.585  34.342  1.00  0.00     0.067 C 
HETATM    6  C4  UNK     1      31.021  -9.593  31.833  1.00  0.00     0.104 C 
HETATM    7  C5  UNK     1      31.425  -7.512  33.168  1.00  0.00     0.021 C 
HETATM    8  C6  UNK     1      29.351  -8.064  35.111  1.00  0.00     0.093 C 
HETATM    9  C7  UNK     1      29.660  -9.023  33.982  1.00  0.00     0.159 C 
HETATM   10  C8  UNK     1      31.959  -8.967  30.799  1.00  0.00     0.052 C 
HETATM   11  C9  UNK     1      32.595  -7.795  31.040  1.00  0.00     0.018 C 
HETATM   12  C15 UNK     1      33.572  -7.127  30.111  1.00  0.00     0.069 C 
HETATM   13  H7  UNK     1      32.841  -6.242  32.375  1.00  0.00     0.165 HD
ENDROOT
BRANCH   6  14
HETATM   14  C11 UNK     1      31.582 -10.904  32.317  1.00  0.00     0.029 A 
HETATM   15  C18 UNK     1      30.879 -12.156  31.941  1.00  0.00     0.194 A 
HETATM   16  O6  UNK     1      29.866 -12.154  31.254  1.00  0.00    -0.287 OA
HETATM   17  C23 UNK     1      31.469 -13.412  32.442  1.00  0.00     0.048 A 
HETATM   18  C26 UNK     1      32.625 -13.354  33.221  1.00  0.00     0.089 A 
HETATM   19  C28 UNK     1      30.882 -14.644  32.144  1.00  0.00     0.018 A 
HETATM   20  O4  UNK     1      33.244 -12.173  33.544  1.00  0.00    -0.321 OA
HETATM   21  C29 UNK     1      33.200 -14.529  33.706  1.00  0.00     0.038 A 
HETATM   22  C22 UNK     1      32.682 -11.012  33.071  1.00  0.00     0.154 A 
HETATM   23  C31 UNK     1      32.616 -15.761  33.409  1.00  0.00     0.003 A 
HETATM   24  C30 UNK     1      31.459 -15.818  32.630  1.00  0.00     0.001 A 
ENDBRANCH   6  14
BRANCH  10  25
HETATM   25  C13 UNK     1      32.093  -9.676  29.516  1.00  0.00     0.292 C 
HETATM   26  O5  UNK     1      32.878 -10.588  29.336  1.00  0.00    -0.259 OA
BRANCH  25  27
HETATM   27  O1  UNK     1      31.216  -9.136  28.636  1.00  0.00    -0.315 OA
BRANCH  27  28
HETATM   28  C17 UNK     1      29.942  -9.785  28.574  1.00  0.00     0.211 C 
BRANCH  28  29
HETATM   29  C12 UNK     1      28.857  -8.775  28.893  1.00  0.00     0.145 C 
HETATM   30  O2  UNK     1      29.443  -7.479  29.099  1.00  0.00    -0.384 OA
HETATM   31  C21 UNK     1      28.791  -6.859  30.217  1.00  0.00     0.168 C 
HETATM   32  C16 UNK     1      27.604  -7.728  30.574  1.00  0.00     0.029 C 
HETATM   33  C14 UNK     1      28.084  -9.097  30.161  1.00  0.00     0.036 C 
ENDBRANCH  28  29
ENDBRANCH  27  28
ENDBRANCH  25  27
ENDBRANCH  10  25
BRANCH   3  34
HETATM   34  C10 UNK     1      30.328  -6.351  36.695  1.00  0.00    -0.053 A 
HETATM   35  C19 UNK     1      30.768  -5.031  36.623  1.00  0.00     0.010 A 
HETATM   36  C24 UNK     1      30.514  -4.154  37.678  1.00  0.00     0.043 A 
HETATM   37  C27 UNK     1      29.819  -4.601  38.802  1.00  0.00     0.116 A 
HETATM   38  C25 UNK     1      29.379  -5.922  38.871  1.00  0.00     0.043 A 
HETATM   39  F1  UNK     1      29.574  -3.760  39.815  1.00  0.00    -0.206 F 
HETATM   40  C20 UNK     1      29.634  -6.799  37.816  1.00  0.00     0.010 A 
ENDBRANCH   3  34
TORSDOF 6
ENDMDL
MODEL 3
REMARK VINA RESULT:      -9.4      4.858      8.291
REMARK  6 active torsions:
REMARK  status: ('A' for Active; 'I' for Inactive)
REMARK    1  A    between atoms: C13_21  and  O1_2 
REMARK    2  A    between atoms: C17_25  and  O1_2 
REMARK    3  A    between atoms: C1_9  and  C10_18 
REMARK    4  A    between atoms: C11_19  and  C4_12 
REMARK    5  A    between atoms: C13_21  and  C8_16 
REMARK    6  A    between atoms: C12_20  and  C17_25 
ROOT
HETATM    1  O3  UNK     1      34.226 -12.365  30.661  1.00  0.00    -0.293 OA
HETATM    2  N1  UNK     1      29.610 -11.861  29.719  1.00  0.00    -0.362 N 
HETATM    3  C1  UNK     1      31.453 -14.390  31.802  1.00  0.00     0.031 C 
HETATM    4  C2  UNK     1      31.916 -12.010  30.246  1.00  0.00     0.024 C 
HETATM    5  C3  UNK     1      30.378 -13.922  30.810  1.00  0.00     0.067 C 
HETATM    6  C4  UNK     1      32.153 -10.601  29.712  1.00  0.00     0.104 C 
HETATM    7  C5  UNK     1      30.680 -12.556  30.249  1.00  0.00     0.021 C 
HETATM    8  C6  UNK     1      32.842 -14.241  31.178  1.00  0.00     0.093 C 
HETATM    9  C7  UNK     1      33.083 -12.820  30.715  1.00  0.00     0.159 C 
HETATM   10  C8  UNK     1      30.918 -10.012  29.028  1.00  0.00     0.052 C 
HETATM   11  C9  UNK     1      29.717 -10.636  29.079  1.00  0.00     0.018 C 
HETATM   12  C15 UNK     1      28.438 -10.114  28.483  1.00  0.00     0.069 C 
HETATM   13  H7  UNK     1      28.700 -12.305  29.738  1.00  0.00     0.165 HD
ENDROOT
BRANCH   6  14
HETATM   14  C11 UNK     1      32.614  -9.695  30.822  1.00  0.00     0.029 A 
HETATM   15  C18 UNK     1      33.830  -8.871  30.604  1.00  0.00     0.194 A 
HETATM   16  O6  UNK     1      34.463  -8.907  29.558  1.00  0.00    -0.287 OA
HETATM   17  C23 UNK     1      34.239  -8.002  31.723  1.00  0.00     0.048 A 
HETATM   18  C26 UNK     1      33.480  -8.001  32.894  1.00  0.00     0.089 A 
HETATM   19  C28 UNK     1      35.370  -7.189  31.618  1.00  0.00     0.018 A 
HETATM   20  O4  UNK     1      32.360  -8.779  33.052  1.00  0.00    -0.321 OA
HETATM   21  C29 UNK     1      33.849  -7.187  33.965  1.00  0.00     0.038 A 
HETATM   22  C22 UNK     1      31.992  -9.584  32.002  1.00  0.00     0.154 A 
HETATM   23  C31 UNK     1      34.977  -6.375  33.863  1.00  0.00     0.003 A 
HETATM   24  C30 UNK     1      35.737  -6.376  32.691  1.00  0.00     0.001 A 
ENDBRANCH   6  14
BRANCH  10  25
HETATM   25  C13 UNK     1      31.116  -8.764  28.272  1.00  0.00     0.292 C 
HETATM   26  O5  UNK     1      31.983  -8.622  27.432  1.00  0.00    -0.259 OA
BRANCH  25  27
HETATM   27  O1  UNK     1      30.189  -7.865  28.684  1.00  0.00    -0.315 OA
BRANCH  27  28
HETATM   28  C17 UNK     1      30.640  -6.944  29.682  1.00  0.00     0.211 C 
BRANCH  28  29
HETATM   29  C12 UNK     1      29.524  -6.713  30.682  1.00  0.00     0.145 C 
HETATM   30  O2  UNK     1      29.325  -7.897  31.472  1.00  0.00    -0.384 OA
HETATM   31  C21 UNK     1      27.914  -8.102  31.635  1.00  0.00     0.168 C 
HETATM   32  C16 UNK     1      27.224  -6.863  31.103  1.00  0.00     0.029 C 
HETATM   33  C14 UNK     1      28.185  -6.405  30.034  1.00  0.00     0.036 C 
ENDBRANCH  28  29
ENDBRANCH  27  28
ENDBRANCH  25  27
ENDBRANCH  10  25
BRANCH   3  34
HETATM   34  C10 UNK     1      31.194 -15.800  32.297  1.00  0.00    -0.053 A 
HETATM   35  C19 UNK     1      31.596 -16.891  31.529  1.00  0.00     0.010 A 
HETATM   36  C24 UNK     1      31.358 -18.187  31.985  1.00  0.00     0.043 A 
HETATM   37  C27 UNK     1      30.719 -18.390  33.209  1.00  0.00     0.116 A 
HETATM   38  C25 UNK     1      30.318 -17.296  33.976  1.00  0.00     0.043 A 
HETATM   39  F1  UNK     1      30.491 -19.634  33.647  1.00  0.00    -0.206 F 
HETATM   40  C20 UNK     1      30.556 -15.999  33.520  1.00  0.00     0.010 A 
ENDBRANCH   3  34
TORSDOF 6
ENDMDL
MODEL 4
REMARK VINA RESULT:      -9.3      3.695      5.777
REMARK  6 active torsions:
REMARK  status: ('A' for Active; 'I' for Inactive)
REMARK    1  A    between atoms: C13_21  and  O1_2 
REMARK    2  A    between atoms: C17_25  and  O1_2 
REMARK    3  A    between atoms: C1_9  and  C10_18 
REMARK    4  A    between atoms: C11_19  and  C4_12 
REMARK    5  A    between atoms: C13_21  and  C8_16 
REMARK    6  A    between atoms: C12_20  and  C17_25 
ROOT
HETATM    1  O3  UNK     1      32.472  -8.941  34.362  1.00  0.00    -0.293 OA
HETATM    2  N1  UNK     1      28.879  -9.997  31.460  1.00  0.00    -0.362 N 
HETATM    3  C1  UNK     1      31.217 -12.198  33.415  1.00  0.00     0.031 C 
HETATM    4  C2  UNK     1      30.599  -9.418  32.984  1.00  0.00     0.024 C 
HETATM    5  C3  UNK     1      30.380 -11.797  32.191  1.00  0.00     0.067 C 
HETATM    6  C4  UNK     1      30.103  -7.976  33.033  1.00  0.00     0.104 C 
HETATM    7  C5  UNK     1      29.966 -10.348  32.237  1.00  0.00     0.021 C 
HETATM    8  C6  UNK     1      32.363 -11.205  33.615  1.00  0.00     0.093 C 
HETATM    9  C7  UNK     1      31.844  -9.788  33.727  1.00  0.00     0.159 C 
HETATM   10  C8  UNK     1      28.992  -7.699  32.018  1.00  0.00     0.052 C 
HETATM   11  C9  UNK     1      28.419  -8.698  31.307  1.00  0.00     0.018 C 
HETATM   12  C15 UNK     1      27.289  -8.534  30.328  1.00  0.00     0.069 C 
HETATM   13  H7  UNK     1      28.433 -10.723  30.912  1.00  0.00     0.165 HD
ENDROOT
BRANCH   6  14
HETATM   14  C11 UNK     1      29.636  -7.633  34.422  1.00  0.00     0.029 A 
HETATM   15  C18 UNK     1      30.232  -6.453  35.097  1.00  0.00     0.194 A 
HETATM   16  O6  UNK     1      31.085  -5.757  34.563  1.00  0.00    -0.287 OA
HETATM   17  C23 UNK     1      29.741  -6.162  36.457  1.00  0.00     0.048 A 
HETATM   18  C26 UNK     1      28.768  -6.990  37.019  1.00  0.00     0.089 A 
HETATM   19  C28 UNK     1      30.239  -5.074  37.178  1.00  0.00     0.018 A 
HETATM   20  O4  UNK     1      28.243  -8.071  36.357  1.00  0.00    -0.321 OA
HETATM   21  C29 UNK     1      28.289  -6.733  38.304  1.00  0.00     0.038 A 
HETATM   22  C22 UNK     1      28.711  -8.331  35.092  1.00  0.00     0.154 A 
HETATM   23  C31 UNK     1      28.785  -5.648  39.025  1.00  0.00     0.003 A 
HETATM   24  C30 UNK     1      29.759  -4.819  38.463  1.00  0.00     0.001 A 
ENDBRANCH   6  14
BRANCH  10  25
HETATM   25  C13 UNK     1      28.618  -6.289  31.821  1.00  0.00     0.292 C 
HETATM   26  O5  UNK     1      28.001  -5.640  32.643  1.00  0.00    -0.259 OA
BRANCH  25  27
HETATM   27  O1  UNK     1      29.076  -5.891  30.609  1.00  0.00    -0.315 OA
BRANCH  27  28
HETATM   28  C17 UNK     1      30.451  -5.496  30.580  1.00  0.00     0.211 C 
BRANCH  28  29
HETATM   29  C12 UNK     1      31.182  -6.322  29.540  1.00  0.00     0.145 C 
HETATM   30  O2  UNK     1      30.238  -7.099  28.784  1.00  0.00    -0.384 OA
HETATM   31  C21 UNK     1      30.786  -8.411  28.586  1.00  0.00     0.168 C 
HETATM   32  C16 UNK     1      32.225  -8.363  29.054  1.00  0.00     0.029 C 
HETATM   33  C14 UNK     1      32.167  -7.313  30.135  1.00  0.00     0.036 C 
ENDBRANCH  28  29
ENDBRANCH  27  28
ENDBRANCH  25  27
ENDBRANCH  10  25
BRANCH   3  34
HETATM   34  C10 UNK     1      31.706 -13.631  33.323  1.00  0.00    -0.053 A 
HETATM   35  C19 UNK     1      30.875 -14.616  32.795  1.00  0.00     0.010 A 
HETATM   36  C24 UNK     1      31.326 -15.934  32.711  1.00  0.00     0.043 A 
HETATM   37  C27 UNK     1      32.607 -16.262  33.153  1.00  0.00     0.116 A 
HETATM   38  C25 UNK     1      33.438 -15.273  33.680  1.00  0.00     0.043 A 
HETATM   39  F1  UNK     1      33.040 -17.527  33.071  1.00  0.00    -0.206 F 
HETATM   40  C20 UNK     1      32.987 -13.956  33.765  1.00  0.00     0.010 A 
ENDBRANCH   3  34
TORSDOF 6
ENDMDL
MODEL 5
REMARK VINA RESULT:      -9.2      3.807      5.610
REMARK  6 active torsions:
REMARK  status: ('A' for Active; 'I' for Inactive)
REMARK    1  A    between atoms: C13_21  and  O1_2 
REMARK    2  A    between atoms: C17_25  and  O1_2 
REMARK    3  A    between atoms: C1_9  and  C10_18 
REMARK    4  A    between atoms: C11_19  and  C4_12 
REMARK    5  A    between atoms: C13_21  and  C8_16 
REMARK    6  A    between atoms: C12_20  and  C17_25 
ROOT
HETATM    1  O3  UNK     1      32.360 -10.423  34.322  1.00  0.00    -0.293 OA
HETATM    2  N1  UNK     1      29.149 -10.310  30.840  1.00  0.00    -0.362 N 
HETATM    3  C1  UNK     1      30.799 -13.194  32.598  1.00  0.00     0.031 C 
HETATM    4  C2  UNK     1      30.676 -10.316  32.652  1.00  0.00     0.024 C 
HETATM    5  C3  UNK     1      30.234 -12.445  31.382  1.00  0.00     0.067 C 
HETATM    6  C4  UNK     1      30.398  -8.841  32.923  1.00  0.00     0.104 C 
HETATM    7  C5  UNK     1      30.037 -10.976  31.662  1.00  0.00     0.021 C 
HETATM    8  C6  UNK     1      32.035 -12.467  33.133  1.00  0.00     0.093 C 
HETATM    9  C7  UNK     1      31.721 -11.023  33.457  1.00  0.00     0.159 C 
HETATM   10  C8  UNK     1      29.513  -8.200  31.851  1.00  0.00     0.052 C 
HETATM   11  C9  UNK     1      28.916  -8.944  30.891  1.00  0.00     0.018 C 
HETATM   12  C15 UNK     1      27.991  -8.416  29.829  1.00  0.00     0.069 C 
HETATM   13  H7  UNK     1      28.692 -10.840  30.107  1.00  0.00     0.165 HD
ENDROOT
BRANCH   6  14
HETATM   14  C11 UNK     1      29.776  -8.670  34.282  1.00  0.00     0.029 A 
HETATM   15  C18 UNK     1      30.360  -7.666  35.206  1.00  0.00     0.194 A 
HETATM   16  O6  UNK     1      31.325  -6.979  34.898  1.00  0.00    -0.287 OA
HETATM   17  C23 UNK     1      29.714  -7.539  36.526  1.00  0.00     0.048 A 
HETATM   18  C26 UNK     1      28.616  -8.348  36.825  1.00  0.00     0.089 A 
HETATM   19  C28 UNK     1      30.189  -6.623  37.468  1.00  0.00     0.018 A 
HETATM   20  O4  UNK     1      28.107  -9.263  35.938  1.00  0.00    -0.321 OA
HETATM   21  C29 UNK     1      27.990  -8.245  38.067  1.00  0.00     0.038 A 
HETATM   22  C22 UNK     1      28.721  -9.371  34.714  1.00  0.00     0.154 A 
HETATM   23  C31 UNK     1      28.462  -7.331  39.008  1.00  0.00     0.003 A 
HETATM   24  C30 UNK     1      29.560  -6.522  38.710  1.00  0.00     0.001 A 
ENDBRANCH   6  14
BRANCH  10  25
HETATM   25  C13 UNK     1      29.388  -6.734  31.892  1.00  0.00     0.292 C 
HETATM   26  O5  UNK     1      28.383  -6.160  32.264  1.00  0.00    -0.259 OA
BRANCH  25  27
HETATM   27  O1  UNK     1      30.552  -6.194  31.456  1.00  0.00    -0.315 OA
BRANCH  27  28
HETATM   28  C17 UNK     1      30.524  -5.699  30.113  1.00  0.00     0.211 C 
BRANCH  28  29
HETATM   29  C12 UNK     1      31.573  -6.427  29.296  1.00  0.00     0.145 C 
HETATM   30  O2  UNK     1      30.936  -7.336  28.383  1.00  0.00    -0.384 OA
HETATM   31  C21 UNK     1      31.685  -8.560  28.367  1.00  0.00     0.168 C 
HETATM   32  C16 UNK     1      32.962  -8.308  29.140  1.00  0.00     0.029 C 
HETATM   33  C14 UNK     1      32.522  -7.264  30.136  1.00  0.00     0.036 C 
ENDBRANCH  28  29
ENDBRANCH  27  28
ENDBRANCH  25  27
ENDBRANCH  10  25
BRANCH   3  34
HETATM   34  C10 UNK     1      31.080 -14.651  32.287  1.00  0.00    -0.053 A 
HETATM   35  C19 UNK     1      31.435 -15.030  30.994  1.00  0.00     0.010 A 
HETATM   36  C24 UNK     1      31.693 -16.370  30.707  1.00  0.00     0.043 A 
HETATM   37  C27 UNK     1      31.596 -17.329  31.716  1.00  0.00     0.116 A 
HETATM   38  C25 UNK     1      31.241 -16.948  33.009  1.00  0.00     0.043 A 
HETATM   39  F1  UNK     1      31.845 -18.616  31.442  1.00  0.00    -0.206 F 
HETATM   40  C20 UNK     1      30.983 -15.607  33.296  1.00  0.00     0.010 A 
ENDBRANCH   3  34
TORSDOF 6
ENDMDL
MODEL 6
REMARK VINA RESULT:      -9.1      3.909      7.156
REMARK  6 active torsions:
REMARK  status: ('A' for Active; 'I' for Inactive)
REMARK    1  A    between atoms: C13_21  and  O1_2 
REMARK    2  A    between atoms: C17_25  and  O1_2 
REMARK    3  A    between atoms: C1_9  and  C10_18 
REMARK    4  A    between atoms: C11_19  and  C4_12 
REMARK    5  A    between atoms: C13_21  and  C8_16 
REMARK    6  A    between atoms: C12_20  and  C17_25 
ROOT
HETATM    1  O3  UNK     1      33.311 -10.558  33.300  1.00  0.00    -0.293 OA
HETATM    2  N1  UNK     1      35.550  -6.404  33.734  1.00  0.00    -0.362 N 
HETATM    3  C1  UNK     1      36.605  -9.633  32.124  1.00  0.00     0.031 C 
HETATM    4  C2  UNK     1      34.350  -8.428  33.451  1.00  0.00     0.024 C 
HETATM    5  C3  UNK     1      36.816  -8.356  32.951  1.00  0.00     0.067 C 
HETATM    6  C4  UNK     1      33.048  -7.740  33.849  1.00  0.00     0.104 C 
HETATM    7  C5  UNK     1      35.511  -7.741  33.388  1.00  0.00     0.021 C 
HETATM    8  C6  UNK     1      35.657 -10.583  32.858  1.00  0.00     0.093 C 
HETATM    9  C7  UNK     1      34.347  -9.901  33.187  1.00  0.00     0.159 C 
HETATM   10  C8  UNK     1      33.264  -6.308  34.344  1.00  0.00     0.052 C 
HETATM   11  C9  UNK     1      34.470  -5.701  34.246  1.00  0.00     0.018 C 
HETATM   12  C15 UNK     1      34.769  -4.285  34.655  1.00  0.00     0.069 C 
HETATM   13  H7  UNK     1      36.441  -5.925  33.676  1.00  0.00     0.165 HD
ENDROOT
BRANCH   6  14
HETATM   14  C11 UNK     1      32.079  -7.751  32.698  1.00  0.00     0.029 A 
HETATM   15  C18 UNK     1      30.700  -8.246  32.938  1.00  0.00     0.194 A 
HETATM   16  O6  UNK     1      30.331  -8.642  34.036  1.00  0.00    -0.287 OA
HETATM   17  C23 UNK     1      29.791  -8.238  31.776  1.00  0.00     0.048 A 
HETATM   18  C26 UNK     1      30.266  -7.776  30.548  1.00  0.00     0.089 A 
HETATM   19  C28 UNK     1      28.474  -8.684  31.899  1.00  0.00     0.018 A 
HETATM   20  O4  UNK     1      31.550  -7.326  30.370  1.00  0.00    -0.321 OA
HETATM   21  C29 UNK     1      29.424  -7.759  29.435  1.00  0.00     0.038 A 
HETATM   22  C22 UNK     1      32.385  -7.341  31.461  1.00  0.00     0.154 A 
HETATM   23  C31 UNK     1      28.108  -8.205  29.555  1.00  0.00     0.003 A 
HETATM   24  C30 UNK     1      27.633  -8.666  30.785  1.00  0.00     0.001 A 
ENDBRANCH   6  14
BRANCH  10  25
HETATM   25  C13 UNK     1      32.109  -5.649  34.976  1.00  0.00     0.292 C 
HETATM   26  O5  UNK     1      31.395  -4.855  34.396  1.00  0.00    -0.259 OA
BRANCH  25  27
HETATM   27  O1  UNK     1      32.017  -6.085  36.255  1.00  0.00    -0.315 OA
BRANCH  27  28
HETATM   28  C17 UNK     1      32.426  -5.138  37.249  1.00  0.00     0.211 C 
BRANCH  28  29
HETATM   29  C12 UNK     1      31.332  -5.013  38.291  1.00  0.00     0.145 C 
HETATM   30  O2  UNK     1      30.724  -6.296  38.516  1.00  0.00    -0.384 OA
HETATM   31  C21 UNK     1      29.304  -6.111  38.627  1.00  0.00     0.168 C 
HETATM   32  C16 UNK     1      29.057  -4.619  38.690  1.00  0.00     0.029 C 
HETATM   33  C14 UNK     1      30.209  -4.077  37.881  1.00  0.00     0.036 C 
ENDBRANCH  28  29
ENDBRANCH  27  28
ENDBRANCH  25  27
ENDBRANCH  10  25
BRANCH   3  34
HETATM   34  C10 UNK     1      37.918 -10.299  31.761  1.00  0.00    -0.053 A 
HETATM   35  C19 UNK     1      38.897 -10.481  32.735  1.00  0.00     0.010 A 
HETATM   36  C24 UNK     1      40.105 -11.094  32.402  1.00  0.00     0.043 A 
HETATM   37  C27 UNK     1      40.330 -11.524  31.094  1.00  0.00     0.116 A 
HETATM   38  C25 UNK     1      39.349 -11.340  30.120  1.00  0.00     0.043 A 
HETATM   39  F1  UNK     1      41.490 -12.112  30.773  1.00  0.00    -0.206 F 
HETATM   40  C20 UNK     1      38.141 -10.728  30.454  1.00  0.00     0.010 A 
ENDBRANCH   3  34
TORSDOF 6
ENDMDL
MODEL 7
REMARK VINA RESULT:      -9.0     32.152     35.955
REMARK  6 active torsions:
REMARK  status: ('A' for Active; 'I' for Inactive)
REMARK    1  A    between atoms: C13_21  and  O1_2 
REMARK    2  A    between atoms: C17_25  and  O1_2 
REMARK    3  A    between atoms: C1_9  and  C10_18 
REMARK    4  A    between atoms: C11_19  and  C4_12 
REMARK    5  A    between atoms: C13_21  and  C8_16 
REMARK    6  A    between atoms: C12_20  and  C17_25 
ROOT
HETATM    1  O3  UNK     1      19.428  12.782  12.273  1.00  0.00    -0.293 OA
HETATM    2  N1  UNK     1      20.667  13.827   7.821  1.00  0.00    -0.362 N 
HETATM    3  C1  UNK     1      22.683  12.528  10.716  1.00  0.00     0.031 C 
HETATM    4  C2  UNK     1      19.978  13.220  10.006  1.00  0.00     0.024 C 
HETATM    5  C3  UNK     1      22.432  13.392   9.471  1.00  0.00     0.067 C 
HETATM    6  C4  UNK     1      18.513  13.265   9.583  1.00  0.00     0.104 C 
HETATM    7  C5  UNK     1      20.968  13.473   9.122  1.00  0.00     0.021 C 
HETATM    8  C6  UNK     1      21.771  12.977  11.859  1.00  0.00     0.093 C 
HETATM    9  C7  UNK     1      20.317  12.953  11.439  1.00  0.00     0.159 C 
HETATM   10  C8  UNK     1      18.324  13.811   8.166  1.00  0.00     0.052 C 
HETATM   11  C9  UNK     1      19.381  14.041   7.350  1.00  0.00     0.018 C 
HETATM   12  C15 UNK     1      19.295  14.526   5.929  1.00  0.00     0.069 C 
HETATM   13  H7  UNK     1      21.437  14.011   7.189  1.00  0.00     0.165 HD
ENDROOT
BRANCH   6  14
HETATM   14  C11 UNK     1      17.895  11.898   9.700  1.00  0.00     0.029 A 
HETATM   15  C18 UNK     1      16.708  11.731  10.575  1.00  0.00     0.194 A 
HETATM   16  O6  UNK     1      16.221  12.664  11.198  1.00  0.00    -0.287 OA
HETATM   17  C23 UNK     1      16.142  10.371  10.655  1.00  0.00     0.048 A 
HETATM   18  C26 UNK     1      16.738   9.344   9.923  1.00  0.00     0.089 A 
HETATM   19  C28 UNK     1      15.025  10.110  11.452  1.00  0.00     0.018 A 
HETATM   20  O4  UNK     1      17.836   9.543   9.124  1.00  0.00    -0.321 OA
HETATM   21  C29 UNK     1      16.220   8.050   9.984  1.00  0.00     0.038 A 
HETATM   22  C22 UNK     1      18.352  10.815   9.060  1.00  0.00     0.154 A 
HETATM   23  C31 UNK     1      15.104   7.787  10.779  1.00  0.00     0.003 A 
HETATM   24  C30 UNK     1      14.508   8.815  11.512  1.00  0.00     0.001 A 
ENDBRANCH   6  14
BRANCH  10  25
HETATM   25  C13 UNK     1      16.944  14.119   7.758  1.00  0.00     0.292 C 
HETATM   26  O5  UNK     1      16.256  13.361   7.101  1.00  0.00    -0.259 OA
BRANCH  25  27
HETATM   27  O1  UNK     1      16.621  15.345   8.236  1.00  0.00    -0.315 OA
BRANCH  27  28
HETATM   28  C17 UNK     1      16.084  16.252   7.268  1.00  0.00     0.211 C 
BRANCH  28  29
HETATM   29  C12 UNK     1      14.651  16.578   7.638  1.00  0.00     0.145 C 
HETATM   30  O2  UNK     1      13.750  15.821   6.812  1.00  0.00    -0.384 OA
HETATM   31  C21 UNK     1      12.664  16.677   6.424  1.00  0.00     0.168 C 
HETATM   32  C16 UNK     1      12.797  17.952   7.229  1.00  0.00     0.029 C 
HETATM   33  C14 UNK     1      14.289  18.039   7.433  1.00  0.00     0.036 C 
ENDBRANCH  28  29
ENDBRANCH  27  28
ENDBRANCH  25  27
ENDBRANCH  10  25
BRANCH   3  34
HETATM   34  C10 UNK     1      24.146  12.521  11.117  1.00  0.00    -0.053 A 
HETATM   35  C19 UNK     1      24.619  13.459  12.032  1.00  0.00     0.010 A 
HETATM   36  C24 UNK     1      25.965  13.452  12.401  1.00  0.00     0.043 A 
HETATM   37  C27 UNK     1      26.832  12.505  11.855  1.00  0.00     0.116 A 
HETATM   38  C25 UNK     1      26.355  11.567  10.941  1.00  0.00     0.043 A 
HETATM   39  F1  UNK     1      28.123  12.498  12.210  1.00  0.00    -0.206 F 
HETATM   40  C20 UNK     1      25.010  11.574  10.571  1.00  0.00     0.010 A 
ENDBRANCH   3  34
TORSDOF 6
ENDMDL
MODEL 8
REMARK VINA RESULT:      -9.0      4.074      8.296
REMARK  6 active torsions:
REMARK  status: ('A' for Active; 'I' for Inactive)
REMARK    1  A    between atoms: C13_21  and  O1_2 
REMARK    2  A    between atoms: C17_25  and  O1_2 
REMARK    3  A    between atoms: C1_9  and  C10_18 
REMARK    4  A    between atoms: C11_19  and  C4_12 
REMARK    5  A    between atoms: C13_21  and  C8_16 
REMARK    6  A    between atoms: C12_20  and  C17_25 
ROOT
HETATM    1  O3  UNK     1      31.272 -10.332  34.804  1.00  0.00    -0.293 OA
HETATM    2  N1  UNK     1      31.615  -6.563  31.953  1.00  0.00    -0.362 N 
HETATM    3  C1  UNK     1      31.235  -6.824  35.684  1.00  0.00     0.031 C 
HETATM    4  C2  UNK     1      31.552  -8.478  33.347  1.00  0.00     0.024 C 
HETATM    5  C3  UNK     1      30.968  -6.221  34.297  1.00  0.00     0.067 C 
HETATM    6  C4  UNK     1      32.033  -9.359  32.199  1.00  0.00     0.104 C 
HETATM    7  C5  UNK     1      31.391  -7.147  33.185  1.00  0.00     0.021 C 
HETATM    8  C6  UNK     1      30.653  -8.236  35.764  1.00  0.00     0.093 C 
HETATM    9  C7  UNK     1      31.193  -9.112  34.654  1.00  0.00     0.159 C 
HETATM   10  C8  UNK     1      32.098  -8.610  30.867  1.00  0.00     0.052 C 
HETATM   11  C9  UNK     1      31.917  -7.270  30.800  1.00  0.00     0.018 C 
HETATM   12  C15 UNK     1      32.011  -6.439  29.549  1.00  0.00     0.069 C 
HETATM   13  H7  UNK     1      31.481  -5.562  31.871  1.00  0.00     0.165 HD
ENDROOT
BRANCH   6  14
HETATM   14  C11 UNK     1      33.377  -9.954  32.527  1.00  0.00     0.029 A 
HETATM   15  C18 UNK     1      33.553 -11.421  32.389  1.00  0.00     0.194 A 
HETATM   16  O6  UNK     1      32.647 -12.156  32.020  1.00  0.00    -0.287 OA
HETATM   17  C23 UNK     1      34.888 -11.953  32.724  1.00  0.00     0.048 A 
HETATM   18  C26 UNK     1      35.885 -11.069  33.141  1.00  0.00     0.089 A 
HETATM   19  C28 UNK     1      35.156 -13.320  32.628  1.00  0.00     0.018 A 
HETATM   20  O4  UNK     1      35.678  -9.718  33.253  1.00  0.00    -0.321 OA
HETATM   21  C29 UNK     1      37.154 -11.550  33.463  1.00  0.00     0.038 A 
HETATM   22  C22 UNK     1      34.430  -9.238  32.939  1.00  0.00     0.154 A 
HETATM   23  C31 UNK     1      37.424 -12.915  33.367  1.00  0.00     0.003 A 
HETATM   24  C30 UNK     1      36.426 -13.799  32.951  1.00  0.00     0.001 A 
ENDBRANCH   6  14
BRANCH  10  25
HETATM   25  C13 UNK     1      32.316  -9.428  29.662  1.00  0.00     0.292 C 
HETATM   26  O5  UNK     1      33.365  -9.445  29.047  1.00  0.00    -0.259 OA
BRANCH  25  27
HETATM   27  O1  UNK     1      31.177 -10.112  29.399  1.00  0.00    -0.315 OA
BRANCH  27  28
HETATM   28  C17 UNK     1      30.387  -9.586  28.327  1.00  0.00     0.211 C 
BRANCH  28  29
HETATM   29  C12 UNK     1      29.050  -9.130  28.876  1.00  0.00     0.145 C 
HETATM   30  O2  UNK     1      29.013  -7.695  28.943  1.00  0.00    -0.384 OA
HETATM   31  C21 UNK     1      28.385  -7.314  30.176  1.00  0.00     0.168 C 
HETATM   32  C16 UNK     1      27.816  -8.576  30.789  1.00  0.00     0.029 C 
HETATM   33  C14 UNK     1      28.772  -9.628  30.284  1.00  0.00     0.036 C 
ENDBRANCH  28  29
ENDBRANCH  27  28
ENDBRANCH  25  27
ENDBRANCH  10  25
BRANCH   3  34
HETATM   34  C10 UNK     1      30.728  -5.929  36.799  1.00  0.00    -0.053 A 
HETATM   35  C19 UNK     1      30.978  -4.559  36.758  1.00  0.00     0.010 A 
HETATM   36  C24 UNK     1      30.511  -3.736  37.783  1.00  0.00     0.043 A 
HETATM   37  C27 UNK     1      29.795  -4.286  38.847  1.00  0.00     0.116 A 
HETATM   38  C25 UNK     1      29.546  -5.658  38.885  1.00  0.00     0.043 A 
HETATM   39  F1  UNK     1      29.347  -3.496  39.831  1.00  0.00    -0.206 F 
HETATM   40  C20 UNK     1      30.013  -6.481  37.860  1.00  0.00     0.010 A 
ENDBRANCH   3  34
TORSDOF 6
ENDMDL
MODEL 9
REMARK VINA RESULT:      -8.9      3.171      4.341
REMARK  6 active torsions:
REMARK  status: ('A' for Active; 'I' for Inactive)
REMARK    1  A    between atoms: C13_21  and  O1_2 
REMARK    2  A    between atoms: C17_25  and  O1_2 
REMARK    3  A    between atoms: C1_9  and  C10_18 
REMARK    4  A    between atoms: C11_19  and  C4_12 
REMARK    5  A    between atoms: C13_21  and  C8_16 
REMARK    6  A    between atoms: C12_20  and  C17_25 
ROOT
HETATM    1  O3  UNK     1      31.717 -11.293  35.590  1.00  0.00    -0.293 OA
HETATM    2  N1  UNK     1      30.246  -9.660  31.392  1.00  0.00    -0.362 N 
HETATM    3  C1  UNK     1      30.769 -13.166  32.643  1.00  0.00     0.031 C 
HETATM    4  C2  UNK     1      30.885 -10.431  33.540  1.00  0.00     0.024 C 
HETATM    5  C3  UNK     1      30.821 -12.037  31.603  1.00  0.00     0.067 C 
HETATM    6  C4  UNK     1      30.650  -9.046  34.134  1.00  0.00     0.104 C 
HETATM    7  C5  UNK     1      30.655 -10.677  32.232  1.00  0.00     0.021 C 
HETATM    8  C6  UNK     1      31.732 -12.865  33.792  1.00  0.00     0.093 C 
HETATM    9  C7  UNK     1      31.440 -11.514  34.410  1.00  0.00     0.159 C 
HETATM   10  C8  UNK     1      30.343  -7.991  33.069  1.00  0.00     0.052 C 
HETATM   11  C9  UNK     1      30.132  -8.333  31.776  1.00  0.00     0.018 C 
HETATM   12  C15 UNK     1      29.775  -7.378  30.670  1.00  0.00     0.069 C 
HETATM   13  H7  UNK     1      30.086  -9.884  30.417  1.00  0.00     0.165 HD
ENDROOT
BRANCH   6  14
HETATM   14  C11 UNK     1      29.540  -9.097  35.150  1.00  0.00     0.029 A 
HETATM   15  C18 UNK     1      29.771  -8.481  36.481  1.00  0.00     0.194 A 
HETATM   16  O6  UNK     1      30.828  -7.938  36.774  1.00  0.00    -0.287 OA
HETATM   17  C23 UNK     1      28.653  -8.559  37.440  1.00  0.00     0.048 A 
HETATM   18  C26 UNK     1      27.470  -9.191  37.052  1.00  0.00     0.089 A 
HETATM   19  C28 UNK     1      28.771  -8.011  38.719  1.00  0.00     0.018 A 
HETATM   20  O4  UNK     1      27.300  -9.747  35.809  1.00  0.00    -0.321 OA
HETATM   21  C29 UNK     1      26.400  -9.278  37.943  1.00  0.00     0.038 A 
HETATM   22  C22 UNK     1      28.350  -9.667  34.928  1.00  0.00     0.154 A 
HETATM   23  C31 UNK     1      26.515  -8.731  39.220  1.00  0.00     0.003 A 
HETATM   24  C30 UNK     1      27.699  -8.099  39.608  1.00  0.00     0.001 A 
ENDBRANCH   6  14
BRANCH  10  25
HETATM   25  C13 UNK     1      30.340  -6.588  33.514  1.00  0.00     0.292 C 
HETATM   26  O5  UNK     1      29.323  -5.953  33.717  1.00  0.00    -0.259 OA
BRANCH  25  27
HETATM   27  O1  UNK     1      31.626  -6.178  33.643  1.00  0.00    -0.315 OA
BRANCH  27  28
HETATM   28  C17 UNK     1      31.847  -5.184  34.649  1.00  0.00     0.211 C 
BRANCH  28  29
HETATM   29  C12 UNK     1      33.204  -5.417  35.283  1.00  0.00     0.145 C 
HETATM   30  O2  UNK     1      33.641  -6.761  35.019  1.00  0.00    -0.384 OA
HETATM   31  C21 UNK     1      34.238  -7.286  36.214  1.00  0.00     0.168 C 
HETATM   32  C16 UNK     1      34.368  -6.133  37.187  1.00  0.00     0.029 C 
HETATM   33  C14 UNK     1      33.202  -5.261  36.794  1.00  0.00     0.036 C 
ENDBRANCH  28  29
ENDBRANCH  27  28
ENDBRANCH  25  27
ENDBRANCH  10  25
BRANCH   3  34
HETATM   34  C10 UNK     1      31.024 -14.525  32.020  1.00  0.00    -0.053 A 
HETATM   35  C19 UNK     1      31.041 -15.664  32.822  1.00  0.00     0.010 A 
HETATM   36  C24 UNK     1      31.276 -16.914  32.249  1.00  0.00     0.043 A 
HETATM   37  C27 UNK     1      31.492 -17.022  30.875  1.00  0.00     0.116 A 
HETATM   38  C25 UNK     1      31.474 -15.880  30.075  1.00  0.00     0.043 A 
HETATM   39  F1  UNK     1      31.716 -18.222  30.325  1.00  0.00    -0.206 F 
HETATM   40  C20 UNK     1      31.239 -14.630  30.648  1.00  0.00     0.010 A 
ENDBRANCH   3  34
TORSDOF 6
ENDMDL
MODEL 10
REMARK VINA RESULT:      -8.7     32.984     35.546
REMARK  6 active torsions:
REMARK  status: ('A' for Active; 'I' for Inactive)
REMARK    1  A    between atoms: C13_21  and  O1_2 
REMARK    2  A    between atoms: C17_25  and  O1_2 
REMARK    3  A    between atoms: C1_9  and  C10_18 
REMARK    4  A    between atoms: C11_19  and  C4_12 
REMARK    5  A    between atoms: C13_21  and  C8_16 
REMARK    6  A    between atoms: C12_20  and  C17_25 
ROOT
HETATM    1  O3  UNK     1      14.546  12.122   9.405  1.00  0.00    -0.293 OA
HETATM    2  N1  UNK     1      16.622   7.885   9.830  1.00  0.00    -0.362 N 
HETATM    3  C1  UNK     1      18.031  11.365  10.006  1.00  0.00     0.031 C 
HETATM    4  C2  UNK     1      15.522   9.980   9.714  1.00  0.00     0.024 C 
HETATM    5  C3  UNK     1      18.036   9.880   9.614  1.00  0.00     0.067 C 
HETATM    6  C4  UNK     1      14.165   9.305   9.879  1.00  0.00     0.104 C 
HETATM    7  C5  UNK     1      16.665   9.261   9.721  1.00  0.00     0.021 C 
HETATM    8  C6  UNK     1      16.928  12.105   9.248  1.00  0.00     0.093 C 
HETATM    9  C7  UNK     1      15.579  11.457   9.478  1.00  0.00     0.159 C 
HETATM   10  C8  UNK     1      14.257   7.778   9.840  1.00  0.00     0.052 C 
HETATM   11  C9  UNK     1      15.452   7.142   9.844  1.00  0.00     0.018 C 
HETATM   12  C15 UNK     1      15.644   5.650   9.858  1.00  0.00     0.069 C 
HETATM   13  H7  UNK     1      17.501   7.381   9.828  1.00  0.00     0.165 HD
ENDROOT
BRANCH   6  14
HETATM   14  C11 UNK     1      13.512   9.754  11.159  1.00  0.00     0.029 A 
HETATM   15  C18 UNK     1      12.146  10.331  11.091  1.00  0.00     0.194 A 
HETATM   16  O6  UNK     1      11.540  10.451  10.035  1.00  0.00    -0.287 OA
HETATM   17  C23 UNK     1      11.552  10.756  12.373  1.00  0.00     0.048 A 
HETATM   18  C26 UNK     1      12.289  10.597  13.548  1.00  0.00     0.089 A 
HETATM   19  C28 UNK     1      10.272  11.312  12.416  1.00  0.00     0.018 A 
HETATM   20  O4  UNK     1      13.550  10.057  13.564  1.00  0.00    -0.321 OA
HETATM   21  C29 UNK     1      11.747  10.992  14.771  1.00  0.00     0.038 A 
HETATM   22  C22 UNK     1      14.090   9.666  12.363  1.00  0.00     0.154 A 
HETATM   23  C31 UNK     1      10.469  11.547  14.817  1.00  0.00     0.003 A 
HETATM   24  C30 UNK     1       9.732  11.707  13.641  1.00  0.00     0.001 A 
ENDBRANCH   6  14
BRANCH  10  25
HETATM   25  C13 UNK     1      12.984   7.044   9.749  1.00  0.00     0.292 C 
HETATM   26  O5  UNK     1      12.581   6.295  10.617  1.00  0.00    -0.259 OA
BRANCH  25  27
HETATM   27  O1  UNK     1      12.394   7.359   8.570  1.00  0.00    -0.315 OA
BRANCH  27  28
HETATM   28  C17 UNK     1      12.612   6.418   7.513  1.00  0.00     0.211 C 
BRANCH  28  29
HETATM   29  C12 UNK     1      11.283   5.802   7.120  1.00  0.00     0.145 C 
HETATM   30  O2  UNK     1      11.008   6.079   5.737  1.00  0.00    -0.384 OA
HETATM   31  C21 UNK     1       9.618   6.412   5.609  1.00  0.00     0.168 C 
HETATM   32  C16 UNK     1       8.968   6.112   6.943  1.00  0.00     0.029 C 
HETATM   33  C14 UNK     1      10.105   6.350   7.905  1.00  0.00     0.036 C 
ENDBRANCH  28  29
ENDBRANCH  27  28
ENDBRANCH  25  27
ENDBRANCH  10  25
BRANCH   3  34
HETATM   34  C10 UNK     1      19.392  12.008   9.813  1.00  0.00    -0.053 A 
HETATM   35  C19 UNK     1      20.393  11.813  10.762  1.00  0.00     0.010 A 
HETATM   36  C24 UNK     1      21.644  12.404  10.584  1.00  0.00     0.043 A 
HETATM   37  C27 UNK     1      21.891  13.186   9.456  1.00  0.00     0.116 A 
HETATM   38  C25 UNK     1      20.888  13.379   8.507  1.00  0.00     0.043 A 
HETATM   39  F1  UNK     1      23.092  13.753   9.284  1.00  0.00    -0.206 F 
HETATM   40  C20 UNK     1      19.636  12.788   8.685  1.00  0.00     0.010 A 
ENDBRANCH   3  34
TORSDOF 6
ENDMDL
