MODEL 1
REMARK VINA RESULT:      -8.9      0.000      0.000
REMARK  5 active torsions:
REMARK  status: ('A' for Active; 'I' for Inactive)
REMARK    1  A    between atoms: C11_14  and  O2_2 
REMARK    2  A    between atoms: C15_18  and  O2_2 
REMARK    3  A    between atoms: C2_5  and  C4_7 
REMARK    4  A    between atoms: C4_7  and  C6_9 
REMARK    5  A    between atoms: C15_18  and  C18_21 
ROOT
HETATM    1  O1  UNK     1      28.254  -4.968  39.134  1.00  0.00    -0.274 OA
HETATM    2  O3  UNK     1      29.988  -3.538  39.454  1.00  0.00    -0.259 OA
HETATM    3  C1  UNK     1      30.114  -6.960  38.368  1.00  0.00    -0.036 A 
HETATM    4  C2  UNK     1      30.551  -5.725  38.696  1.00  0.00     0.029 A 
HETATM    5  C3  UNK     1      28.664  -7.244  38.377  1.00  0.00     0.005 A 
HETATM    6  C5  UNK     1      27.783  -6.236  38.761  1.00  0.00     0.092 A 
HETATM    7  C7  UNK     1      29.602  -4.654  39.120  1.00  0.00     0.295 A 
HETATM    8  C8  UNK     1      28.103  -8.476  38.008  1.00  0.00     0.017 A 
HETATM    9  C9  UNK     1      31.030  -8.101  38.000  1.00  0.00     0.050 C 
HETATM   10  C10 UNK     1      26.399  -6.420  38.798  1.00  0.00     0.075 A 
HETATM   11  C11 UNK     1      25.867  -7.651  38.434  1.00  0.00     0.071 A 
HETATM   12  C12 UNK     1      26.718  -8.678  38.037  1.00  0.00     0.038 A 
ENDROOT
BRANCH  11  13
HETATM   13  O2  UNK     1      24.522  -7.851  38.461  1.00  0.00    -0.347 OA
BRANCH  13  14
HETATM   14  C15 UNK     1      23.735  -6.886  39.161  1.00  0.00     0.214 C 
BRANCH  14  15
HETATM   15  C18 UNK     1      22.306  -7.341  39.182  1.00  0.00    -0.034 A 
HETATM   16  C20 UNK     1      22.013  -8.679  39.421  1.00  0.00     0.009 A 
HETATM   17  C22 UNK     1      20.684  -9.103  39.441  1.00  0.00     0.001 A 
HETATM   18  C24 UNK     1      19.656  -8.185  39.222  1.00  0.00     0.000 A 
HETATM   19  C23 UNK     1      19.958  -6.844  38.983  1.00  0.00     0.001 A 
HETATM   20  C21 UNK     1      21.286  -6.420  38.963  1.00  0.00     0.009 A 
ENDBRANCH  14  15
ENDBRANCH  13  14
ENDBRANCH  11  13
BRANCH   4  21
HETATM   21  C4  UNK     1      31.992  -5.286  38.667  1.00  0.00     0.084 C 
BRANCH  21  22
HETATM   22  C6  UNK     1      32.521  -5.173  37.268  1.00  0.00    -0.054 A 
HETATM   23  C13 UNK     1      33.725  -5.784  36.936  1.00  0.00     0.007 A 
HETATM   24  C16 UNK     1      34.217  -5.681  35.634  1.00  0.00     0.001 A 
HETATM   25  C19 UNK     1      33.501  -4.967  34.673  1.00  0.00     0.000 A 
HETATM   26  C17 UNK     1      32.294  -4.357  35.013  1.00  0.00     0.001 A 
HETATM   27  C14 UNK     1      31.802  -4.461  36.314  1.00  0.00     0.007 A 
ENDBRANCH  21  22
ENDBRANCH   4  21
TORSDOF 5
ENDMDL
MODEL 2
REMARK VINA RESULT:      -8.6      9.361     13.657
REMARK  5 active torsions:
REMARK  status: ('A' for Active; 'I' for Inactive)
REMARK    1  A    between atoms: C11_14  and  O2_2 
REMARK    2  A    between atoms: C15_18  and  O2_2 
REMARK    3  A    between atoms: C2_5  and  C4_7 
REMARK    4  A    between atoms: C4_7  and  C6_9 
REMARK    5  A    between atoms: C15_18  and  C18_21 
ROOT
HETATM    1  O1  UNK     1      19.782  -1.728  33.762  1.00  0.00    -0.274 OA
HETATM    2  O3  UNK     1      20.853  -3.712  34.032  1.00  0.00    -0.259 OA
HETATM    3  C1  UNK     1      19.021  -1.834  36.486  1.00  0.00    -0.036 A 
HETATM    4  C2  UNK     1      19.738  -2.845  35.951  1.00  0.00     0.029 A 
HETATM    5  C3  UNK     1      18.610  -0.702  35.630  1.00  0.00     0.005 A 
HETATM    6  C5  UNK     1      19.007  -0.688  34.296  1.00  0.00     0.092 A 
HETATM    7  C7  UNK     1      20.171  -2.817  34.523  1.00  0.00     0.295 A 
HETATM    8  C8  UNK     1      17.824   0.373  36.075  1.00  0.00     0.017 A 
HETATM    9  C9  UNK     1      18.615  -1.774  37.938  1.00  0.00     0.050 C 
HETATM   10  C10 UNK     1      18.663   0.343  33.419  1.00  0.00     0.075 A 
HETATM   11  C11 UNK     1      17.888   1.401  33.883  1.00  0.00     0.071 A 
HETATM   12  C12 UNK     1      17.469   1.415  35.209  1.00  0.00     0.038 A 
ENDROOT
BRANCH  11  13
HETATM   13  O2  UNK     1      17.541   2.414  33.045  1.00  0.00    -0.347 OA
BRANCH  13  14
HETATM   14  C15 UNK     1      18.300   2.553  31.843  1.00  0.00     0.214 C 
BRANCH  14  15
HETATM   15  C18 UNK     1      18.417   4.010  31.504  1.00  0.00    -0.034 A 
HETATM   16  C20 UNK     1      19.041   4.393  30.321  1.00  0.00     0.009 A 
HETATM   17  C22 UNK     1      19.150   5.748  30.006  1.00  0.00     0.001 A 
HETATM   18  C24 UNK     1      18.634   6.710  30.874  1.00  0.00     0.000 A 
HETATM   19  C23 UNK     1      18.009   6.318  32.059  1.00  0.00     0.001 A 
HETATM   20  C21 UNK     1      17.900   4.964  32.374  1.00  0.00     0.009 A 
ENDBRANCH  14  15
ENDBRANCH  13  14
ENDBRANCH  11  13
BRANCH   4  21
HETATM   21  C4  UNK     1      20.167  -4.085  36.693  1.00  0.00     0.084 C 
BRANCH  21  22
HETATM   22  C6  UNK     1      19.340  -5.280  36.321  1.00  0.00    -0.054 A 
HETATM   23  C13 UNK     1      19.915  -6.315  35.591  1.00  0.00     0.007 A 
HETATM   24  C16 UNK     1      19.147  -7.427  35.246  1.00  0.00     0.001 A 
HETATM   25  C19 UNK     1      17.809  -7.498  35.632  1.00  0.00     0.000 A 
HETATM   26  C17 UNK     1      17.238  -6.456  36.364  1.00  0.00     0.001 A 
HETATM   27  C14 UNK     1      18.007  -5.344  36.710  1.00  0.00     0.007 A 
ENDBRANCH  21  22
ENDBRANCH   4  21
TORSDOF 5
ENDMDL
MODEL 3
REMARK VINA RESULT:      -8.5     33.156     35.623
REMARK  5 active torsions:
REMARK  status: ('A' for Active; 'I' for Inactive)
REMARK    1  A    between atoms: C11_14  and  O2_2 
REMARK    2  A    between atoms: C15_18  and  O2_2 
REMARK    3  A    between atoms: C2_5  and  C4_7 
REMARK    4  A    between atoms: C4_7  and  C6_9 
REMARK    5  A    between atoms: C15_18  and  C18_21 
ROOT
HETATM    1  O1  UNK     1      16.001   6.379   9.782  1.00  0.00    -0.274 OA
HETATM    2  O3  UNK     1      14.843   4.426   9.745  1.00  0.00    -0.259 OA
HETATM    3  C1  UNK     1      13.537   7.773   9.787  1.00  0.00    -0.036 A 
HETATM    4  C2  UNK     1      13.544   6.424   9.741  1.00  0.00     0.029 A 
HETATM    5  C3  UNK     1      14.820   8.507   9.797  1.00  0.00     0.005 A 
HETATM    6  C5  UNK     1      16.009   7.782   9.795  1.00  0.00     0.092 A 
HETATM    7  C7  UNK     1      14.822   5.654   9.752  1.00  0.00     0.295 A 
HETATM    8  C8  UNK     1      14.923   9.906   9.796  1.00  0.00     0.017 A 
HETATM    9  C9  UNK     1      12.277   8.602   9.848  1.00  0.00     0.050 C 
HETATM   10  C10 UNK     1      17.263   8.396   9.804  1.00  0.00     0.075 A 
HETATM   11  C11 UNK     1      17.342   9.784   9.809  1.00  0.00     0.071 A 
HETATM   12  C12 UNK     1      16.173  10.538   9.804  1.00  0.00     0.038 A 
ENDROOT
BRANCH  11  13
HETATM   13  O2  UNK     1      18.554  10.401   9.816  1.00  0.00    -0.347 OA
BRANCH  13  14
HETATM   14  C15 UNK     1      18.558  11.825   9.919  1.00  0.00     0.214 C 
BRANCH  14  15
HETATM   15  C18 UNK     1      19.489  12.234  11.021  1.00  0.00    -0.034 A 
HETATM   16  C20 UNK     1      19.004  12.976  12.093  1.00  0.00     0.009 A 
HETATM   17  C22 UNK     1      19.870  13.356  13.118  1.00  0.00     0.001 A 
HETATM   18  C24 UNK     1      21.216  12.992  13.065  1.00  0.00     0.000 A 
HETATM   19  C23 UNK     1      21.696  12.248  11.987  1.00  0.00     0.001 A 
HETATM   20  C21 UNK     1      20.830  11.868  10.962  1.00  0.00     0.009 A 
ENDBRANCH  14  15
ENDBRANCH  13  14
ENDBRANCH  11  13
BRANCH   4  21
HETATM   21  C4  UNK     1      12.312   5.558   9.663  1.00  0.00     0.084 C 
BRANCH  21  22
HETATM   22  C6  UNK     1      11.530   5.799   8.406  1.00  0.00    -0.054 A 
HETATM   23  C13 UNK     1      10.146   5.918   8.468  1.00  0.00     0.007 A 
HETATM   24  C16 UNK     1       9.418   6.143   7.299  1.00  0.00     0.001 A 
HETATM   25  C19 UNK     1      10.078   6.248   6.076  1.00  0.00     0.000 A 
HETATM   26  C17 UNK     1      11.467   6.127   6.020  1.00  0.00     0.001 A 
HETATM   27  C14 UNK     1      12.195   5.903   7.189  1.00  0.00     0.007 A 
ENDBRANCH  21  22
ENDBRANCH   4  21
TORSDOF 5
ENDMDL
MODEL 4
REMARK VINA RESULT:      -8.4      1.819      9.188
REMARK  5 active torsions:
REMARK  status: ('A' for Active; 'I' for Inactive)
REMARK    1  A    between atoms: C11_14  and  O2_2 
REMARK    2  A    between atoms: C15_18  and  O2_2 
REMARK    3  A    between atoms: C2_5  and  C4_7 
REMARK    4  A    between atoms: C4_7  and  C6_9 
REMARK    5  A    between atoms: C15_18  and  C18_21 
ROOT
HETATM    1  O1  UNK     1      25.831  -5.227  38.824  1.00  0.00    -0.274 OA
HETATM    2  O3  UNK     1      23.574  -5.361  39.039  1.00  0.00    -0.259 OA
HETATM    3  C1  UNK     1      25.937  -8.055  38.775  1.00  0.00    -0.036 A 
HETATM    4  C2  UNK     1      24.748  -7.431  38.925  1.00  0.00     0.029 A 
HETATM    5  C3  UNK     1      27.172  -7.251  38.677  1.00  0.00     0.005 A 
HETATM    6  C5  UNK     1      27.075  -5.862  38.704  1.00  0.00     0.092 A 
HETATM    7  C7  UNK     1      24.651  -5.942  38.939  1.00  0.00     0.295 A 
HETATM    8  C8  UNK     1      28.459  -7.800  38.568  1.00  0.00     0.017 A 
HETATM    9  C9  UNK     1      26.088  -9.553  38.684  1.00  0.00     0.050 C 
HETATM   10  C10 UNK     1      28.193  -5.029  38.616  1.00  0.00     0.075 A 
HETATM   11  C11 UNK     1      29.457  -5.595  38.503  1.00  0.00     0.071 A 
HETATM   12  C12 UNK     1      29.590  -6.980  38.480  1.00  0.00     0.038 A 
ENDROOT
BRANCH  11  13
HETATM   13  O2  UNK     1      30.558  -4.801  38.417  1.00  0.00    -0.347 OA
BRANCH  13  14
HETATM   14  C15 UNK     1      30.973  -4.404  37.110  1.00  0.00     0.214 C 
BRANCH  14  15
HETATM   15  C18 UNK     1      32.393  -4.837  36.894  1.00  0.00    -0.034 A 
HETATM   16  C20 UNK     1      32.998  -5.693  37.808  1.00  0.00     0.009 A 
HETATM   17  C22 UNK     1      34.319  -6.096  37.607  1.00  0.00     0.001 A 
HETATM   18  C24 UNK     1      35.025  -5.641  36.493  1.00  0.00     0.000 A 
HETATM   19  C23 UNK     1      34.411  -4.783  35.580  1.00  0.00     0.001 A 
HETATM   20  C21 UNK     1      33.091  -4.380  35.781  1.00  0.00     0.009 A 
ENDBRANCH  14  15
ENDBRANCH  13  14
ENDBRANCH  11  13
BRANCH   4  21
HETATM   21  C4  UNK     1      23.424  -8.130  39.100  1.00  0.00     0.084 C 
BRANCH  21  22
HETATM   22  C6  UNK     1      22.704  -8.310  37.797  1.00  0.00    -0.054 A 
HETATM   23  C13 UNK     1      21.713  -7.407  37.427  1.00  0.00     0.007 A 
HETATM   24  C16 UNK     1      21.043  -7.574  36.214  1.00  0.00     0.001 A 
HETATM   25  C19 UNK     1      21.368  -8.644  35.380  1.00  0.00     0.000 A 
HETATM   26  C17 UNK     1      22.362  -9.546  35.758  1.00  0.00     0.001 A 
HETATM   27  C14 UNK     1      23.032  -9.379  36.970  1.00  0.00     0.007 A 
ENDBRANCH  21  22
ENDBRANCH   4  21
TORSDOF 5
ENDMDL
MODEL 5
REMARK VINA RESULT:      -8.3      1.699      2.389
REMARK  5 active torsions:
REMARK  status: ('A' for Active; 'I' for Inactive)
REMARK    1  A    between atoms: C11_14  and  O2_2 
REMARK    2  A    between atoms: C15_18  and  O2_2 
REMARK    3  A    between atoms: C2_5  and  C4_7 
REMARK    4  A    between atoms: C4_7  and  C6_9 
REMARK    5  A    between atoms: C15_18  and  C18_21 
ROOT
HETATM    1  O1  UNK     1      29.326  -9.124  38.009  1.00  0.00    -0.274 OA
HETATM    2  O3  UNK     1      31.414  -9.970  37.730  1.00  0.00    -0.259 OA
HETATM    3  C1  UNK     1      30.474  -6.560  38.363  1.00  0.00    -0.036 A 
HETATM    4  C2  UNK     1      31.272  -7.630  38.158  1.00  0.00     0.029 A 
HETATM    5  C3  UNK     1      29.011  -6.749  38.437  1.00  0.00     0.005 A 
HETATM    6  C5  UNK     1      28.487  -8.027  38.256  1.00  0.00     0.092 A 
HETATM    7  C7  UNK     1      30.703  -8.994  37.951  1.00  0.00     0.295 A 
HETATM    8  C8  UNK     1      28.098  -5.714  38.693  1.00  0.00     0.017 A 
HETATM    9  C9  UNK     1      30.988  -5.149  38.508  1.00  0.00     0.050 C 
HETATM   10  C10 UNK     1      27.117  -8.292  38.310  1.00  0.00     0.075 A 
HETATM   11  C11 UNK     1      26.231  -7.250  38.560  1.00  0.00     0.071 A 
HETATM   12  C12 UNK     1      26.721  -5.963  38.752  1.00  0.00     0.038 A 
ENDROOT
BRANCH  11  13
HETATM   13  O2  UNK     1      24.893  -7.488  38.617  1.00  0.00    -0.347 OA
BRANCH  13  14
HETATM   14  C15 UNK     1      24.059  -6.412  39.049  1.00  0.00     0.214 C 
BRANCH  14  15
HETATM   15  C18 UNK     1      22.641  -6.895  39.134  1.00  0.00    -0.034 A 
HETATM   16  C20 UNK     1      22.376  -8.169  39.626  1.00  0.00     0.009 A 
HETATM   17  C22 UNK     1      21.058  -8.618  39.706  1.00  0.00     0.001 A 
HETATM   18  C24 UNK     1      20.013  -7.791  39.294  1.00  0.00     0.000 A 
HETATM   19  C23 UNK     1      20.287  -6.514  38.801  1.00  0.00     0.001 A 
HETATM   20  C21 UNK     1      21.604  -6.065  38.721  1.00  0.00     0.009 A 
ENDBRANCH  14  15
ENDBRANCH  13  14
ENDBRANCH  11  13
BRANCH   4  21
HETATM   21  C4  UNK     1      32.779  -7.588  38.124  1.00  0.00     0.084 C 
BRANCH  21  22
HETATM   22  C6  UNK     1      33.296  -6.859  36.920  1.00  0.00    -0.054 A 
HETATM   23  C13 UNK     1      34.322  -5.931  37.065  1.00  0.00     0.007 A 
HETATM   24  C16 UNK     1      34.805  -5.253  35.945  1.00  0.00     0.001 A 
HETATM   25  C19 UNK     1      34.259  -5.507  34.687  1.00  0.00     0.000 A 
HETATM   26  C17 UNK     1      33.230  -6.439  34.549  1.00  0.00     0.001 A 
HETATM   27  C14 UNK     1      32.748  -7.117  35.669  1.00  0.00     0.007 A 
ENDBRANCH  21  22
ENDBRANCH   4  21
TORSDOF 5
ENDMDL
MODEL 6
REMARK VINA RESULT:      -8.3     34.073     36.536
REMARK  5 active torsions:
REMARK  status: ('A' for Active; 'I' for Inactive)
REMARK    1  A    between atoms: C11_14  and  O2_2 
REMARK    2  A    between atoms: C15_18  and  O2_2 
REMARK    3  A    between atoms: C2_5  and  C4_7 
REMARK    4  A    between atoms: C4_7  and  C6_9 
REMARK    5  A    between atoms: C15_18  and  C18_21 
ROOT
HETATM    1  O1  UNK     1      15.951   6.396   9.780  1.00  0.00    -0.274 OA
HETATM    2  O3  UNK     1      14.819   4.429   9.737  1.00  0.00    -0.259 OA
HETATM    3  C1  UNK     1      13.469   7.758   9.777  1.00  0.00    -0.036 A 
HETATM    4  C2  UNK     1      13.494   6.409   9.729  1.00  0.00     0.029 A 
HETATM    5  C3  UNK     1      14.742   8.508   9.792  1.00  0.00     0.005 A 
HETATM    6  C5  UNK     1      15.941   7.799   9.794  1.00  0.00     0.092 A 
HETATM    7  C7  UNK     1      14.782   5.656   9.745  1.00  0.00     0.295 A 
HETATM    8  C8  UNK     1      14.828   9.909   9.793  1.00  0.00     0.017 A 
HETATM    9  C9  UNK     1      12.199   8.570   9.833  1.00  0.00     0.050 C 
HETATM   10  C10 UNK     1      17.187   8.429   9.809  1.00  0.00     0.075 A 
HETATM   11  C11 UNK     1      17.248   9.818   9.815  1.00  0.00     0.071 A 
HETATM   12  C12 UNK     1      16.069  10.557   9.806  1.00  0.00     0.038 A 
ENDROOT
BRANCH  11  13
HETATM   13  O2  UNK     1      18.451  10.451   9.829  1.00  0.00    -0.347 OA
BRANCH  13  14
HETATM   14  C15 UNK     1      18.436  11.879   9.828  1.00  0.00     0.214 C 
BRANCH  14  15
HETATM   15  C18 UNK     1      18.964  12.374   8.514  1.00  0.00    -0.034 A 
HETATM   16  C20 UNK     1      18.124  12.419   7.407  1.00  0.00     0.009 A 
HETATM   17  C22 UNK     1      18.615  12.880   6.185  1.00  0.00     0.001 A 
HETATM   18  C24 UNK     1      19.943  13.294   6.079  1.00  0.00     0.000 A 
HETATM   19  C23 UNK     1      20.781  13.246   7.194  1.00  0.00     0.001 A 
HETATM   20  C21 UNK     1      20.289  12.785   8.415  1.00  0.00     0.009 A 
ENDBRANCH  14  15
ENDBRANCH  13  14
ENDBRANCH  11  13
BRANCH   4  21
HETATM   21  C4  UNK     1      12.274   5.527   9.645  1.00  0.00     0.084 C 
BRANCH  21  22
HETATM   22  C6  UNK     1      11.481   5.776   8.397  1.00  0.00    -0.054 A 
HETATM   23  C13 UNK     1      12.131   5.829   7.168  1.00  0.00     0.007 A 
HETATM   24  C16 UNK     1      11.393   6.060   6.006  1.00  0.00     0.001 A 
HETATM   25  C19 UNK     1      10.012   6.236   6.080  1.00  0.00     0.000 A 
HETATM   26  C17 UNK     1       9.367   6.182   7.315  1.00  0.00     0.001 A 
HETATM   27  C14 UNK     1      10.104   5.951   8.477  1.00  0.00     0.007 A 
ENDBRANCH  21  22
ENDBRANCH   4  21
TORSDOF 5
ENDMDL
MODEL 7
REMARK VINA RESULT:      -8.3      5.182      8.361
REMARK  5 active torsions:
REMARK  status: ('A' for Active; 'I' for Inactive)
REMARK    1  A    between atoms: C11_14  and  O2_2 
REMARK    2  A    between atoms: C15_18  and  O2_2 
REMARK    3  A    between atoms: C2_5  and  C4_7 
REMARK    4  A    between atoms: C4_7  and  C6_9 
REMARK    5  A    between atoms: C15_18  and  C18_21 
ROOT
HETATM    1  O1  UNK     1      30.639  -5.423  32.885  1.00  0.00    -0.274 OA
HETATM    2  O3  UNK     1      29.557  -4.869  30.968  1.00  0.00    -0.259 OA
HETATM    3  C1  UNK     1      32.133  -7.332  31.423  1.00  0.00    -0.036 A 
HETATM    4  C2  UNK     1      31.189  -6.597  30.797  1.00  0.00     0.029 A 
HETATM    5  C3  UNK     1      32.346  -7.157  32.875  1.00  0.00     0.005 A 
HETATM    6  C5  UNK     1      31.591  -6.205  33.555  1.00  0.00     0.092 A 
HETATM    7  C7  UNK     1      30.393  -5.570  31.531  1.00  0.00     0.295 A 
HETATM    8  C8  UNK     1      33.265  -7.903  33.629  1.00  0.00     0.017 A 
HETATM    9  C9  UNK     1      33.015  -8.334  30.720  1.00  0.00     0.050 C 
HETATM   10  C10 UNK     1      31.731  -5.975  34.926  1.00  0.00     0.075 A 
HETATM   11  C11 UNK     1      32.651  -6.722  35.652  1.00  0.00     0.071 A 
HETATM   12  C12 UNK     1      33.417  -7.686  35.003  1.00  0.00     0.038 A 
ENDROOT
BRANCH  11  13
HETATM   13  O2  UNK     1      32.802  -6.514  36.987  1.00  0.00    -0.347 OA
BRANCH  13  14
HETATM   14  C15 UNK     1      31.956  -7.262  37.861  1.00  0.00     0.214 C 
BRANCH  14  15
HETATM   15  C18 UNK     1      30.799  -6.403  38.277  1.00  0.00    -0.034 A 
HETATM   16  C20 UNK     1      29.545  -6.977  38.460  1.00  0.00     0.009 A 
HETATM   17  C22 UNK     1      28.469  -6.178  38.847  1.00  0.00     0.001 A 
HETATM   18  C24 UNK     1      28.654  -4.810  39.050  1.00  0.00     0.000 A 
HETATM   19  C23 UNK     1      29.914  -4.241  38.866  1.00  0.00     0.001 A 
HETATM   20  C21 UNK     1      30.990  -5.040  38.478  1.00  0.00     0.009 A 
ENDBRANCH  14  15
ENDBRANCH  13  14
ENDBRANCH  11  13
BRANCH   4  21
HETATM   21  C4  UNK     1      30.827  -6.721  29.339  1.00  0.00     0.084 C 
BRANCH  21  22
HETATM   22  C6  UNK     1      29.953  -7.911  29.073  1.00  0.00    -0.054 A 
HETATM   23  C13 UNK     1      28.703  -7.995  29.676  1.00  0.00     0.007 A 
HETATM   24  C16 UNK     1      27.889  -9.102  29.428  1.00  0.00     0.001 A 
HETATM   25  C19 UNK     1      28.332 -10.116  28.580  1.00  0.00     0.000 A 
HETATM   26  C17 UNK     1      29.588 -10.025  27.980  1.00  0.00     0.001 A 
HETATM   27  C14 UNK     1      30.401  -8.919  28.227  1.00  0.00     0.007 A 
ENDBRANCH  21  22
ENDBRANCH   4  21
TORSDOF 5
ENDMDL
MODEL 8
REMARK VINA RESULT:      -8.2      6.837     10.101
REMARK  5 active torsions:
REMARK  status: ('A' for Active; 'I' for Inactive)
REMARK    1  A    between atoms: C11_14  and  O2_2 
REMARK    2  A    between atoms: C15_18  and  O2_2 
REMARK    3  A    between atoms: C2_5  and  C4_7 
REMARK    4  A    between atoms: C4_7  and  C6_9 
REMARK    5  A    between atoms: C15_18  and  C18_21 
ROOT
HETATM    1  O1  UNK     1      20.439  -5.902  34.466  1.00  0.00    -0.274 OA
HETATM    2  O3  UNK     1      20.665  -8.108  33.978  1.00  0.00    -0.259 OA
HETATM    3  C1  UNK     1      20.249  -6.587  37.206  1.00  0.00    -0.036 A 
HETATM    4  C2  UNK     1      20.385  -7.560  36.280  1.00  0.00     0.029 A 
HETATM    5  C3  UNK     1      20.161  -5.177  36.772  1.00  0.00     0.005 A 
HETATM    6  C5  UNK     1      20.261  -4.884  35.414  1.00  0.00     0.092 A 
HETATM    7  C7  UNK     1      20.505  -7.237  34.828  1.00  0.00     0.295 A 
HETATM    8  C8  UNK     1      19.971  -4.097  37.647  1.00  0.00     0.017 A 
HETATM    9  C9  UNK     1      20.193  -6.848  38.691  1.00  0.00     0.050 C 
HETATM   10  C10 UNK     1      20.190  -3.580  34.920  1.00  0.00     0.075 A 
HETATM   11  C11 UNK     1      20.007  -2.525  35.806  1.00  0.00     0.071 A 
HETATM   12  C12 UNK     1      19.897  -2.783  37.169  1.00  0.00     0.038 A 
ENDROOT
BRANCH  11  13
HETATM   13  O2  UNK     1      19.934  -1.247  35.344  1.00  0.00    -0.347 OA
BRANCH  13  14
HETATM   14  C15 UNK     1      18.766  -0.888  34.606  1.00  0.00     0.214 C 
BRANCH  14  15
HETATM   15  C18 UNK     1      17.828  -0.142  35.508  1.00  0.00    -0.034 A 
HETATM   16  C20 UNK     1      18.337   0.619  36.554  1.00  0.00     0.009 A 
HETATM   17  C22 UNK     1      17.465   1.314  37.393  1.00  0.00     0.001 A 
HETATM   18  C24 UNK     1      16.088   1.244  37.178  1.00  0.00     0.000 A 
HETATM   19  C23 UNK     1      15.584   0.479  36.125  1.00  0.00     0.001 A 
HETATM   20  C21 UNK     1      16.456  -0.215  35.288  1.00  0.00     0.009 A 
ENDBRANCH  14  15
ENDBRANCH  13  14
ENDBRANCH  11  13
BRANCH   4  21
HETATM   21  C4  UNK     1      20.422  -9.036  36.580  1.00  0.00     0.084 C 
BRANCH  21  22
HETATM   22  C6  UNK     1      21.810  -9.598  36.486  1.00  0.00    -0.054 A 
HETATM   23  C13 UNK     1      22.011 -10.841  35.896  1.00  0.00     0.007 A 
HETATM   24  C16 UNK     1      23.302 -11.364  35.808  1.00  0.00     0.001 A 
HETATM   25  C19 UNK     1      24.383 -10.640  36.309  1.00  0.00     0.000 A 
HETATM   26  C17 UNK     1      24.174  -9.393  36.900  1.00  0.00     0.001 A 
HETATM   27  C14 UNK     1      22.883  -8.870  36.987  1.00  0.00     0.007 A 
ENDBRANCH  21  22
ENDBRANCH   4  21
TORSDOF 5
ENDMDL
MODEL 9
REMARK VINA RESULT:      -8.2     33.705     36.239
REMARK  5 active torsions:
REMARK  status: ('A' for Active; 'I' for Inactive)
REMARK    1  A    between atoms: C11_14  and  O2_2 
REMARK    2  A    between atoms: C15_18  and  O2_2 
REMARK    3  A    between atoms: C2_5  and  C4_7 
REMARK    4  A    between atoms: C4_7  and  C6_9 
REMARK    5  A    between atoms: C15_18  and  C18_21 
ROOT
HETATM    1  O1  UNK     1      13.286   9.243  10.022  1.00  0.00    -0.274 OA
HETATM    2  O3  UNK     1      11.144   8.503   9.882  1.00  0.00    -0.259 OA
HETATM    3  C1  UNK     1      14.172   6.597   9.546  1.00  0.00    -0.036 A 
HETATM    4  C2  UNK     1      12.849   6.859   9.616  1.00  0.00     0.029 A 
HETATM    5  C3  UNK     1      15.142   7.692   9.757  1.00  0.00     0.005 A 
HETATM    6  C5  UNK     1      14.663   8.979   9.986  1.00  0.00     0.092 A 
HETATM    7  C7  UNK     1      12.344   8.243   9.850  1.00  0.00     0.295 A 
HETATM    8  C8  UNK     1      16.534   7.518   9.752  1.00  0.00     0.017 A 
HETATM    9  C9  UNK     1      14.739   5.232   9.243  1.00  0.00     0.050 C 
HETATM   10  C10 UNK     1      15.511  10.070  10.194  1.00  0.00     0.075 A 
HETATM   11  C11 UNK     1      16.887   9.875  10.180  1.00  0.00     0.071 A 
HETATM   12  C12 UNK     1      17.398   8.600   9.960  1.00  0.00     0.038 A 
ENDROOT
BRANCH  11  13
HETATM   13  O2  UNK     1      17.729  10.924  10.381  1.00  0.00    -0.347 OA
BRANCH  13  14
HETATM   14  C15 UNK     1      18.207  11.606   9.221  1.00  0.00     0.214 C 
BRANCH  14  15
HETATM   15  C18 UNK     1      19.680  11.849   9.368  1.00  0.00    -0.034 A 
HETATM   16  C20 UNK     1      20.239  11.941  10.639  1.00  0.00     0.009 A 
HETATM   17  C22 UNK     1      21.609  12.168  10.776  1.00  0.00     0.001 A 
HETATM   18  C24 UNK     1      22.411  12.298   9.642  1.00  0.00     0.000 A 
HETATM   19  C23 UNK     1      21.843  12.204   8.371  1.00  0.00     0.001 A 
HETATM   20  C21 UNK     1      20.474  11.979   8.234  1.00  0.00     0.009 A 
ENDBRANCH  14  15
ENDBRANCH  13  14
ENDBRANCH  11  13
BRANCH   4  21
HETATM   21  C4  UNK     1      11.758   5.827   9.485  1.00  0.00     0.084 C 
BRANCH  21  22
HETATM   22  C6  UNK     1      11.019   5.949   8.185  1.00  0.00    -0.054 A 
HETATM   23  C13 UNK     1       9.628   5.977   8.185  1.00  0.00     0.007 A 
HETATM   24  C16 UNK     1       8.940   6.092   6.976  1.00  0.00     0.001 A 
HETATM   25  C19 UNK     1       9.646   6.176   5.777  1.00  0.00     0.000 A 
HETATM   26  C17 UNK     1      11.041   6.146   5.785  1.00  0.00     0.001 A 
HETATM   27  C14 UNK     1      11.729   6.033   6.993  1.00  0.00     0.007 A 
ENDBRANCH  21  22
ENDBRANCH   4  21
TORSDOF 5
ENDMDL
MODEL 10
REMARK VINA RESULT:      -8.2      5.381      7.970
REMARK  5 active torsions:
REMARK  status: ('A' for Active; 'I' for Inactive)
REMARK    1  A    between atoms: C11_14  and  O2_2 
REMARK    2  A    between atoms: C15_18  and  O2_2 
REMARK    3  A    between atoms: C2_5  and  C4_7 
REMARK    4  A    between atoms: C4_7  and  C6_9 
REMARK    5  A    between atoms: C15_18  and  C18_21 
ROOT
HETATM    1  O1  UNK     1      30.464  -5.533  33.010  1.00  0.00    -0.274 OA
HETATM    2  O3  UNK     1      29.437  -4.880  31.093  1.00  0.00    -0.259 OA
HETATM    3  C1  UNK     1      29.366  -8.118  32.650  1.00  0.00    -0.036 A 
HETATM    4  C2  UNK     1      29.083  -7.140  31.763  1.00  0.00     0.029 A 
HETATM    5  C3  UNK     1      30.215  -7.814  33.821  1.00  0.00     0.005 A 
HETATM    6  C5  UNK     1      30.736  -6.530  33.958  1.00  0.00     0.092 A 
HETATM    7  C7  UNK     1      29.657  -5.770  31.910  1.00  0.00     0.295 A 
HETATM    8  C8  UNK     1      30.529  -8.743  34.825  1.00  0.00     0.017 A 
HETATM    9  C9  UNK     1      28.872  -9.537  32.515  1.00  0.00     0.050 C 
HETATM   10  C10 UNK     1      31.549  -6.160  35.033  1.00  0.00     0.075 A 
HETATM   11  C11 UNK     1      31.851  -7.098  36.013  1.00  0.00     0.071 A 
HETATM   12  C12 UNK     1      31.340  -8.389  35.909  1.00  0.00     0.038 A 
ENDROOT
BRANCH  11  13
HETATM   13  O2  UNK     1      32.639  -6.758  37.067  1.00  0.00    -0.347 OA
BRANCH  13  14
HETATM   14  C15 UNK     1      32.100  -6.960  38.374  1.00  0.00     0.214 C 
BRANCH  14  15
HETATM   15  C18 UNK     1      30.856  -6.135  38.525  1.00  0.00    -0.034 A 
HETATM   16  C20 UNK     1      29.626  -6.765  38.680  1.00  0.00     0.009 A 
HETATM   17  C22 UNK     1      28.469  -5.998  38.819  1.00  0.00     0.001 A 
HETATM   18  C24 UNK     1      28.551  -4.605  38.806  1.00  0.00     0.000 A 
HETATM   19  C23 UNK     1      29.788  -3.979  38.650  1.00  0.00     0.001 A 
HETATM   20  C21 UNK     1      30.944  -4.746  38.510  1.00  0.00     0.009 A 
ENDBRANCH  14  15
ENDBRANCH  13  14
ENDBRANCH  11  13
BRANCH   4  21
HETATM   21  C4  UNK     1      28.182  -7.297  30.565  1.00  0.00     0.084 C 
BRANCH  21  22
HETATM   22  C6  UNK     1      28.739  -8.262  29.561  1.00  0.00    -0.054 A 
HETATM   23  C13 UNK     1      30.034  -8.090  29.086  1.00  0.00     0.007 A 
HETATM   24  C16 UNK     1      30.554  -8.989  28.153  1.00  0.00     0.001 A 
HETATM   25  C19 UNK     1      29.774 -10.053  27.701  1.00  0.00     0.000 A 
HETATM   26  C17 UNK     1      28.474 -10.218  28.181  1.00  0.00     0.001 A 
HETATM   27  C14 UNK     1      27.956  -9.321  29.115  1.00  0.00     0.007 A 
ENDBRANCH  21  22
ENDBRANCH   4  21
TORSDOF 5
ENDMDL
