MODEL 1
REMARK VINA RESULT:      -8.0      0.000      0.000
REMARK  2 active torsions:
REMARK  status: ('A' for Active; 'I' for Inactive)
REMARK    1  A    between atoms: C4_8  and  O2_2 
REMARK    2  A    between atoms: C1_5  and  C2_6 
ROOT
HETATM    1  O1  UNK     1      18.899   4.393  30.319  1.00  0.00    -0.311 OA
HETATM    2  O3  UNK     1      18.183   8.611  32.577  1.00  0.00    -0.275 OA
HETATM    3  O4  UNK     1      17.806  10.554  33.730  1.00  0.00    -0.260 OA
HETATM    4  C2  UNK     1      18.644   3.114  30.698  1.00  0.00     0.091 A 
HETATM    5  C3  UNK     1      17.984   4.430  32.385  1.00  0.00     0.035 A 
HETATM    6  C4  UNK     1      18.083   3.080  31.954  1.00  0.00     0.111 A 
HETATM    7  C5  UNK     1      18.498   5.198  31.344  1.00  0.00     0.091 A 
HETATM    8  C6  UNK     1      17.514   5.084  33.541  1.00  0.00     0.031 A 
HETATM    9  C9  UNK     1      17.583   6.485  33.601  1.00  0.00    -0.001 A 
HETATM   10  C10 UNK     1      18.585   6.587  31.363  1.00  0.00     0.076 A 
HETATM   11  C11 UNK     1      18.108   7.200  32.526  1.00  0.00     0.092 A 
HETATM   12  C12 UNK     1      17.114   7.218  34.767  1.00  0.00     0.020 A 
HETATM   13  C13 UNK     1      17.190   8.549  34.803  1.00  0.00     0.083 A 
HETATM   14  C14 UNK     1      17.741   9.331  33.682  1.00  0.00     0.288 A 
ENDROOT
BRANCH   4  15
HETATM   15  C1  UNK     1      19.004   2.069  29.728  1.00  0.00     0.038 C 
HETATM   16  C7  UNK     1      17.855   1.724  28.749  1.00  0.00     0.016 C 
HETATM   17  C8  UNK     1      19.508   0.765  30.393  1.00  0.00     0.016 C 
ENDBRANCH   4  15
BRANCH   6  18
HETATM   18  O2  UNK     1      17.717   1.969  32.608  1.00  0.00    -0.352 OA
HETATM   19  C15 UNK     1      18.321   1.712  33.884  1.00  0.00     0.210 C 
ENDBRANCH   6  18
TORSDOF 2
ENDMDL
MODEL 2
REMARK VINA RESULT:      -7.9      3.385      6.100
REMARK  2 active torsions:
REMARK  status: ('A' for Active; 'I' for Inactive)
REMARK    1  A    between atoms: C4_8  and  O2_2 
REMARK    2  A    between atoms: C1_5  and  C2_6 
ROOT
HETATM    1  O1  UNK     1      18.951   0.334  31.451  1.00  0.00    -0.311 OA
HETATM    2  O3  UNK     1      18.412  -0.898  36.098  1.00  0.00    -0.275 OA
HETATM    3  O4  UNK     1      18.125  -1.381  38.318  1.00  0.00    -0.260 OA
HETATM    4  C2  UNK     1      18.782   1.518  30.808  1.00  0.00     0.091 A 
HETATM    5  C3  UNK     1      18.305   1.882  32.965  1.00  0.00     0.035 A 
HETATM    6  C4  UNK     1      18.386   2.498  31.688  1.00  0.00     0.111 A 
HETATM    7  C5  UNK     1      18.662   0.551  32.766  1.00  0.00     0.091 A 
HETATM    8  C6  UNK     1      17.969   2.306  34.265  1.00  0.00     0.031 A 
HETATM    9  C9  UNK     1      18.006   1.371  35.312  1.00  0.00    -0.001 A 
HETATM   10  C10 UNK     1      18.712  -0.407  33.774  1.00  0.00     0.076 A 
HETATM   11  C11 UNK     1      18.372   0.052  35.051  1.00  0.00     0.092 A 
HETATM   12  C12 UNK     1      17.670   1.747  36.677  1.00  0.00     0.020 A 
HETATM   13  C13 UNK     1      17.711   0.842  37.657  1.00  0.00     0.083 A 
HETATM   14  C14 UNK     1      18.094  -0.560  37.409  1.00  0.00     0.288 A 
ENDROOT
BRANCH   4  15
HETATM   15  C1  UNK     1      19.044   1.509  29.361  1.00  0.00     0.038 C 
HETATM   16  C7  UNK     1      17.789   1.832  28.512  1.00  0.00     0.016 C 
HETATM   17  C8  UNK     1      19.661   0.180  28.860  1.00  0.00     0.016 C 
ENDBRANCH   4  15
BRANCH   6  18
HETATM   18  O2  UNK     1      18.138   3.775  31.363  1.00  0.00    -0.352 OA
HETATM   19  C15 UNK     1      19.259   4.623  31.073  1.00  0.00     0.210 C 
ENDBRANCH   6  18
TORSDOF 2
ENDMDL
MODEL 3
REMARK VINA RESULT:      -7.8      1.721      3.263
REMARK  2 active torsions:
REMARK  status: ('A' for Active; 'I' for Inactive)
REMARK    1  A    between atoms: C4_8  and  O2_2 
REMARK    2  A    between atoms: C1_5  and  C2_6 
ROOT
HETATM    1  O1  UNK     1      18.697   1.276  32.771  1.00  0.00    -0.311 OA
HETATM    2  O3  UNK     1      17.719   5.803  34.171  1.00  0.00    -0.275 OA
HETATM    3  O4  UNK     1      17.263   7.976  34.730  1.00  0.00    -0.260 OA
HETATM    4  C2  UNK     1      18.957   0.748  31.548  1.00  0.00     0.091 A 
HETATM    5  C3  UNK     1      18.618   2.941  31.246  1.00  0.00     0.035 A 
HETATM    6  C4  UNK     1      18.921   1.724  30.578  1.00  0.00     0.111 A 
HETATM    7  C5  UNK     1      18.490   2.612  32.592  1.00  0.00     0.091 A 
HETATM    8  C6  UNK     1      18.439   4.282  30.856  1.00  0.00     0.031 A 
HETATM    9  C9  UNK     1      18.138   5.238  31.839  1.00  0.00    -0.001 A 
HETATM   10  C10 UNK     1      18.193   3.527  33.598  1.00  0.00     0.076 A 
HETATM   11  C11 UNK     1      18.023   4.848  33.173  1.00  0.00     0.092 A 
HETATM   12  C12 UNK     1      17.942   6.639  31.500  1.00  0.00     0.020 A 
HETATM   13  C13 UNK     1      17.655   7.531  32.451  1.00  0.00     0.083 A 
HETATM   14  C14 UNK     1      17.527   7.147  33.868  1.00  0.00     0.288 A 
ENDROOT
BRANCH   4  15
HETATM   15  C1  UNK     1      19.213  -0.699  31.511  1.00  0.00     0.038 C 
HETATM   16  C7  UNK     1      18.981  -1.395  32.875  1.00  0.00     0.016 C 
HETATM   17  C8  UNK     1      20.630  -1.056  31.000  1.00  0.00     0.016 C 
ENDBRANCH   4  15
BRANCH   6  18
HETATM   18  O2  UNK     1      19.136   1.523  29.271  1.00  0.00    -0.352 OA
HETATM   19  C15 UNK     1      17.993   1.471  28.404  1.00  0.00     0.210 C 
ENDBRANCH   6  18
TORSDOF 2
ENDMDL
MODEL 4
REMARK VINA RESULT:      -7.7     22.247     24.329
REMARK  2 active torsions:
REMARK  status: ('A' for Active; 'I' for Inactive)
REMARK    1  A    between atoms: C4_8  and  O2_2 
REMARK    2  A    between atoms: C1_5  and  C2_6 
ROOT
HETATM    1  O1  UNK     1      11.313   7.417   7.571  1.00  0.00    -0.311 OA
HETATM    2  O3  UNK     1      15.629   9.003   9.078  1.00  0.00    -0.275 OA
HETATM    3  O4  UNK     1      17.683   9.661   9.846  1.00  0.00    -0.260 OA
HETATM    4  C2  UNK     1      10.633   6.271   7.832  1.00  0.00     0.091 A 
HETATM    5  C3  UNK     1      12.561   6.150   8.965  1.00  0.00     0.035 A 
HETATM    6  C4  UNK     1      11.353   5.461   8.680  1.00  0.00     0.111 A 
HETATM    7  C5  UNK     1      12.488   7.348   8.260  1.00  0.00     0.091 A 
HETATM    8  C6  UNK     1      13.706   5.891   9.743  1.00  0.00     0.031 A 
HETATM    9  C9  UNK     1      14.731   6.849   9.778  1.00  0.00    -0.001 A 
HETATM   10  C10 UNK     1      13.481   8.324   8.267  1.00  0.00     0.076 A 
HETATM   11  C11 UNK     1      14.601   8.031   9.051  1.00  0.00     0.092 A 
HETATM   12  C12 UNK     1      15.939   6.640  10.563  1.00  0.00     0.020 A 
HETATM   13  C13 UNK     1      16.901   7.564  10.581  1.00  0.00     0.083 A 
HETATM   14  C14 UNK     1      16.791   8.822   9.821  1.00  0.00     0.288 A 
ENDROOT
BRANCH   4  15
HETATM   15  C1  UNK     1       9.322   6.136   7.181  1.00  0.00     0.038 C 
HETATM   16  C7  UNK     1       9.351   6.484   5.672  1.00  0.00     0.016 C 
HETATM   17  C8  UNK     1       8.211   6.969   7.867  1.00  0.00     0.016 C 
ENDBRANCH   4  15
BRANCH   6  18
HETATM   18  O2  UNK     1      10.954   4.261   9.126  1.00  0.00    -0.352 OA
HETATM   19  C15 UNK     1      10.011   4.228  10.208  1.00  0.00     0.210 C 
ENDBRANCH   6  18
TORSDOF 2
ENDMDL
MODEL 5
REMARK VINA RESULT:      -7.7      4.836      6.219
REMARK  2 active torsions:
REMARK  status: ('A' for Active; 'I' for Inactive)
REMARK    1  A    between atoms: C4_8  and  O2_2 
REMARK    2  A    between atoms: C1_5  and  C2_6 
ROOT
HETATM    1  O1  UNK     1      18.739   1.443  31.582  1.00  0.00    -0.311 OA
HETATM    2  O3  UNK     1      17.753   1.524  36.318  1.00  0.00    -0.275 OA
HETATM    3  O4  UNK     1      17.312   1.457  38.564  1.00  0.00    -0.260 OA
HETATM    4  C2  UNK     1      19.130   0.435  30.761  1.00  0.00     0.091 A 
HETATM    5  C3  UNK     1      18.909  -0.449  32.806  1.00  0.00     0.035 A 
HETATM    6  C4  UNK     1      19.250  -0.744  31.460  1.00  0.00     0.111 A 
HETATM    7  C5  UNK     1      18.602   0.909  32.829  1.00  0.00     0.091 A 
HETATM    8  C6  UNK     1      18.826  -1.183  34.006  1.00  0.00     0.031 A 
HETATM    9  C9  UNK     1      18.439  -0.518  35.180  1.00  0.00    -0.001 A 
HETATM   10  C10 UNK     1      18.214   1.606  33.970  1.00  0.00     0.076 A 
HETATM   11  C11 UNK     1      18.144   0.844  35.140  1.00  0.00     0.092 A 
HETATM   12  C12 UNK     1      18.335  -1.220  36.450  1.00  0.00     0.020 A 
HETATM   13  C13 UNK     1      17.965  -0.568  37.554  1.00  0.00     0.083 A 
HETATM   14  C14 UNK     1      17.648   0.871  37.542  1.00  0.00     0.288 A 
ENDROOT
BRANCH   4  15
HETATM   15  C1  UNK     1      19.339   0.796  29.351  1.00  0.00     0.038 C 
HETATM   16  C7  UNK     1      18.141   1.561  28.734  1.00  0.00     0.016 C 
HETATM   17  C8  UNK     1      19.675  -0.420  28.453  1.00  0.00     0.016 C 
ENDBRANCH   4  15
BRANCH   6  18
HETATM   18  O2  UNK     1      19.618  -1.921  30.933  1.00  0.00    -0.352 OA
HETATM   19  C15 UNK     1      20.801  -2.547  31.454  1.00  0.00     0.210 C 
ENDBRANCH   6  18
TORSDOF 2
ENDMDL
MODEL 6
REMARK VINA RESULT:      -7.7      5.262      8.012
REMARK  2 active torsions:
REMARK  status: ('A' for Active; 'I' for Inactive)
REMARK    1  A    between atoms: C4_8  and  O2_2 
REMARK    2  A    between atoms: C1_5  and  C2_6 
ROOT
HETATM    1  O1  UNK     1      17.755   1.372  34.414  1.00  0.00    -0.311 OA
HETATM    2  O3  UNK     1      19.831   0.254  30.189  1.00  0.00    -0.275 OA
HETATM    3  O4  UNK     1      20.825  -0.377  28.225  1.00  0.00    -0.260 OA
HETATM    4  C2  UNK     1      17.506   0.625  35.520  1.00  0.00     0.091 A 
HETATM    5  C3  UNK     1      18.504  -0.727  34.041  1.00  0.00     0.035 A 
HETATM    6  C4  UNK     1      17.944  -0.667  35.345  1.00  0.00     0.111 A 
HETATM    7  C5  UNK     1      18.364   0.552  33.510  1.00  0.00     0.091 A 
HETATM    8  C6  UNK     1      19.114  -1.724  33.255  1.00  0.00     0.031 A 
HETATM    9  C9  UNK     1      19.557  -1.391  31.965  1.00  0.00    -0.001 A 
HETATM   10  C10 UNK     1      18.789   0.924  32.237  1.00  0.00     0.076 A 
HETATM   11  C11 UNK     1      19.389  -0.092  31.488  1.00  0.00     0.092 A 
HETATM   12  C12 UNK     1      20.195  -2.376  31.104  1.00  0.00     0.020 A 
HETATM   13  C13 UNK     1      20.608  -2.038  29.881  1.00  0.00     0.083 A 
HETATM   14  C14 UNK     1      20.442  -0.673  29.350  1.00  0.00     0.288 A 
ENDROOT
BRANCH   4  15
HETATM   15  C1  UNK     1      16.844   1.322  36.633  1.00  0.00     0.038 C 
HETATM   16  C7  UNK     1      17.586   1.157  37.983  1.00  0.00     0.016 C 
HETATM   17  C8  UNK     1      15.364   0.908  36.819  1.00  0.00     0.016 C 
ENDBRANCH   4  15
BRANCH   6  18
HETATM   18  O2  UNK     1      17.844  -1.648  36.253  1.00  0.00    -0.352 OA
HETATM   19  C15 UNK     1      19.052  -2.110  36.876  1.00  0.00     0.210 C 
ENDBRANCH   6  18
TORSDOF 2
ENDMDL
MODEL 7
REMARK VINA RESULT:      -7.5      2.146      7.232
REMARK  2 active torsions:
REMARK  status: ('A' for Active; 'I' for Inactive)
REMARK    1  A    between atoms: C4_8  and  O2_2 
REMARK    2  A    between atoms: C1_5  and  C2_6 
ROOT
HETATM    1  O1  UNK     1      17.948   3.504  33.081  1.00  0.00    -0.311 OA
HETATM    2  O3  UNK     1      19.441  -0.889  31.709  1.00  0.00    -0.275 OA
HETATM    3  O4  UNK     1      20.174  -2.926  30.964  1.00  0.00    -0.260 OA
HETATM    4  C2  UNK     1      17.900   4.687  32.416  1.00  0.00     0.091 A 
HETATM    5  C3  UNK     1      18.740   3.179  30.990  1.00  0.00     0.035 A 
HETATM    6  C4  UNK     1      18.373   4.544  31.132  1.00  0.00     0.111 A 
HETATM    7  C5  UNK     1      18.459   2.583  32.215  1.00  0.00     0.091 A 
HETATM    8  C6  UNK     1      19.278   2.386  29.957  1.00  0.00     0.031 A 
HETATM    9  C9  UNK     1      19.511   1.024  30.203  1.00  0.00    -0.001 A 
HETATM   10  C10 UNK     1      18.675   1.237  32.500  1.00  0.00     0.076 A 
HETATM   11  C11 UNK     1      19.209   0.483  31.451  1.00  0.00     0.092 A 
HETATM   12  C12 UNK     1      20.065   0.153  29.177  1.00  0.00     0.020 A 
HETATM   13  C13 UNK     1      20.279  -1.140  29.433  1.00  0.00     0.083 A 
HETATM   14  C14 UNK     1      19.970  -1.739  30.743  1.00  0.00     0.288 A 
ENDROOT
BRANCH   4  15
HETATM   15  C1  UNK     1      17.374   5.832  33.174  1.00  0.00     0.038 C 
HETATM   16  C7  UNK     1      16.237   6.582  32.436  1.00  0.00     0.016 C 
HETATM   17  C8  UNK     1      18.468   6.850  33.579  1.00  0.00     0.016 C 
ENDBRANCH   4  15
BRANCH   6  18
HETATM   18  O2  UNK     1      18.455   5.527  30.224  1.00  0.00    -0.352 OA
HETATM   19  C15 UNK     1      19.759   6.030  29.896  1.00  0.00     0.210 C 
ENDBRANCH   6  18
TORSDOF 2
ENDMDL
MODEL 8
REMARK VINA RESULT:      -7.3      2.864      6.752
REMARK  2 active torsions:
REMARK  status: ('A' for Active; 'I' for Inactive)
REMARK    1  A    between atoms: C4_8  and  O2_2 
REMARK    2  A    between atoms: C1_5  and  C2_6 
ROOT
HETATM    1  O1  UNK     1      18.591   4.189  34.181  1.00  0.00    -0.311 OA
HETATM    2  O3  UNK     1      18.549   0.474  37.280  1.00  0.00    -0.275 OA
HETATM    3  O4  UNK     1      18.502  -1.349  38.665  1.00  0.00    -0.260 OA
HETATM    4  C2  UNK     1      18.319   4.257  32.853  1.00  0.00     0.091 A 
HETATM    5  C3  UNK     1      18.042   2.120  33.460  1.00  0.00     0.035 A 
HETATM    6  C4  UNK     1      17.978   3.018  32.362  1.00  0.00     0.111 A 
HETATM    7  C5  UNK     1      18.423   2.889  34.555  1.00  0.00     0.091 A 
HETATM    8  C6  UNK     1      17.819   0.741  33.645  1.00  0.00     0.031 A 
HETATM    9  C9  UNK     1      17.990   0.194  34.926  1.00  0.00    -0.001 A 
HETATM   10  C10 UNK     1      18.604   2.387  35.841  1.00  0.00     0.076 A 
HETATM   11  C11 UNK     1      18.373   1.016  35.985  1.00  0.00     0.092 A 
HETATM   12  C12 UNK     1      17.775  -1.222  35.181  1.00  0.00     0.020 A 
HETATM   13  C13 UNK     1      17.944  -1.721  36.407  1.00  0.00     0.083 A 
HETATM   14  C14 UNK     1      18.349  -0.877  37.545  1.00  0.00     0.288 A 
ENDROOT
BRANCH   4  15
HETATM   15  C1  UNK     1      18.440   5.586  32.236  1.00  0.00     0.038 C 
HETATM   16  C7  UNK     1      19.567   6.447  32.859  1.00  0.00     0.016 C 
HETATM   17  C8  UNK     1      17.119   6.394  32.262  1.00  0.00     0.016 C 
ENDBRANCH   4  15
BRANCH   6  18
HETATM   18  O2  UNK     1      17.653   2.753  31.088  1.00  0.00    -0.352 OA
HETATM   19  C15 UNK     1      18.714   2.409  30.184  1.00  0.00     0.210 C 
ENDBRANCH   6  18
TORSDOF 2
ENDMDL
MODEL 9
REMARK VINA RESULT:      -7.2     21.630     24.242
REMARK  2 active torsions:
REMARK  status: ('A' for Active; 'I' for Inactive)
REMARK    1  A    between atoms: C4_8  and  O2_2 
REMARK    2  A    between atoms: C1_5  and  C2_6 
ROOT
HETATM    1  O1  UNK     1      11.585   6.595   7.497  1.00  0.00    -0.311 OA
HETATM    2  O3  UNK     1      16.035   7.056   9.338  1.00  0.00    -0.275 OA
HETATM    3  O4  UNK     1      18.099   7.329  10.292  1.00  0.00    -0.260 OA
HETATM    4  C2  UNK     1      10.382   7.059   7.922  1.00  0.00     0.091 A 
HETATM    5  C3  UNK     1      11.905   7.760   9.406  1.00  0.00     0.035 A 
HETATM    6  C4  UNK     1      10.521   7.778   9.087  1.00  0.00     0.111 A 
HETATM    7  C5  UNK     1      12.516   7.020   8.398  1.00  0.00     0.091 A 
HETATM    8  C6  UNK     1      12.705   8.290  10.437  1.00  0.00     0.031 A 
HETATM    9  C9  UNK     1      14.088   8.051  10.411  1.00  0.00    -0.001 A 
HETATM   10  C10 UNK     1      13.882   6.760   8.334  1.00  0.00     0.076 A 
HETATM   11  C11 UNK     1      14.643   7.303   9.374  1.00  0.00     0.092 A 
HETATM   12  C12 UNK     1      14.968   8.571  11.447  1.00  0.00     0.020 A 
HETATM   13  C13 UNK     1      16.280   8.331  11.402  1.00  0.00     0.083 A 
HETATM   14  C14 UNK     1      16.893   7.543  10.319  1.00  0.00     0.288 A 
ENDROOT
BRANCH   4  15
HETATM   15  C1  UNK     1       9.224   6.711   7.086  1.00  0.00     0.038 C 
HETATM   16  C7  UNK     1       8.219   5.770   7.796  1.00  0.00     0.016 C 
HETATM   17  C8  UNK     1       9.619   6.089   5.724  1.00  0.00     0.016 C 
ENDBRANCH   4  15
BRANCH   6  18
HETATM   18  O2  UNK     1       9.520   8.367   9.757  1.00  0.00    -0.352 OA
HETATM   19  C15 UNK     1       9.518   9.800   9.835  1.00  0.00     0.210 C 
ENDBRANCH   6  18
TORSDOF 2
ENDMDL
MODEL 10
REMARK VINA RESULT:      -7.1      2.783      6.468
REMARK  2 active torsions:
REMARK  status: ('A' for Active; 'I' for Inactive)
REMARK    1  A    between atoms: C4_8  and  O2_2 
REMARK    2  A    between atoms: C1_5  and  C2_6 
ROOT
HETATM    1  O1  UNK     1      18.397   2.018  31.823  1.00  0.00    -0.311 OA
HETATM    2  O3  UNK     1      18.154  -1.283  35.352  1.00  0.00    -0.275 OA
HETATM    3  O4  UNK     1      18.028  -2.765  37.093  1.00  0.00    -0.260 OA
HETATM    4  C2  UNK     1      18.356   3.375  31.855  1.00  0.00     0.091 A 
HETATM    5  C3  UNK     1      18.175   2.674  33.974  1.00  0.00     0.035 A 
HETATM    6  C4  UNK     1      18.221   3.828  33.147  1.00  0.00     0.111 A 
HETATM    7  C5  UNK     1      18.287   1.587  33.112  1.00  0.00     0.091 A 
HETATM    8  C6  UNK     1      18.051   2.433  35.356  1.00  0.00     0.031 A 
HETATM    9  C9  UNK     1      18.044   1.106  35.814  1.00  0.00    -0.001 A 
HETATM   10  C10 UNK     1      18.284   0.257  33.524  1.00  0.00     0.076 A 
HETATM   11  C11 UNK     1      18.161   0.058  34.902  1.00  0.00     0.092 A 
HETATM   12  C12 UNK     1      17.919   0.792  37.229  1.00  0.00     0.020 A 
HETATM   13  C13 UNK     1      17.915  -0.477  37.641  1.00  0.00     0.083 A 
HETATM   14  C14 UNK     1      18.035  -1.605  36.700  1.00  0.00     0.288 A 
ENDROOT
BRANCH   4  15
HETATM   15  C1  UNK     1      18.460   4.054  30.555  1.00  0.00     0.038 C 
HETATM   16  C7  UNK     1      18.539   3.073  29.359  1.00  0.00     0.016 C 
HETATM   17  C8  UNK     1      19.650   5.041  30.476  1.00  0.00     0.016 C 
ENDBRANCH   4  15
BRANCH   6  18
HETATM   18  O2  UNK     1      18.151   5.116  33.512  1.00  0.00    -0.352 OA
HETATM   19  C15 UNK     1      19.351   5.742  33.992  1.00  0.00     0.210 C 
ENDBRANCH   6  18
TORSDOF 2
ENDMDL
