MODEL 1
REMARK VINA RESULT:      -9.8      0.000      0.000
REMARK  11 active torsions:
REMARK  status: ('A' for Active; 'I' for Inactive)
REMARK    1  A    between atoms: C2_15  and  O2_2 
REMARK    2  A    between atoms: C10_23  and  O3_3 
REMARK    3  A    between atoms: C3_16  and  O3_3 
REMARK    4  A    between atoms: C5_18  and  O4_4 
REMARK    5  A    between atoms: C9_22  and  O4_4 
REMARK    6  A    between atoms: C4_17  and  O5_5 
REMARK    7  A    between atoms: C26_39  and  O11_11 
REMARK       I    between atoms: C10_23  and  N1_12 
REMARK    8  A    between atoms: C18_31  and  N2_13 
REMARK       I    between atoms: C20_33  and  N2_13 
REMARK    9  A    between atoms: C20_33  and  C21_34 
REMARK   10  A    between atoms: C22_35  and  C24_37 
REMARK   11  A    between atoms: C24_37  and  C28_41 
ROOT
HETATM    1  O7  UNK     1      19.133   7.760  33.133  1.00  0.00    -0.272 OA
HETATM    2  O8  UNK     1      15.979   5.666  31.697  1.00  0.00    -0.285 OA
HETATM    3  O9  UNK     1      20.616   6.316  32.109  1.00  0.00    -0.257 OA
HETATM    4  C9  UNK     1      16.435   9.752  34.550  1.00  0.00     0.081 A 
HETATM    5  C11 UNK     1      17.710   9.293  34.218  1.00  0.00     0.006 A 
HETATM    6  C12 UNK     1      15.307   9.073  34.086  1.00  0.00     0.038 A 
HETATM    7  C13 UNK     1      17.856   8.156  33.421  1.00  0.00     0.102 A 
HETATM    8  C14 UNK     1      16.734   7.486  32.964  1.00  0.00     0.051 A 
HETATM    9  C15 UNK     1      15.454   7.938  33.291  1.00  0.00     0.021 A 
HETATM   10  C16 UNK     1      18.914  10.026  34.718  1.00  0.00     0.054 C 
HETATM   11  C17 UNK     1      16.931   6.300  32.133  1.00  0.00     0.217 A 
HETATM   12  C18 UNK     1      18.339   5.919  31.854  1.00  0.00     0.163 A 
HETATM   13  C19 UNK     1      19.404   6.621  32.333  1.00  0.00     0.319 A 
ENDROOT
BRANCH   4  14
HETATM   14  O4  UNK     1      16.271  10.864  35.329  1.00  0.00    -0.317 OA
BRANCH  14  15
HETATM   15  C5  UNK     1      16.098  12.105  34.645  1.00  0.00     0.298 C 
HETATM   16  C4  UNK     1      17.108  13.110  35.207  1.00  0.00     0.206 C 
HETATM   17  C3  UNK     1      16.927  14.486  34.569  1.00  0.00     0.199 C 
HETATM   18  C2  UNK     1      15.456  14.920  34.630  1.00  0.00     0.187 C 
HETATM   19  C1  UNK     1      14.466  13.826  34.158  1.00  0.00     0.085 C 
HETATM   20  C6  UNK     1      14.412  13.640  32.633  1.00  0.00     0.048 C 
HETATM   21  C7  UNK     1      13.047  14.203  34.620  1.00  0.00     0.048 C 
HETATM   22  O1  UNK     1      14.762  12.579  34.810  1.00  0.00    -0.345 OA
BRANCH  16  23
HETATM   23  O5  UNK     1      16.942  13.222  36.622  1.00  0.00    -0.388 OA
HETATM   24  H11 UNK     1      16.991  14.166  36.849  1.00  0.00     0.210 HD
ENDBRANCH  16  23
BRANCH  17  25
HETATM   25  O3  UNK     1      17.368  14.446  33.214  1.00  0.00    -0.293 OA
BRANCH  25  26
HETATM   26  C10 UNK     1      18.695  14.176  33.026  1.00  0.00     0.358 C 
HETATM   27  N1  UNK     1      19.472  15.138  33.623  1.00  0.00    -0.346 N 
HETATM   28  H17 UNK     1      19.057  15.919  34.120  1.00  0.00     0.161 HD
HETATM   29  H18 UNK     1      20.485  15.098  33.584  1.00  0.00     0.161 HD
HETATM   30  O6  UNK     1      19.138  13.212  32.412  1.00  0.00    -0.239 OA
ENDBRANCH  25  26
ENDBRANCH  17  25
BRANCH  18  31
HETATM   31  O2  UNK     1      15.263  16.127  33.898  1.00  0.00    -0.385 OA
HETATM   32  C8  UNK     1      15.664  17.253  34.658  1.00  0.00     0.202 C 
ENDBRANCH  18  31
ENDBRANCH  14  15
ENDBRANCH   4  14
BRANCH  12  33
HETATM   33  N2  UNK     1      18.492   4.801  31.072  1.00  0.00    -0.315 N 
HETATM   34  C20 UNK     1      18.334   3.514  31.554  1.00  0.00     0.256 C 
HETATM   35  O10 UNK     1      18.044   3.212  32.710  1.00  0.00    -0.267 OA
HETATM   36  H22 UNK     1      18.326   4.936  30.077  1.00  0.00     0.169 HD
BRANCH  34  37
HETATM   37  C21 UNK     1      18.516   2.431  30.552  1.00  0.00     0.033 A 
HETATM   38  C23 UNK     1      19.266   1.300  30.877  1.00  0.00     0.027 A 
HETATM   39  C22 UNK     1      19.436   0.284  29.937  1.00  0.00    -0.021 A 
HETATM   40  C26 UNK     1      18.860   0.399  28.672  1.00  0.00     0.072 A 
HETATM   41  C27 UNK     1      18.111   1.531  28.347  1.00  0.00     0.038 A 
HETATM   42  C25 UNK     1      17.939   2.546  29.288  1.00  0.00     0.020 A 
BRANCH  39  43
HETATM   43  C24 UNK     1      20.240  -0.920  30.301  1.00  0.00     0.068 C 
BRANCH  43  44
HETATM   44  C28 UNK     1      20.166  -1.253  31.770  1.00  0.00    -0.020 C 
HETATM   45  C29 UNK     1      20.571  -2.378  32.389  1.00  0.00    -0.091 C 
HETATM   46  C30 UNK     1      21.178  -3.506  31.597  1.00  0.00     0.042 C 
HETATM   47  C31 UNK     1      20.466  -2.644  33.864  1.00  0.00     0.042 C 
ENDBRANCH  43  44
ENDBRANCH  39  43
BRANCH  40  48
HETATM   48  O11 UNK     1      19.017  -0.583  27.743  1.00  0.00    -0.360 OA
HETATM   49  H29 UNK     1      19.966  -0.713  27.573  1.00  0.00     0.217 HD
ENDBRANCH  40  48
ENDBRANCH  34  37
ENDBRANCH  12  33
TORSDOF 11
ENDMDL
MODEL 2
REMARK VINA RESULT:      -9.6      1.961      2.786
REMARK  11 active torsions:
REMARK  status: ('A' for Active; 'I' for Inactive)
REMARK    1  A    between atoms: C2_15  and  O2_2 
REMARK    2  A    between atoms: C10_23  and  O3_3 
REMARK    3  A    between atoms: C3_16  and  O3_3 
REMARK    4  A    between atoms: C5_18  and  O4_4 
REMARK    5  A    between atoms: C9_22  and  O4_4 
REMARK    6  A    between atoms: C4_17  and  O5_5 
REMARK    7  A    between atoms: C26_39  and  O11_11 
REMARK       I    between atoms: C10_23  and  N1_12 
REMARK    8  A    between atoms: C18_31  and  N2_13 
REMARK       I    between atoms: C20_33  and  N2_13 
REMARK    9  A    between atoms: C20_33  and  C21_34 
REMARK   10  A    between atoms: C22_35  and  C24_37 
REMARK   11  A    between atoms: C24_37  and  C28_41 
ROOT
HETATM    1  O7  UNK     1      19.655   7.736  33.077  1.00  0.00    -0.272 OA
HETATM    2  O8  UNK     1      16.433   6.045  31.301  1.00  0.00    -0.285 OA
HETATM    3  O9  UNK     1      21.033   6.070  32.265  1.00  0.00    -0.257 OA
HETATM    4  C9  UNK     1      17.111  10.121  34.123  1.00  0.00     0.081 A 
HETATM    5  C11 UNK     1      18.341   9.483  33.956  1.00  0.00     0.006 A 
HETATM    6  C12 UNK     1      15.963   9.588  33.537  1.00  0.00     0.038 A 
HETATM    7  C13 UNK     1      18.421   8.311  33.201  1.00  0.00     0.102 A 
HETATM    8  C14 UNK     1      17.278   7.785  32.622  1.00  0.00     0.051 A 
HETATM    9  C15 UNK     1      16.044   8.418  32.783  1.00  0.00     0.021 A 
HETATM   10  C16 UNK     1      19.567  10.061  34.588  1.00  0.00     0.054 C 
HETATM   11  C17 UNK     1      17.405   6.557  31.839  1.00  0.00     0.217 A 
HETATM   12  C18 UNK     1      18.770   5.979  31.740  1.00  0.00     0.163 A 
HETATM   13  C19 UNK     1      19.857   6.545  32.335  1.00  0.00     0.319 A 
ENDROOT
BRANCH   4  14
HETATM   14  O4  UNK     1      17.012  11.271  34.858  1.00  0.00    -0.317 OA
BRANCH  14  15
HETATM   15  C5  UNK     1      15.700  11.664  35.258  1.00  0.00     0.298 C 
HETATM   16  C4  UNK     1      15.142  12.623  34.201  1.00  0.00     0.206 C 
HETATM   17  C3  UNK     1      13.764  13.143  34.606  1.00  0.00     0.199 C 
HETATM   18  C2  UNK     1      13.791  13.683  36.042  1.00  0.00     0.187 C 
HETATM   19  C1  UNK     1      14.469  12.726  37.052  1.00  0.00     0.085 C 
HETATM   20  C6  UNK     1      13.605  11.520  37.456  1.00  0.00     0.048 C 
HETATM   21  C7  UNK     1      14.792  13.504  38.340  1.00  0.00     0.048 C 
HETATM   22  O1  UNK     1      15.740  12.289  36.541  1.00  0.00    -0.345 OA
BRANCH  16  23
HETATM   23  O5  UNK     1      16.032  13.728  34.033  1.00  0.00    -0.388 OA
HETATM   24  H11 UNK     1      15.886  14.338  34.776  1.00  0.00     0.210 HD
ENDBRANCH  16  23
BRANCH  17  25
HETATM   25  O3  UNK     1      12.806  12.094  34.497  1.00  0.00    -0.293 OA
BRANCH  25  26
HETATM   26  C10 UNK     1      12.123  12.030  33.315  1.00  0.00     0.358 C 
HETATM   27  N1  UNK     1      12.402  10.856  32.660  1.00  0.00    -0.346 N 
HETATM   28  H17 UNK     1      13.039  10.170  33.053  1.00  0.00     0.161 HD
HETATM   29  H18 UNK     1      11.981  10.638  31.763  1.00  0.00     0.161 HD
HETATM   30  O6  UNK     1      11.363  12.894  32.891  1.00  0.00    -0.239 OA
ENDBRANCH  25  26
ENDBRANCH  17  25
BRANCH  18  31
HETATM   31  O2  UNK     1      12.475  14.022  36.470  1.00  0.00    -0.385 OA
HETATM   32  C8  UNK     1      12.281  15.425  36.457  1.00  0.00     0.202 C 
ENDBRANCH  18  31
ENDBRANCH  14  15
ENDBRANCH   4  14
BRANCH  12  33
HETATM   33  N2  UNK     1      18.858   4.826  31.001  1.00  0.00    -0.315 N 
HETATM   34  C20 UNK     1      18.434   3.595  31.468  1.00  0.00     0.256 C 
HETATM   35  O10 UNK     1      17.939   3.378  32.572  1.00  0.00    -0.267 OA
HETATM   36  H22 UNK     1      18.858   4.952  29.991  1.00  0.00     0.169 HD
BRANCH  34  37
HETATM   37  C21 UNK     1      18.587   2.464  30.514  1.00  0.00     0.033 A 
HETATM   38  C23 UNK     1      19.388   1.372  30.851  1.00  0.00     0.027 A 
HETATM   39  C22 UNK     1      19.531   0.312  29.956  1.00  0.00    -0.021 A 
HETATM   40  C26 UNK     1      18.876   0.344  28.726  1.00  0.00     0.072 A 
HETATM   41  C27 UNK     1      18.076   1.436  28.389  1.00  0.00     0.038 A 
HETATM   42  C25 UNK     1      17.932   2.496  29.284  1.00  0.00     0.020 A 
BRANCH  39  43
HETATM   43  C24 UNK     1      20.390  -0.850  30.332  1.00  0.00     0.068 C 
BRANCH  43  44
HETATM   44  C28 UNK     1      20.293  -1.202  31.796  1.00  0.00    -0.020 C 
HETATM   45  C29 UNK     1      20.611  -2.366  32.394  1.00  0.00    -0.091 C 
HETATM   46  C30 UNK     1      21.128  -3.523  31.580  1.00  0.00     0.042 C 
HETATM   47  C31 UNK     1      20.489  -2.648  33.864  1.00  0.00     0.042 C 
ENDBRANCH  43  44
ENDBRANCH  39  43
BRANCH  40  48
HETATM   48  O11 UNK     1      19.005  -0.683  27.841  1.00  0.00    -0.360 OA
HETATM   49  H29 UNK     1      18.149  -0.840  27.407  1.00  0.00     0.217 HD
ENDBRANCH  40  48
ENDBRANCH  34  37
ENDBRANCH  12  33
TORSDOF 11
ENDMDL
MODEL 3
REMARK VINA RESULT:      -9.4     16.351     21.231
REMARK  11 active torsions:
REMARK  status: ('A' for Active; 'I' for Inactive)
REMARK    1  A    between atoms: C2_15  and  O2_2 
REMARK    2  A    between atoms: C10_23  and  O3_3 
REMARK    3  A    between atoms: C3_16  and  O3_3 
REMARK    4  A    between atoms: C5_18  and  O4_4 
REMARK    5  A    between atoms: C9_22  and  O4_4 
REMARK    6  A    between atoms: C4_17  and  O5_5 
REMARK    7  A    between atoms: C26_39  and  O11_11 
REMARK       I    between atoms: C10_23  and  N1_12 
REMARK    8  A    between atoms: C18_31  and  N2_13 
REMARK       I    between atoms: C20_33  and  N2_13 
REMARK    9  A    between atoms: C20_33  and  C21_34 
REMARK   10  A    between atoms: C22_35  and  C24_37 
REMARK   11  A    between atoms: C24_37  and  C28_41 
ROOT
HETATM    1  O7  UNK     1      29.346  -8.330  38.704  1.00  0.00    -0.272 OA
HETATM    2  O8  UNK     1      26.763  -5.254  38.198  1.00  0.00    -0.285 OA
HETATM    3  O9  UNK     1      27.614  -9.751  39.265  1.00  0.00    -0.257 OA
HETATM    4  C9  UNK     1      31.725  -5.739  37.766  1.00  0.00     0.081 A 
HETATM    5  C11 UNK     1      31.186  -6.969  38.145  1.00  0.00     0.006 A 
HETATM    6  C12 UNK     1      30.887  -4.639  37.576  1.00  0.00     0.038 A 
HETATM    7  C13 UNK     1      29.809  -7.099  38.333  1.00  0.00     0.102 A 
HETATM    8  C14 UNK     1      28.981  -6.004  38.144  1.00  0.00     0.051 A 
HETATM    9  C15 UNK     1      29.512  -4.769  37.765  1.00  0.00     0.021 A 
HETATM   10  C16 UNK     1      32.091  -8.143  38.346  1.00  0.00     0.054 C 
HETATM   11  C17 UNK     1      27.546  -6.182  38.351  1.00  0.00     0.217 A 
HETATM   12  C18 UNK     1      27.103  -7.542  38.752  1.00  0.00     0.163 A 
HETATM   13  C19 UNK     1      27.968  -8.581  38.923  1.00  0.00     0.319 A 
ENDROOT
BRANCH   4  14
HETATM   14  O4  UNK     1      33.072  -5.592  37.576  1.00  0.00    -0.317 OA
BRANCH  14  15
HETATM   15  C5  UNK     1      33.644  -6.299  36.476  1.00  0.00     0.298 C 
HETATM   16  C4  UNK     1      34.890  -5.538  36.011  1.00  0.00     0.206 C 
HETATM   17  C3  UNK     1      35.512  -6.201  34.784  1.00  0.00     0.199 C 
HETATM   18  C2  UNK     1      34.447  -6.451  33.707  1.00  0.00     0.187 C 
HETATM   19  C1  UNK     1      33.160  -7.118  34.250  1.00  0.00     0.085 C 
HETATM   20  C6  UNK     1      33.304  -8.620  34.543  1.00  0.00     0.048 C 
HETATM   21  C7  UNK     1      32.039  -6.964  33.207  1.00  0.00     0.048 C 
HETATM   22  O1  UNK     1      32.695  -6.417  35.416  1.00  0.00    -0.345 OA
BRANCH  16  23
HETATM   23  O5  UNK     1      34.542  -4.189  35.691  1.00  0.00    -0.388 OA
HETATM   24  H11 UNK     1      33.639  -4.035  36.016  1.00  0.00     0.210 HD
ENDBRANCH  16  23
BRANCH  17  25
HETATM   25  O3  UNK     1      36.120  -7.433  35.163  1.00  0.00    -0.293 OA
BRANCH  25  26
HETATM   26  C10 UNK     1      37.246  -7.782  34.470  1.00  0.00     0.358 C 
HETATM   27  N1  UNK     1      37.182  -9.095  34.075  1.00  0.00    -0.346 N 
HETATM   28  H17 UNK     1      36.380  -9.676  34.300  1.00  0.00     0.161 HD
HETATM   29  H18 UNK     1      37.934  -9.526  33.547  1.00  0.00     0.161 HD
HETATM   30  O6  UNK     1      38.186  -7.032  34.229  1.00  0.00    -0.239 OA
ENDBRANCH  25  26
ENDBRANCH  17  25
BRANCH  18  31
HETATM   31  O2  UNK     1      34.996  -7.208  32.632  1.00  0.00    -0.385 OA
HETATM   32  C8  UNK     1      35.609  -6.363  31.675  1.00  0.00     0.202 C 
ENDBRANCH  18  31
ENDBRANCH  14  15
ENDBRANCH   4  14
BRANCH  12  33
HETATM   33  N2  UNK     1      25.750  -7.678  38.941  1.00  0.00    -0.315 N 
HETATM   34  C20 UNK     1      24.912  -8.263  38.008  1.00  0.00     0.256 C 
HETATM   35  O10 UNK     1      25.259  -8.725  36.923  1.00  0.00    -0.267 OA
HETATM   36  H22 UNK     1      25.444  -7.714  39.910  1.00  0.00     0.169 HD
BRANCH  34  37
HETATM   37  C21 UNK     1      23.480  -8.343  38.399  1.00  0.00     0.033 A 
HETATM   38  C23 UNK     1      22.507  -8.595  37.432  1.00  0.00     0.027 A 
HETATM   39  C22 UNK     1      21.164  -8.670  37.799  1.00  0.00    -0.021 A 
HETATM   40  C26 UNK     1      20.793  -8.491  39.131  1.00  0.00     0.072 A 
HETATM   41  C27 UNK     1      21.767  -8.239  40.099  1.00  0.00     0.038 A 
HETATM   42  C25 UNK     1      23.110  -8.165  39.732  1.00  0.00     0.020 A 
BRANCH  39  43
HETATM   43  C24 UNK     1      20.134  -8.942  36.752  1.00  0.00     0.068 C 
BRANCH  43  44
HETATM   44  C28 UNK     1      20.596  -8.570  35.365  1.00  0.00    -0.020 C 
HETATM   45  C29 UNK     1      20.411  -7.407  34.712  1.00  0.00    -0.091 C 
HETATM   46  C30 UNK     1      19.654  -6.280  35.363  1.00  0.00     0.042 C 
HETATM   47  C31 UNK     1      20.901  -7.103  33.324  1.00  0.00     0.042 C 
ENDBRANCH  43  44
ENDBRANCH  39  43
BRANCH  40  48
HETATM   48  O11 UNK     1      19.486  -8.562  39.507  1.00  0.00    -0.360 OA
HETATM   49  H29 UNK     1      19.429  -8.971  40.387  1.00  0.00     0.217 HD
ENDBRANCH  40  48
ENDBRANCH  34  37
ENDBRANCH  12  33
TORSDOF 11
ENDMDL
MODEL 4
REMARK VINA RESULT:      -9.2     15.597     21.150
REMARK  11 active torsions:
REMARK  status: ('A' for Active; 'I' for Inactive)
REMARK    1  A    between atoms: C2_15  and  O2_2 
REMARK    2  A    between atoms: C10_23  and  O3_3 
REMARK    3  A    between atoms: C3_16  and  O3_3 
REMARK    4  A    between atoms: C5_18  and  O4_4 
REMARK    5  A    between atoms: C9_22  and  O4_4 
REMARK    6  A    between atoms: C4_17  and  O5_5 
REMARK    7  A    between atoms: C26_39  and  O11_11 
REMARK       I    between atoms: C10_23  and  N1_12 
REMARK    8  A    between atoms: C18_31  and  N2_13 
REMARK       I    between atoms: C20_33  and  N2_13 
REMARK    9  A    between atoms: C20_33  and  C21_34 
REMARK   10  A    between atoms: C22_35  and  C24_37 
REMARK   11  A    between atoms: C24_37  and  C28_41 
ROOT
HETATM    1  O7  UNK     1      28.218  -9.512  38.121  1.00  0.00    -0.272 OA
HETATM    2  O8  UNK     1      25.818  -6.263  38.393  1.00  0.00    -0.285 OA
HETATM    3  O9  UNK     1      26.390 -10.922  38.158  1.00  0.00    -0.257 OA
HETATM    4  C9  UNK     1      30.771  -6.916  38.097  1.00  0.00     0.081 A 
HETATM    5  C11 UNK     1      30.152  -8.167  38.076  1.00  0.00     0.006 A 
HETATM    6  C12 UNK     1      29.999  -5.758  38.189  1.00  0.00     0.038 A 
HETATM    7  C13 UNK     1      28.761  -8.258  38.146  1.00  0.00     0.102 A 
HETATM    8  C14 UNK     1      27.999  -7.105  38.239  1.00  0.00     0.051 A 
HETATM    9  C15 UNK     1      28.610  -5.849  38.261  1.00  0.00     0.021 A 
HETATM   10  C16 UNK     1      30.987  -9.404  37.975  1.00  0.00     0.054 C 
HETATM   11  C17 UNK     1      26.546  -7.243  38.311  1.00  0.00     0.217 A 
HETATM   12  C18 UNK     1      26.015  -8.631  38.279  1.00  0.00     0.163 A 
HETATM   13  C19 UNK     1      26.819  -9.727  38.187  1.00  0.00     0.319 A 
ENDROOT
BRANCH   4  14
HETATM   14  O4  UNK     1      32.133  -6.807  38.027  1.00  0.00    -0.317 OA
BRANCH  14  15
HETATM   15  C5  UNK     1      32.700  -6.690  36.723  1.00  0.00     0.298 C 
HETATM   16  C4  UNK     1      33.868  -7.676  36.616  1.00  0.00     0.206 C 
HETATM   17  C3  UNK     1      34.570  -7.551  35.265  1.00  0.00     0.199 C 
HETATM   18  C2  UNK     1      34.912  -6.084  34.969  1.00  0.00     0.187 C 
HETATM   19  C1  UNK     1      33.730  -5.112  35.203  1.00  0.00     0.085 C 
HETATM   20  C6  UNK     1      32.656  -5.149  34.103  1.00  0.00     0.048 C 
HETATM   21  C7  UNK     1      34.270  -3.672  35.261  1.00  0.00     0.048 C 
HETATM   22  O1  UNK     1      33.141  -5.353  36.492  1.00  0.00    -0.345 OA
BRANCH  16  23
HETATM   23  O5  UNK     1      34.810  -7.426  37.662  1.00  0.00    -0.388 OA
HETATM   24  H11 UNK     1      34.524  -7.933  38.441  1.00  0.00     0.210 HD
ENDBRANCH  16  23
BRANCH  17  25
HETATM   25  O3  UNK     1      33.731  -8.073  34.239  1.00  0.00    -0.293 OA
BRANCH  25  26
HETATM   26  C10 UNK     1      33.640  -9.436  34.178  1.00  0.00     0.358 C 
HETATM   27  N1  UNK     1      34.840  -9.982  33.794  1.00  0.00    -0.346 N 
HETATM   28  H17 UNK     1      35.647  -9.399  33.596  1.00  0.00     0.161 HD
HETATM   29  H18 UNK     1      34.957 -10.985  33.695  1.00  0.00     0.161 HD
HETATM   30  O6  UNK     1      32.633 -10.088  34.428  1.00  0.00    -0.239 OA
ENDBRANCH  25  26
ENDBRANCH  17  25
BRANCH  18  31
HETATM   31  O2  UNK     1      35.423  -5.951  33.646  1.00  0.00    -0.385 OA
HETATM   32  C8  UNK     1      36.563  -6.770  33.455  1.00  0.00     0.202 C 
ENDBRANCH  18  31
ENDBRANCH  14  15
ENDBRANCH   4  14
BRANCH  12  33
HETATM   33  N2  UNK     1      24.648  -8.729  38.350  1.00  0.00    -0.315 N 
HETATM   34  C20 UNK     1      23.867  -9.174  37.298  1.00  0.00     0.256 C 
HETATM   35  O10 UNK     1      24.282  -9.529  36.197  1.00  0.00    -0.267 OA
HETATM   36  H22 UNK     1      24.265  -8.858  39.284  1.00  0.00     0.169 HD
BRANCH  34  37
HETATM   37  C21 UNK     1      22.407  -9.235  37.570  1.00  0.00     0.033 A 
HETATM   38  C23 UNK     1      21.773  -8.174  38.218  1.00  0.00     0.027 A 
HETATM   39  C22 UNK     1      20.404  -8.232  38.473  1.00  0.00    -0.021 A 
HETATM   40  C26 UNK     1      19.667  -9.350  38.083  1.00  0.00     0.072 A 
HETATM   41  C27 UNK     1      20.301 -10.411  37.435  1.00  0.00     0.038 A 
HETATM   42  C25 UNK     1      21.671 -10.353  37.179  1.00  0.00     0.020 A 
BRANCH  39  43
HETATM   43  C24 UNK     1      19.741  -7.087  39.166  1.00  0.00     0.068 C 
BRANCH  43  44
HETATM   44  C28 UNK     1      20.276  -5.746  38.727  1.00  0.00    -0.020 C 
HETATM   45  C29 UNK     1      20.014  -5.081  37.586  1.00  0.00    -0.091 C 
HETATM   46  C30 UNK     1      19.092  -5.673  36.554  1.00  0.00     0.042 C 
HETATM   47  C31 UNK     1      20.585  -3.743  37.212  1.00  0.00     0.042 C 
ENDBRANCH  43  44
ENDBRANCH  39  43
BRANCH  40  48
HETATM   48  O11 UNK     1      18.329  -9.422  38.324  1.00  0.00    -0.360 OA
HETATM   49  H29 UNK     1      18.003  -8.541  38.580  1.00  0.00     0.217 HD
ENDBRANCH  40  48
ENDBRANCH  34  37
ENDBRANCH  12  33
TORSDOF 11
ENDMDL
MODEL 5
REMARK VINA RESULT:      -9.2     15.238     20.225
REMARK  11 active torsions:
REMARK  status: ('A' for Active; 'I' for Inactive)
REMARK    1  A    between atoms: C2_15  and  O2_2 
REMARK    2  A    between atoms: C10_23  and  O3_3 
REMARK    3  A    between atoms: C3_16  and  O3_3 
REMARK    4  A    between atoms: C5_18  and  O4_4 
REMARK    5  A    between atoms: C9_22  and  O4_4 
REMARK    6  A    between atoms: C4_17  and  O5_5 
REMARK    7  A    between atoms: C26_39  and  O11_11 
REMARK       I    between atoms: C10_23  and  N1_12 
REMARK    8  A    between atoms: C18_31  and  N2_13 
REMARK       I    between atoms: C20_33  and  N2_13 
REMARK    9  A    between atoms: C20_33  and  C21_34 
REMARK   10  A    between atoms: C22_35  and  C24_37 
REMARK   11  A    between atoms: C24_37  and  C28_41 
ROOT
HETATM    1  O7  UNK     1      28.238 -10.174  34.857  1.00  0.00    -0.272 OA
HETATM    2  O8  UNK     1      30.103  -6.581  34.951  1.00  0.00    -0.285 OA
HETATM    3  O9  UNK     1      29.689 -10.935  33.230  1.00  0.00    -0.257 OA
HETATM    4  C9  UNK     1      26.208  -8.547  37.404  1.00  0.00     0.081 A 
HETATM    5  C11 UNK     1      26.705  -9.501  36.514  1.00  0.00     0.006 A 
HETATM    6  C12 UNK     1      26.807  -7.289  37.483  1.00  0.00     0.038 A 
HETATM    7  C13 UNK     1      27.801  -9.196  35.706  1.00  0.00     0.102 A 
HETATM    8  C14 UNK     1      28.392  -7.946  35.788  1.00  0.00     0.051 A 
HETATM    9  C15 UNK     1      27.901  -6.985  36.675  1.00  0.00     0.021 A 
HETATM   10  C16 UNK     1      26.058 -10.847  36.436  1.00  0.00     0.054 C 
HETATM   11  C17 UNK     1      29.537  -7.666  34.924  1.00  0.00     0.217 A 
HETATM   12  C18 UNK     1      29.965  -8.768  34.024  1.00  0.00     0.163 A 
HETATM   13  C19 UNK     1      29.342  -9.979  33.989  1.00  0.00     0.319 A 
ENDROOT
BRANCH   4  14
HETATM   14  O4  UNK     1      25.136  -8.827  38.205  1.00  0.00    -0.317 OA
BRANCH  14  15
HETATM   15  C5  UNK     1      23.846  -8.500  37.687  1.00  0.00     0.298 C 
HETATM   16  C4  UNK     1      23.095  -7.686  38.746  1.00  0.00     0.206 C 
HETATM   17  C3  UNK     1      21.675  -7.365  38.285  1.00  0.00     0.199 C 
HETATM   18  C2  UNK     1      20.965  -8.636  37.798  1.00  0.00     0.187 C 
HETATM   19  C1  UNK     1      21.812  -9.483  36.818  1.00  0.00     0.085 C 
HETATM   20  C6  UNK     1      21.893  -8.909  35.394  1.00  0.00     0.048 C 
HETATM   21  C7  UNK     1      21.192 -10.888  36.706  1.00  0.00     0.048 C 
HETATM   22  O1  UNK     1      23.130  -9.689  37.356  1.00  0.00    -0.345 OA
BRANCH  16  23
HETATM   23  O5  UNK     1      23.037  -8.421  39.970  1.00  0.00    -0.388 OA
HETATM   24  H11 UNK     1      23.853  -8.231  40.465  1.00  0.00     0.210 HD
ENDBRANCH  16  23
BRANCH  17  25
HETATM   25  O3  UNK     1      21.719  -6.400  37.238  1.00  0.00    -0.293 OA
BRANCH  25  26
HETATM   26  C10 UNK     1      21.043  -5.234  37.470  1.00  0.00     0.358 C 
HETATM   27  N1  UNK     1      20.065  -5.424  38.415  1.00  0.00    -0.346 N 
HETATM   28  H17 UNK     1      19.913  -6.332  38.844  1.00  0.00     0.161 HD
HETATM   29  H18 UNK     1      19.463  -4.664  38.713  1.00  0.00     0.161 HD
HETATM   30  O6  UNK     1      21.272  -4.164  36.918  1.00  0.00    -0.239 OA
ENDBRANCH  25  26
ENDBRANCH  17  25
BRANCH  18  31
HETATM   31  O2  UNK     1      19.702  -8.311  37.224  1.00  0.00    -0.385 OA
HETATM   32  C8  UNK     1      18.644  -8.617  38.114  1.00  0.00     0.202 C 
ENDBRANCH  18  31
ENDBRANCH  14  15
ENDBRANCH   4  14
BRANCH  12  33
HETATM   33  N2  UNK     1      31.042  -8.476  33.224  1.00  0.00    -0.315 N 
HETATM   34  C20 UNK     1      30.918  -8.075  31.906  1.00  0.00     0.256 C 
HETATM   35  O10 UNK     1      29.859  -7.931  31.297  1.00  0.00    -0.267 OA
HETATM   36  H22 UNK     1      31.881  -8.172  33.712  1.00  0.00     0.169 HD
BRANCH  34  37
HETATM   37  C21 UNK     1      32.195  -7.779  31.206  1.00  0.00     0.033 A 
HETATM   38  C23 UNK     1      33.302  -7.338  31.933  1.00  0.00     0.027 A 
HETATM   39  C22 UNK     1      34.501  -7.061  31.277  1.00  0.00    -0.021 A 
HETATM   40  C26 UNK     1      34.594  -7.223  29.895  1.00  0.00     0.072 A 
HETATM   41  C27 UNK     1      33.487  -7.665  29.168  1.00  0.00     0.038 A 
HETATM   42  C25 UNK     1      32.288  -7.943  29.825  1.00  0.00     0.020 A 
BRANCH  39  43
HETATM   43  C24 UNK     1      35.676  -6.590  32.069  1.00  0.00     0.068 C 
BRANCH  43  44
HETATM   44  C28 UNK     1      35.301  -6.132  33.457  1.00  0.00    -0.020 C 
HETATM   45  C29 UNK     1      35.860  -6.490  34.629  1.00  0.00    -0.091 C 
HETATM   46  C30 UNK     1      37.000  -7.473  34.659  1.00  0.00     0.042 C 
HETATM   47  C31 UNK     1      35.434  -5.992  35.981  1.00  0.00     0.042 C 
ENDBRANCH  43  44
ENDBRANCH  39  43
BRANCH  40  48
HETATM   48  O11 UNK     1      35.757  -6.957  29.239  1.00  0.00    -0.360 OA
HETATM   49  H29 UNK     1      35.811  -6.003  29.059  1.00  0.00     0.217 HD
ENDBRANCH  40  48
ENDBRANCH  34  37
ENDBRANCH  12  33
TORSDOF 11
ENDMDL
MODEL 6
REMARK VINA RESULT:      -9.2     13.637     19.085
REMARK  11 active torsions:
REMARK  status: ('A' for Active; 'I' for Inactive)
REMARK    1  A    between atoms: C2_15  and  O2_2 
REMARK    2  A    between atoms: C10_23  and  O3_3 
REMARK    3  A    between atoms: C3_16  and  O3_3 
REMARK    4  A    between atoms: C5_18  and  O4_4 
REMARK    5  A    between atoms: C9_22  and  O4_4 
REMARK    6  A    between atoms: C4_17  and  O5_5 
REMARK    7  A    between atoms: C26_39  and  O11_11 
REMARK       I    between atoms: C10_23  and  N1_12 
REMARK    8  A    between atoms: C18_31  and  N2_13 
REMARK       I    between atoms: C20_33  and  N2_13 
REMARK    9  A    between atoms: C20_33  and  C21_34 
REMARK   10  A    between atoms: C22_35  and  C24_37 
REMARK   11  A    between atoms: C24_37  and  C28_41 
ROOT
HETATM    1  O7  UNK     1      26.939  -5.542  39.061  1.00  0.00    -0.272 OA
HETATM    2  O8  UNK     1      28.718  -8.668  37.200  1.00  0.00    -0.285 OA
HETATM    3  O9  UNK     1      28.938  -4.387  39.129  1.00  0.00    -0.257 OA
HETATM    4  C9  UNK     1      24.045  -7.726  38.725  1.00  0.00     0.081 A 
HETATM    5  C11 UNK     1      24.850  -6.631  39.044  1.00  0.00     0.006 A 
HETATM    6  C12 UNK     1      24.599  -8.835  38.083  1.00  0.00     0.038 A 
HETATM    7  C13 UNK     1      26.208  -6.646  38.720  1.00  0.00     0.102 A 
HETATM    8  C14 UNK     1      26.753  -7.749  38.084  1.00  0.00     0.051 A 
HETATM    9  C15 UNK     1      25.955  -8.849  37.761  1.00  0.00     0.021 A 
HETATM   10  C16 UNK     1      24.248  -5.447  39.731  1.00  0.00     0.054 C 
HETATM   11  C17 UNK     1      28.178  -7.725  37.763  1.00  0.00     0.217 A 
HETATM   12  C18 UNK     1      28.920  -6.499  38.157  1.00  0.00     0.163 A 
HETATM   13  C19 UNK     1      28.326  -5.445  38.782  1.00  0.00     0.319 A 
ENDROOT
BRANCH   4  14
HETATM   14  O4  UNK     1      22.713  -7.730  39.033  1.00  0.00    -0.317 OA
BRANCH  14  15
HETATM   15  C5  UNK     1      21.812  -7.368  37.986  1.00  0.00     0.298 C 
HETATM   16  C4  UNK     1      20.894  -6.257  38.504  1.00  0.00     0.206 C 
HETATM   17  C3  UNK     1      19.852  -5.872  37.455  1.00  0.00     0.199 C 
HETATM   18  C2  UNK     1      19.142  -7.122  36.916  1.00  0.00     0.187 C 
HETATM   19  C1  UNK     1      20.111  -8.261  36.514  1.00  0.00     0.085 C 
HETATM   20  C6  UNK     1      20.842  -8.026  35.181  1.00  0.00     0.048 C 
HETATM   21  C7  UNK     1      19.312  -9.569  36.369  1.00  0.00     0.048 C 
HETATM   22  O1  UNK     1      21.053  -8.504  37.572  1.00  0.00    -0.345 OA
BRANCH  16  23
HETATM   23  O5  UNK     1      20.228  -6.693  39.691  1.00  0.00    -0.388 OA
HETATM   24  H11 UNK     1      20.876  -7.179  40.229  1.00  0.00     0.210 HD
ENDBRANCH  16  23
BRANCH  17  25
HETATM   25  O3  UNK     1      20.485  -5.172  36.387  1.00  0.00    -0.293 OA
BRANCH  25  26
HETATM   26  C10 UNK     1      20.158  -3.851  36.262  1.00  0.00     0.358 C 
HETATM   27  N1  UNK     1      18.834  -3.651  36.563  1.00  0.00    -0.346 N 
HETATM   28  H17 UNK     1      18.231  -4.422  36.833  1.00  0.00     0.161 HD
HETATM   29  H18 UNK     1      18.416  -2.727  36.523  1.00  0.00     0.161 HD
HETATM   30  O6  UNK     1      20.934  -2.961  35.930  1.00  0.00    -0.239 OA
ENDBRANCH  25  26
ENDBRANCH  17  25
BRANCH  18  31
HETATM   31  O2  UNK     1      18.287  -6.777  35.830  1.00  0.00    -0.385 OA
HETATM   32  C8  UNK     1      16.950  -6.612  36.268  1.00  0.00     0.202 C 
ENDBRANCH  18  31
ENDBRANCH  14  15
ENDBRANCH   4  14
BRANCH  12  33
HETATM   33  N2  UNK     1      30.256  -6.506  37.844  1.00  0.00    -0.315 N 
HETATM   34  C20 UNK     1      30.751  -6.056  36.633  1.00  0.00     0.256 C 
HETATM   35  O10 UNK     1      30.079  -5.605  35.707  1.00  0.00    -0.267 OA
HETATM   36  H22 UNK     1      30.893  -6.463  38.637  1.00  0.00     0.169 HD
BRANCH  34  37
HETATM   37  C21 UNK     1      32.229  -6.119  36.485  1.00  0.00     0.033 A 
HETATM   38  C23 UNK     1      32.808  -6.011  35.220  1.00  0.00     0.027 A 
HETATM   39  C22 UNK     1      34.194  -6.070  35.081  1.00  0.00    -0.021 A 
HETATM   40  C26 UNK     1      35.002  -6.238  36.206  1.00  0.00     0.072 A 
HETATM   41  C27 UNK     1      34.422  -6.345  37.471  1.00  0.00     0.038 A 
HETATM   42  C25 UNK     1      33.036  -6.286  37.610  1.00  0.00     0.020 A 
BRANCH  39  43
HETATM   43  C24 UNK     1      34.798  -5.952  33.721  1.00  0.00     0.068 C 
BRANCH  43  44
HETATM   44  C28 UNK     1      34.513  -7.148  32.847  1.00  0.00    -0.020 C 
HETATM   45  C29 UNK     1      35.316  -8.199  32.590  1.00  0.00    -0.091 C 
HETATM   46  C30 UNK     1      36.691  -8.273  33.198  1.00  0.00     0.042 C 
HETATM   47  C31 UNK     1      34.966  -9.362  31.705  1.00  0.00     0.042 C 
ENDBRANCH  43  44
ENDBRANCH  39  43
BRANCH  40  48
HETATM   48  O11 UNK     1      36.357  -6.297  36.088  1.00  0.00    -0.360 OA
HETATM   49  H29 UNK     1      36.712  -6.881  36.780  1.00  0.00     0.217 HD
ENDBRANCH  40  48
ENDBRANCH  34  37
ENDBRANCH  12  33
TORSDOF 11
ENDMDL
MODEL 7
REMARK VINA RESULT:      -9.2     14.659     19.581
REMARK  11 active torsions:
REMARK  status: ('A' for Active; 'I' for Inactive)
REMARK    1  A    between atoms: C2_15  and  O2_2 
REMARK    2  A    between atoms: C10_23  and  O3_3 
REMARK    3  A    between atoms: C3_16  and  O3_3 
REMARK    4  A    between atoms: C5_18  and  O4_4 
REMARK    5  A    between atoms: C9_22  and  O4_4 
REMARK    6  A    between atoms: C4_17  and  O5_5 
REMARK    7  A    between atoms: C26_39  and  O11_11 
REMARK       I    between atoms: C10_23  and  N1_12 
REMARK    8  A    between atoms: C18_31  and  N2_13 
REMARK       I    between atoms: C20_33  and  N2_13 
REMARK    9  A    between atoms: C20_33  and  C21_34 
REMARK   10  A    between atoms: C22_35  and  C24_37 
REMARK   11  A    between atoms: C24_37  and  C28_41 
ROOT
HETATM    1  O7  UNK     1      28.413  -6.151  37.627  1.00  0.00    -0.272 OA
HETATM    2  O8  UNK     1      29.590  -9.183  35.214  1.00  0.00    -0.285 OA
HETATM    3  O9  UNK     1      30.351  -4.979  37.174  1.00  0.00    -0.257 OA
HETATM    4  C9  UNK     1      25.539  -8.349  38.033  1.00  0.00     0.081 A 
HETATM    5  C11 UNK     1      26.403  -7.260  38.156  1.00  0.00     0.006 A 
HETATM    6  C12 UNK     1      25.888  -9.426  37.217  1.00  0.00     0.038 A 
HETATM    7  C13 UNK     1      27.614  -7.248  37.462  1.00  0.00     0.102 A 
HETATM    8  C14 UNK     1      27.956  -8.320  36.654  1.00  0.00     0.051 A 
HETATM    9  C15 UNK     1      27.098  -9.414  36.524  1.00  0.00     0.021 A 
HETATM   10  C16 UNK     1      26.021  -6.110  39.032  1.00  0.00     0.054 C 
HETATM   11  C17 UNK     1      29.232  -8.268  35.944  1.00  0.00     0.217 A 
HETATM   12  C18 UNK     1      30.057  -7.052  36.163  1.00  0.00     0.163 A 
HETATM   13  C19 UNK     1      29.665  -6.029  36.972  1.00  0.00     0.319 A 
ENDROOT
BRANCH   4  14
HETATM   14  O4  UNK     1      24.348  -8.379  38.704  1.00  0.00    -0.317 OA
BRANCH  14  15
HETATM   15  C5  UNK     1      23.177  -8.084  37.943  1.00  0.00     0.298 C 
HETATM   16  C4  UNK     1      22.334  -7.075  38.730  1.00  0.00     0.206 C 
HETATM   17  C3  UNK     1      21.024  -6.771  38.005  1.00  0.00     0.199 C 
HETATM   18  C2  UNK     1      20.309  -8.071  37.613  1.00  0.00     0.187 C 
HETATM   19  C1  UNK     1      21.233  -9.104  36.924  1.00  0.00     0.085 C 
HETATM   20  C6  UNK     1      21.566  -8.774  35.460  1.00  0.00     0.048 C 
HETATM   21  C7  UNK     1      20.540 -10.479  36.933  1.00  0.00     0.048 C 
HETATM   22  O1  UNK     1      22.437  -9.278  37.690  1.00  0.00    -0.345 OA
BRANCH  16  23
HETATM   23  O5  UNK     1      22.042  -7.597  40.029  1.00  0.00    -0.388 OA
HETATM   24  H11 UNK     1      21.712  -8.504  39.912  1.00  0.00     0.210 HD
ENDBRANCH  16  23
BRANCH  17  25
HETATM   25  O3  UNK     1      21.292  -5.993  36.841  1.00  0.00    -0.293 OA
BRANCH  25  26
HETATM   26  C10 UNK     1      20.617  -4.807  36.748  1.00  0.00     0.358 C 
HETATM   27  N1  UNK     1      19.758  -4.824  35.677  1.00  0.00    -0.346 N 
HETATM   28  H17 UNK     1      19.682  -5.637  35.073  1.00  0.00     0.161 HD
HETATM   29  H18 UNK     1      19.175  -4.025  35.454  1.00  0.00     0.161 HD
HETATM   30  O6  UNK     1      20.753  -3.856  37.509  1.00  0.00    -0.239 OA
ENDBRANCH  25  26
ENDBRANCH  17  25
BRANCH  18  31
HETATM   31  O2  UNK     1      19.172  -7.788  36.803  1.00  0.00    -0.385 OA
HETATM   32  C8  UNK     1      18.105  -7.279  37.583  1.00  0.00     0.202 C 
ENDBRANCH  18  31
ENDBRANCH  14  15
ENDBRANCH   4  14
BRANCH  12  33
HETATM   33  N2  UNK     1      31.250  -7.032  35.485  1.00  0.00    -0.315 N 
HETATM   34  C20 UNK     1      31.393  -6.488  34.221  1.00  0.00     0.256 C 
HETATM   35  O10 UNK     1      30.498  -5.967  33.560  1.00  0.00    -0.267 OA
HETATM   36  H22 UNK     1      32.085  -7.052  36.066  1.00  0.00     0.169 HD
BRANCH  34  37
HETATM   37  C21 UNK     1      32.768  -6.538  33.657  1.00  0.00     0.033 A 
HETATM   38  C23 UNK     1      33.030  -7.314  32.528  1.00  0.00     0.027 A 
HETATM   39  C22 UNK     1      34.320  -7.361  31.999  1.00  0.00    -0.021 A 
HETATM   40  C26 UNK     1      35.347  -6.633  32.599  1.00  0.00     0.072 A 
HETATM   41  C27 UNK     1      35.084  -5.856  33.728  1.00  0.00     0.038 A 
HETATM   42  C25 UNK     1      33.794  -5.809  34.257  1.00  0.00     0.020 A 
BRANCH  39  43
HETATM   43  C24 UNK     1      34.584  -8.195  30.790  1.00  0.00     0.068 C 
BRANCH  43  44
HETATM   44  C28 UNK     1      33.548  -8.006  29.709  1.00  0.00    -0.020 C 
HETATM   45  C29 UNK     1      32.623  -8.887  29.282  1.00  0.00    -0.091 C 
HETATM   46  C30 UNK     1      32.540 -10.261  29.894  1.00  0.00     0.042 C 
HETATM   47  C31 UNK     1      31.617  -8.631  28.196  1.00  0.00     0.042 C 
ENDBRANCH  43  44
ENDBRANCH  39  43
BRANCH  40  48
HETATM   48  O11 UNK     1      36.612  -6.667  32.095  1.00  0.00    -0.360 OA
HETATM   49  H29 UNK     1      36.697  -5.989  31.403  1.00  0.00     0.217 HD
ENDBRANCH  40  48
ENDBRANCH  34  37
ENDBRANCH  12  33
TORSDOF 11
ENDMDL
MODEL 8
REMARK VINA RESULT:      -9.1      2.768      3.927
REMARK  11 active torsions:
REMARK  status: ('A' for Active; 'I' for Inactive)
REMARK    1  A    between atoms: C2_15  and  O2_2 
REMARK    2  A    between atoms: C10_23  and  O3_3 
REMARK    3  A    between atoms: C3_16  and  O3_3 
REMARK    4  A    between atoms: C5_18  and  O4_4 
REMARK    5  A    between atoms: C9_22  and  O4_4 
REMARK    6  A    between atoms: C4_17  and  O5_5 
REMARK    7  A    between atoms: C26_39  and  O11_11 
REMARK       I    between atoms: C10_23  and  N1_12 
REMARK    8  A    between atoms: C18_31  and  N2_13 
REMARK       I    between atoms: C20_33  and  N2_13 
REMARK    9  A    between atoms: C20_33  and  C21_34 
REMARK   10  A    between atoms: C22_35  and  C24_37 
REMARK   11  A    between atoms: C24_37  and  C28_41 
ROOT
HETATM    1  O7  UNK     1      15.729   8.972  33.375  1.00  0.00    -0.272 OA
HETATM    2  O8  UNK     1      19.472   7.455  33.662  1.00  0.00    -0.285 OA
HETATM    3  O9  UNK     1      14.886   6.901  32.797  1.00  0.00    -0.257 OA
HETATM    4  C9  UNK     1      17.503  12.010  34.312  1.00  0.00     0.081 A 
HETATM    5  C11 UNK     1      16.483  11.127  33.957  1.00  0.00     0.006 A 
HETATM    6  C12 UNK     1      18.815  11.549  34.427  1.00  0.00     0.038 A 
HETATM    7  C13 UNK     1      16.775   9.783  33.719  1.00  0.00     0.102 A 
HETATM    8  C14 UNK     1      18.078   9.330  33.834  1.00  0.00     0.051 A 
HETATM    9  C15 UNK     1      19.106  10.206  34.188  1.00  0.00     0.021 A 
HETATM   10  C16 UNK     1      15.079  11.629  33.837  1.00  0.00     0.054 C 
HETATM   11  C17 UNK     1      18.342   7.916  33.575  1.00  0.00     0.217 A 
HETATM   12  C18 UNK     1      17.167   7.085  33.207  1.00  0.00     0.163 A 
HETATM   13  C19 UNK     1      15.906   7.590  33.110  1.00  0.00     0.319 A 
ENDROOT
BRANCH   4  14
HETATM   14  O4  UNK     1      17.237  13.330  34.551  1.00  0.00    -0.317 OA
BRANCH  14  15
HETATM   15  C5  UNK     1      17.882  14.277  33.700  1.00  0.00     0.298 C 
HETATM   16  C4  UNK     1      18.151  15.548  34.512  1.00  0.00     0.206 C 
HETATM   17  C3  UNK     1      18.775  16.636  33.639  1.00  0.00     0.199 C 
HETATM   18  C2  UNK     1      17.959  16.830  32.353  1.00  0.00     0.187 C 
HETATM   19  C1  UNK     1      17.614  15.505  31.631  1.00  0.00     0.085 C 
HETATM   20  C6  UNK     1      18.790  14.881  30.862  1.00  0.00     0.048 C 
HETATM   21  C7  UNK     1      16.493  15.770  30.609  1.00  0.00     0.048 C 
HETATM   22  O1  UNK     1      17.063  14.562  32.566  1.00  0.00    -0.345 OA
BRANCH  16  23
HETATM   23  O5  UNK     1      16.928  16.036  35.068  1.00  0.00    -0.388 OA
HETATM   24  H11 UNK     1      16.813  15.614  35.936  1.00  0.00     0.210 HD
ENDBRANCH  16  23
BRANCH  17  25
HETATM   25  O3  UNK     1      20.116  16.278  33.315  1.00  0.00    -0.293 OA
BRANCH  25  26
HETATM   26  C10 UNK     1      21.094  17.015  33.922  1.00  0.00     0.358 C 
HETATM   27  N1  UNK     1      21.696  16.290  34.920  1.00  0.00    -0.346 N 
HETATM   28  H17 UNK     1      21.407  15.340  35.130  1.00  0.00     0.161 HD
HETATM   29  H18 UNK     1      22.447  16.681  35.479  1.00  0.00     0.161 HD
HETATM   30  O6  UNK     1      21.398  18.165  33.623  1.00  0.00    -0.239 OA
ENDBRANCH  25  26
ENDBRANCH  17  25
BRANCH  18  31
HETATM   31  O2  UNK     1      18.626  17.729  31.472  1.00  0.00    -0.385 OA
HETATM   32  C8  UNK     1      18.445  19.072  31.882  1.00  0.00     0.202 C 
ENDBRANCH  18  31
ENDBRANCH  14  15
ENDBRANCH   4  14
BRANCH  12  33
HETATM   33  N2  UNK     1      17.445   5.762  32.969  1.00  0.00    -0.315 N 
HETATM   34  C20 UNK     1      17.996   5.307  31.784  1.00  0.00     0.256 C 
HETATM   35  O10 UNK     1      18.298   6.005  30.819  1.00  0.00    -0.267 OA
HETATM   36  H22 UNK     1      17.618   5.195  33.796  1.00  0.00     0.169 HD
BRANCH  34  37
HETATM   37  C21 UNK     1      18.249   3.843  31.721  1.00  0.00     0.033 A 
HETATM   38  C23 UNK     1      18.228   3.081  32.889  1.00  0.00     0.027 A 
HETATM   39  C22 UNK     1      18.466   1.708  32.829  1.00  0.00    -0.021 A 
HETATM   40  C26 UNK     1      18.725   1.097  31.602  1.00  0.00     0.072 A 
HETATM   41  C27 UNK     1      18.746   1.860  30.434  1.00  0.00     0.038 A 
HETATM   42  C25 UNK     1      18.507   3.233  30.494  1.00  0.00     0.020 A 
BRANCH  39  43
HETATM   43  C24 UNK     1      18.438   0.906  34.088  1.00  0.00     0.068 C 
BRANCH  43  44
HETATM   44  C28 UNK     1      17.046   0.733  34.644  1.00  0.00    -0.020 C 
HETATM   45  C29 UNK     1      16.654   0.780  35.931  1.00  0.00    -0.091 C 
HETATM   46  C30 UNK     1      17.660   1.020  37.025  1.00  0.00     0.042 C 
HETATM   47  C31 UNK     1      15.243   0.598  36.415  1.00  0.00     0.042 C 
ENDBRANCH  43  44
ENDBRANCH  39  43
BRANCH  40  48
HETATM   48  O11 UNK     1      18.959  -0.242  31.526  1.00  0.00    -0.360 OA
HETATM   49  H29 UNK     1      19.906  -0.392  31.362  1.00  0.00     0.217 HD
ENDBRANCH  40  48
ENDBRANCH  34  37
ENDBRANCH  12  33
TORSDOF 11
ENDMDL
MODEL 9
REMARK VINA RESULT:      -9.0     16.931     21.645
REMARK  11 active torsions:
REMARK  status: ('A' for Active; 'I' for Inactive)
REMARK    1  A    between atoms: C2_15  and  O2_2 
REMARK    2  A    between atoms: C10_23  and  O3_3 
REMARK    3  A    between atoms: C3_16  and  O3_3 
REMARK    4  A    between atoms: C5_18  and  O4_4 
REMARK    5  A    between atoms: C9_22  and  O4_4 
REMARK    6  A    between atoms: C4_17  and  O5_5 
REMARK    7  A    between atoms: C26_39  and  O11_11 
REMARK       I    between atoms: C10_23  and  N1_12 
REMARK    8  A    between atoms: C18_31  and  N2_13 
REMARK       I    between atoms: C20_33  and  N2_13 
REMARK    9  A    between atoms: C20_33  and  C21_34 
REMARK   10  A    between atoms: C22_35  and  C24_37 
REMARK   11  A    between atoms: C24_37  and  C28_41 
ROOT
HETATM    1  O7  UNK     1      28.880  -9.636  38.444  1.00  0.00    -0.272 OA
HETATM    2  O8  UNK     1      27.058  -6.062  37.897  1.00  0.00    -0.285 OA
HETATM    3  O9  UNK     1      26.915 -10.570  39.218  1.00  0.00    -0.257 OA
HETATM    4  C9  UNK     1      31.716  -7.742  37.168  1.00  0.00     0.081 A 
HETATM    5  C11 UNK     1      30.936  -8.785  37.668  1.00  0.00     0.006 A 
HETATM    6  C12 UNK     1      31.146  -6.485  36.958  1.00  0.00     0.038 A 
HETATM    7  C13 UNK     1      29.587  -8.572  37.957  1.00  0.00     0.102 A 
HETATM    8  C14 UNK     1      29.026  -7.323  37.747  1.00  0.00     0.051 A 
HETATM    9  C15 UNK     1      29.799  -6.272  37.247  1.00  0.00     0.021 A 
HETATM   10  C16 UNK     1      31.554 -10.129  37.890  1.00  0.00     0.054 C 
HETATM   11  C17 UNK     1      27.611  -7.141  38.062  1.00  0.00     0.217 A 
HETATM   12  C18 UNK     1      26.896  -8.333  38.587  1.00  0.00     0.163 A 
HETATM   13  C19 UNK     1      27.504  -9.537  38.772  1.00  0.00     0.319 A 
ENDROOT
BRANCH   4  14
HETATM   14  O4  UNK     1      33.039  -7.931  36.879  1.00  0.00    -0.317 OA
BRANCH  14  15
HETATM   15  C5  UNK     1      33.471  -7.544  35.575  1.00  0.00     0.298 C 
HETATM   16  C4  UNK     1      32.941  -8.569  34.568  1.00  0.00     0.206 C 
HETATM   17  C3  UNK     1      33.431  -8.255  33.155  1.00  0.00     0.199 C 
HETATM   18  C2  UNK     1      34.951  -8.041  33.146  1.00  0.00     0.187 C 
HETATM   19  C1  UNK     1      35.449  -7.086  34.257  1.00  0.00     0.085 C 
HETATM   20  C6  UNK     1      35.176  -5.598  33.979  1.00  0.00     0.048 C 
HETATM   21  C7  UNK     1      36.973  -7.247  34.409  1.00  0.00     0.048 C 
HETATM   22  O1  UNK     1      34.895  -7.473  35.526  1.00  0.00    -0.345 OA
BRANCH  16  23
HETATM   23  O5  UNK     1      33.376  -9.880  34.936  1.00  0.00    -0.388 OA
HETATM   24  H11 UNK     1      33.953 -10.207  34.225  1.00  0.00     0.210 HD
ENDBRANCH  16  23
BRANCH  17  25
HETATM   25  O3  UNK     1      32.772  -7.090  32.669  1.00  0.00    -0.293 OA
BRANCH  25  26
HETATM   26  C10 UNK     1      31.847  -7.294  31.683  1.00  0.00     0.358 C 
HETATM   27  N1  UNK     1      32.466  -7.597  30.496  1.00  0.00    -0.346 N 
HETATM   28  H17 UNK     1      33.477  -7.646  30.424  1.00  0.00     0.161 HD
HETATM   29  H18 UNK     1      31.932  -7.780  29.653  1.00  0.00     0.161 HD
HETATM   30  O6  UNK     1      30.631  -7.219  31.830  1.00  0.00    -0.239 OA
ENDBRANCH  25  26
ENDBRANCH  17  25
BRANCH  18  31
HETATM   31  O2  UNK     1      35.382  -7.596  31.864  1.00  0.00    -0.385 OA
HETATM   32  C8  UNK     1      35.819  -8.683  31.068  1.00  0.00     0.202 C 
ENDBRANCH  18  31
ENDBRANCH  14  15
ENDBRANCH   4  14
BRANCH  12  33
HETATM   33  N2  UNK     1      25.569  -8.131  38.874  1.00  0.00    -0.315 N 
HETATM   34  C20 UNK     1      24.550  -8.419  37.984  1.00  0.00     0.256 C 
HETATM   35  O10 UNK     1      24.695  -8.881  36.854  1.00  0.00    -0.267 OA
HETATM   36  H22 UNK     1      25.326  -8.152  39.862  1.00  0.00     0.169 HD
BRANCH  34  37
HETATM   37  C21 UNK     1      23.175  -8.157  38.483  1.00  0.00     0.033 A 
HETATM   38  C23 UNK     1      22.112  -8.947  38.043  1.00  0.00     0.027 A 
HETATM   39  C22 UNK     1      20.821  -8.701  38.511  1.00  0.00    -0.021 A 
HETATM   40  C26 UNK     1      20.593  -7.665  39.416  1.00  0.00     0.072 A 
HETATM   41  C27 UNK     1      21.656  -6.875  39.855  1.00  0.00     0.038 A 
HETATM   42  C25 UNK     1      22.947  -7.121  39.388  1.00  0.00     0.020 A 
BRANCH  39  43
HETATM   43  C24 UNK     1      19.695  -9.556  38.032  1.00  0.00     0.068 C 
BRANCH  43  44
HETATM   44  C28 UNK     1      18.642  -8.775  37.285  1.00  0.00    -0.020 C 
HETATM   45  C29 UNK     1      18.776  -8.097  36.129  1.00  0.00    -0.091 C 
HETATM   46  C30 UNK     1      20.106  -8.046  35.425  1.00  0.00     0.042 C 
HETATM   47  C31 UNK     1      17.679  -7.337  35.437  1.00  0.00     0.042 C 
ENDBRANCH  43  44
ENDBRANCH  39  43
BRANCH  40  48
HETATM   48  O11 UNK     1      19.339  -7.411  39.883  1.00  0.00    -0.360 OA
HETATM   49  H29 UNK     1      19.200  -6.449  39.915  1.00  0.00     0.217 HD
ENDBRANCH  40  48
ENDBRANCH  34  37
ENDBRANCH  12  33
TORSDOF 11
ENDMDL
MODEL 10
REMARK VINA RESULT:      -8.8     14.833     19.873
REMARK  11 active torsions:
REMARK  status: ('A' for Active; 'I' for Inactive)
REMARK    1  A    between atoms: C2_15  and  O2_2 
REMARK    2  A    between atoms: C10_23  and  O3_3 
REMARK    3  A    between atoms: C3_16  and  O3_3 
REMARK    4  A    between atoms: C5_18  and  O4_4 
REMARK    5  A    between atoms: C9_22  and  O4_4 
REMARK    6  A    between atoms: C4_17  and  O5_5 
REMARK    7  A    between atoms: C26_39  and  O11_11 
REMARK       I    between atoms: C10_23  and  N1_12 
REMARK    8  A    between atoms: C18_31  and  N2_13 
REMARK       I    between atoms: C20_33  and  N2_13 
REMARK    9  A    between atoms: C20_33  and  C21_34 
REMARK   10  A    between atoms: C22_35  and  C24_37 
REMARK   11  A    between atoms: C24_37  and  C28_41 
ROOT
HETATM    1  O7  UNK     1      28.604  -6.698  36.715  1.00  0.00    -0.272 OA
HETATM    2  O8  UNK     1      29.316 -10.012  34.501  1.00  0.00    -0.285 OA
HETATM    3  O9  UNK     1      30.532  -5.701  35.926  1.00  0.00    -0.257 OA
HETATM    4  C9  UNK     1      25.688  -8.658  37.671  1.00  0.00     0.081 A 
HETATM    5  C11 UNK     1      26.617  -7.620  37.583  1.00  0.00     0.006 A 
HETATM    6  C12 UNK     1      25.877  -9.827  36.933  1.00  0.00     0.038 A 
HETATM    7  C13 UNK     1      27.734  -7.751  36.756  1.00  0.00     0.102 A 
HETATM    8  C14 UNK     1      27.917  -8.914  36.025  1.00  0.00     0.051 A 
HETATM    9  C15 UNK     1      26.993  -9.958  36.107  1.00  0.00     0.021 A 
HETATM   10  C16 UNK     1      26.406  -6.370  38.377  1.00  0.00     0.054 C 
HETATM   11  C17 UNK     1      29.099  -9.012  35.171  1.00  0.00     0.217 A 
HETATM   12  C18 UNK     1      30.007  -7.836  35.169  1.00  0.00     0.163 A 
HETATM   13  C19 UNK     1      29.771  -6.718  35.911  1.00  0.00     0.319 A 
ENDROOT
BRANCH   4  14
HETATM   14  O4  UNK     1      24.588  -8.548  38.475  1.00  0.00    -0.317 OA
BRANCH  14  15
HETATM   15  C5  UNK     1      23.354  -8.231  37.832  1.00  0.00     0.298 C 
HETATM   16  C4  UNK     1      22.599  -7.225  38.707  1.00  0.00     0.206 C 
HETATM   17  C3  UNK     1      21.231  -6.897  38.112  1.00  0.00     0.199 C 
HETATM   18  C2  UNK     1      20.467  -8.186  37.774  1.00  0.00     0.187 C 
HETATM   19  C1  UNK     1      21.311  -9.219  36.988  1.00  0.00     0.085 C 
HETATM   20  C6  UNK     1      21.508  -8.873  35.503  1.00  0.00     0.048 C 
HETATM   21  C7  UNK     1      20.608 -10.587  37.046  1.00  0.00     0.048 C 
HETATM   22  O1  UNK     1      22.580  -9.414  37.635  1.00  0.00    -0.345 OA
BRANCH  16  23
HETATM   23  O5  UNK     1      22.425  -7.760  40.021  1.00  0.00    -0.388 OA
HETATM   24  H11 UNK     1      23.279  -8.131  40.301  1.00  0.00     0.210 HD
ENDBRANCH  16  23
BRANCH  17  25
HETATM   25  O3  UNK     1      21.396  -6.107  36.938  1.00  0.00    -0.293 OA
BRANCH  25  26
HETATM   26  C10 UNK     1      20.666  -4.953  36.887  1.00  0.00     0.358 C 
HETATM   27  N1  UNK     1      19.793  -4.980  35.828  1.00  0.00    -0.346 N 
HETATM   28  H17 UNK     1      19.745  -5.778  35.203  1.00  0.00     0.161 HD
HETATM   29  H18 UNK     1      19.169  -4.203  35.637  1.00  0.00     0.161 HD
HETATM   30  O6  UNK     1      20.769  -4.018  37.675  1.00  0.00    -0.239 OA
ENDBRANCH  25  26
ENDBRANCH  17  25
BRANCH  18  31
HETATM   31  O2  UNK     1      19.262  -7.881  37.078  1.00  0.00    -0.385 OA
HETATM   32  C8  UNK     1      18.271  -7.396  37.964  1.00  0.00     0.202 C 
ENDBRANCH  18  31
ENDBRANCH  14  15
ENDBRANCH   4  14
BRANCH  12  33
HETATM   33  N2  UNK     1      31.108  -7.957  34.359  1.00  0.00    -0.315 N 
HETATM   34  C20 UNK     1      31.068  -7.751  32.991  1.00  0.00     0.256 C 
HETATM   35  O10 UNK     1      30.071  -7.441  32.343  1.00  0.00    -0.267 OA
HETATM   36  H22 UNK     1      32.006  -7.804  34.813  1.00  0.00     0.169 HD
BRANCH  34  37
HETATM   37  C21 UNK     1      32.366  -7.905  32.285  1.00  0.00     0.033 A 
HETATM   38  C23 UNK     1      33.518  -7.314  32.806  1.00  0.00     0.027 A 
HETATM   39  C22 UNK     1      34.736  -7.458  32.143  1.00  0.00    -0.021 A 
HETATM   40  C26 UNK     1      34.804  -8.191  30.958  1.00  0.00     0.072 A 
HETATM   41  C27 UNK     1      33.652  -8.782  30.437  1.00  0.00     0.038 A 
HETATM   42  C25 UNK     1      32.433  -8.638  31.101  1.00  0.00     0.020 A 
BRANCH  39  43
HETATM   43  C24 UNK     1      35.959  -6.821  32.715  1.00  0.00     0.068 C 
BRANCH  43  44
HETATM   44  C28 UNK     1      35.923  -6.729  34.220  1.00  0.00    -0.020 C 
HETATM   45  C29 UNK     1      35.424  -5.735  34.980  1.00  0.00    -0.091 C 
HETATM   46  C30 UNK     1      34.814  -4.519  34.337  1.00  0.00     0.042 C 
HETATM   47  C31 UNK     1      35.422  -5.709  36.482  1.00  0.00     0.042 C 
ENDBRANCH  43  44
ENDBRANCH  39  43
BRANCH  40  48
HETATM   48  O11 UNK     1      35.985  -8.342  30.298  1.00  0.00    -0.360 OA
HETATM   49  H29 UNK     1      36.631  -7.706  30.652  1.00  0.00     0.217 HD
ENDBRANCH  40  48
ENDBRANCH  34  37
ENDBRANCH  12  33
TORSDOF 11
ENDMDL
