MODEL 1
REMARK VINA RESULT:      -8.9      0.000      0.000
REMARK  8 active torsions:
REMARK  status: ('A' for Active; 'I' for Inactive)
REMARK    1  A    between atoms: C1_5  and  O1_2 
REMARK    2  A    between atoms: C4_8  and  O1_2 
REMARK    3  A    between atoms: C12_16  and  O2_3 
REMARK    4  A    between atoms: C2_6  and  O2_3 
REMARK    5  A    between atoms: C3_7  and  C9_13 
REMARK    6  A    between atoms: C4_8  and  C7_11 
REMARK    7  A    between atoms: C13_17  and  C17_21 
REMARK    8  A    between atoms: C16_20  and  C17_21 
ROOT
HETATM    1  C1  UNK     1      18.563   1.451  32.338  1.00  0.00     0.102 A 
HETATM    2  C2  UNK     1      19.017   1.304  31.027  1.00  0.00     0.102 A 
HETATM    3  C3  UNK     1      18.671   3.663  30.642  1.00  0.00    -0.033 A 
HETATM    4  C5  UNK     1      19.070   2.409  30.179  1.00  0.00     0.051 A 
HETATM    5  C6  UNK     1      18.164   2.705  32.801  1.00  0.00     0.040 A 
HETATM    6  C8  UNK     1      18.217   3.810  31.952  1.00  0.00     0.014 A 
ENDROOT
BRANCH   3   7
HETATM    7  C9  UNK     1      18.727   4.832  29.746  1.00  0.00     0.015 C 
HETATM    8  C13 UNK     1      19.347   5.984  30.038  1.00  0.00     0.056 C 
BRANCH   8   9
HETATM    9  C17 UNK     1      20.054   6.162  31.352  1.00  0.00     0.182 C 
HETATM   10  O3  UNK     1      21.211   5.742  31.506  1.00  0.00    -0.288 OA
BRANCH   9  11
HETATM   11  C16 UNK     1      19.366   6.863  32.425  1.00  0.00     0.014 A 
HETATM   12  C20 UNK     1      18.097   7.399  32.206  1.00  0.00     0.015 A 
HETATM   13  C22 UNK     1      17.436   8.070  33.235  1.00  0.00     0.001 A 
HETATM   14  C24 UNK     1      18.045   8.205  34.483  1.00  0.00     0.000 A 
HETATM   15  C23 UNK     1      19.314   7.668  34.702  1.00  0.00     0.001 A 
HETATM   16  C21 UNK     1      19.974   6.997  33.673  1.00  0.00     0.015 A 
ENDBRANCH   9  11
ENDBRANCH   8   9
ENDBRANCH   3   7
BRANCH   2  17
HETATM   17  O2  UNK     1      19.410   0.083  30.564  1.00  0.00    -0.349 OA
BRANCH  17  18
HETATM   18  C12 UNK     1      19.801   0.006  29.195  1.00  0.00     0.171 C 
HETATM   19  C19 UNK     1      20.914  -1.011  29.056  1.00  0.00     0.034 C 
ENDBRANCH  17  18
ENDBRANCH   2  17
BRANCH   1  20
HETATM   20  O1  UNK     1      18.507   0.378  33.176  1.00  0.00    -0.344 OA
BRANCH  20  21
HETATM   21  C4  UNK     1      17.791   0.547  34.398  1.00  0.00     0.216 C 
BRANCH  21  22
HETATM   22  C7  UNK     1      18.263  -0.476  35.388  1.00  0.00    -0.012 A 
HETATM   23  C10 UNK     1      17.796  -0.495  36.702  1.00  0.00     0.042 A 
HETATM   24 Cl1  UNK     1      16.645   0.664  37.261  1.00  0.00    -0.084 Cl
HETATM   25  C14 UNK     1      18.258  -1.462  37.594  1.00  0.00     0.024 A 
HETATM   26  C18 UNK     1      19.189  -2.412  37.171  1.00  0.00     0.002 A 
HETATM   27  C15 UNK     1      19.656  -2.394  35.857  1.00  0.00     0.001 A 
HETATM   28  C11 UNK     1      19.194  -1.426  34.966  1.00  0.00     0.011 A 
ENDBRANCH  21  22
ENDBRANCH  20  21
ENDBRANCH   1  20
TORSDOF 8
ENDMDL
MODEL 2
REMARK VINA RESULT:      -8.8      2.188      3.203
REMARK  8 active torsions:
REMARK  status: ('A' for Active; 'I' for Inactive)
REMARK    1  A    between atoms: C1_5  and  O1_2 
REMARK    2  A    between atoms: C4_8  and  O1_2 
REMARK    3  A    between atoms: C12_16  and  O2_3 
REMARK    4  A    between atoms: C2_6  and  O2_3 
REMARK    5  A    between atoms: C3_7  and  C9_13 
REMARK    6  A    between atoms: C4_8  and  C7_11 
REMARK    7  A    between atoms: C13_17  and  C17_21 
REMARK    8  A    between atoms: C16_20  and  C17_21 
ROOT
HETATM    1  C1  UNK     1      18.016   2.780  33.267  1.00  0.00     0.102 A 
HETATM    2  C2  UNK     1      18.035   3.325  31.983  1.00  0.00     0.102 A 
HETATM    3  C3  UNK     1      19.054   5.336  32.850  1.00  0.00    -0.033 A 
HETATM    4  C5  UNK     1      18.554   4.602  31.775  1.00  0.00     0.051 A 
HETATM    5  C6  UNK     1      18.517   3.514  34.343  1.00  0.00     0.040 A 
HETATM    6  C8  UNK     1      19.035   4.792  34.134  1.00  0.00     0.014 A 
ENDROOT
BRANCH   3   7
HETATM    7  C9  UNK     1      19.602   6.686  32.631  1.00  0.00     0.015 C 
HETATM    8  C13 UNK     1      19.113   7.804  33.188  1.00  0.00     0.056 C 
BRANCH   8   9
HETATM    9  C17 UNK     1      17.927   7.746  34.108  1.00  0.00     0.182 C 
HETATM   10  O3  UNK     1      18.080   7.821  35.337  1.00  0.00    -0.288 OA
BRANCH   9  11
HETATM   11  C16 UNK     1      16.598   7.632  33.528  1.00  0.00     0.014 A 
HETATM   12  C20 UNK     1      16.427   7.757  32.149  1.00  0.00     0.015 A 
HETATM   13  C22 UNK     1      15.153   7.646  31.592  1.00  0.00     0.001 A 
HETATM   14  C24 UNK     1      14.051   7.411  32.413  1.00  0.00     0.000 A 
HETATM   15  C23 UNK     1      14.222   7.285  33.792  1.00  0.00     0.001 A 
HETATM   16  C21 UNK     1      15.496   7.396  34.349  1.00  0.00     0.015 A 
ENDBRANCH   9  11
ENDBRANCH   8   9
ENDBRANCH   3   7
BRANCH   2  17
HETATM   17  O2  UNK     1      17.549   2.617  30.925  1.00  0.00    -0.349 OA
BRANCH  17  18
HETATM   18  C12 UNK     1      18.505   2.049  30.033  1.00  0.00     0.171 C 
HETATM   19  C19 UNK     1      17.869   1.883  28.668  1.00  0.00     0.034 C 
ENDBRANCH  17  18
ENDBRANCH   2  17
BRANCH   1  20
HETATM   20  O1  UNK     1      17.513   1.533  33.483  1.00  0.00    -0.344 OA
BRANCH  20  21
HETATM   21  C4  UNK     1      18.455   0.479  33.675  1.00  0.00     0.216 C 
BRANCH  21  22
HETATM   22  C7  UNK     1      18.231  -0.139  35.024  1.00  0.00    -0.012 A 
HETATM   23  C10 UNK     1      18.874  -1.316  35.407  1.00  0.00     0.042 A 
HETATM   24 Cl1  UNK     1      19.966  -2.127  34.346  1.00  0.00    -0.084 Cl
HETATM   25  C14 UNK     1      18.639  -1.860  36.670  1.00  0.00     0.024 A 
HETATM   26  C18 UNK     1      17.761  -1.227  37.550  1.00  0.00     0.002 A 
HETATM   27  C15 UNK     1      17.118  -0.050  37.167  1.00  0.00     0.001 A 
HETATM   28  C11 UNK     1      17.353   0.494  35.904  1.00  0.00     0.011 A 
ENDBRANCH  21  22
ENDBRANCH  20  21
ENDBRANCH   1  20
TORSDOF 8
ENDMDL
MODEL 3
REMARK VINA RESULT:      -8.5      1.131      2.411
REMARK  8 active torsions:
REMARK  status: ('A' for Active; 'I' for Inactive)
REMARK    1  A    between atoms: C1_5  and  O1_2 
REMARK    2  A    between atoms: C4_8  and  O1_2 
REMARK    3  A    between atoms: C12_16  and  O2_3 
REMARK    4  A    between atoms: C2_6  and  O2_3 
REMARK    5  A    between atoms: C3_7  and  C9_13 
REMARK    6  A    between atoms: C4_8  and  C7_11 
REMARK    7  A    between atoms: C13_17  and  C17_21 
REMARK    8  A    between atoms: C16_20  and  C17_21 
ROOT
HETATM    1  C1  UNK     1      18.957   0.995  32.135  1.00  0.00     0.102 A 
HETATM    2  C2  UNK     1      18.339   2.164  32.581  1.00  0.00     0.102 A 
HETATM    3  C3  UNK     1      18.639   3.156  30.399  1.00  0.00    -0.033 A 
HETATM    4  C5  UNK     1      18.181   3.244  31.714  1.00  0.00     0.051 A 
HETATM    5  C6  UNK     1      19.414   0.907  30.821  1.00  0.00     0.040 A 
HETATM    6  C8  UNK     1      19.256   1.987  29.953  1.00  0.00     0.014 A 
ENDROOT
BRANCH   3   7
HETATM    7  C9  UNK     1      18.472   4.297  29.482  1.00  0.00     0.015 C 
HETATM    8  C13 UNK     1      19.028   5.504  29.662  1.00  0.00     0.056 C 
BRANCH   8   9
HETATM    9  C17 UNK     1      19.891   5.778  30.861  1.00  0.00     0.182 C 
HETATM   10  O3  UNK     1      21.097   5.484  30.849  1.00  0.00    -0.288 OA
BRANCH   9  11
HETATM   11  C16 UNK     1      19.292   6.423  32.019  1.00  0.00     0.014 A 
HETATM   12  C20 UNK     1      18.008   6.961  31.931  1.00  0.00     0.015 A 
HETATM   13  C22 UNK     1      17.433   7.578  33.042  1.00  0.00     0.001 A 
HETATM   14  C24 UNK     1      18.141   7.657  34.240  1.00  0.00     0.000 A 
HETATM   15  C23 UNK     1      19.425   7.119  34.328  1.00  0.00     0.001 A 
HETATM   16  C21 UNK     1      20.001   6.502  33.217  1.00  0.00     0.015 A 
ENDBRANCH   9  11
ENDBRANCH   8   9
ENDBRANCH   3   7
BRANCH   2  17
HETATM   17  O2  UNK     1      17.888   2.261  33.864  1.00  0.00    -0.349 OA
BRANCH  17  18
HETATM   18  C12 UNK     1      18.654   3.064  34.760  1.00  0.00     0.171 C 
HETATM   19  C19 UNK     1      19.165   2.192  35.888  1.00  0.00     0.034 C 
ENDBRANCH  17  18
ENDBRANCH   2  17
BRANCH   1  20
HETATM   20  O1  UNK     1      19.116  -0.067  32.974  1.00  0.00    -0.344 OA
BRANCH  20  21
HETATM   21  C4  UNK     1      17.931  -0.725  33.418  1.00  0.00     0.216 C 
BRANCH  21  22
HETATM   22  C7  UNK     1      18.069  -1.051  34.875  1.00  0.00    -0.012 A 
HETATM   23  C10 UNK     1      17.089  -0.696  35.802  1.00  0.00     0.042 A 
HETATM   24 Cl1  UNK     1      15.660   0.143  35.319  1.00  0.00    -0.084 Cl
HETATM   25  C14 UNK     1      17.253  -1.017  37.149  1.00  0.00     0.024 A 
HETATM   26  C18 UNK     1      18.397  -1.695  37.571  1.00  0.00     0.002 A 
HETATM   27  C15 UNK     1      19.378  -2.050  36.644  1.00  0.00     0.001 A 
HETATM   28  C11 UNK     1      19.213  -1.729  35.297  1.00  0.00     0.011 A 
ENDBRANCH  21  22
ENDBRANCH  20  21
ENDBRANCH   1  20
TORSDOF 8
ENDMDL
MODEL 4
REMARK VINA RESULT:      -8.4     13.092     14.928
REMARK  8 active torsions:
REMARK  status: ('A' for Active; 'I' for Inactive)
REMARK    1  A    between atoms: C1_5  and  O1_2 
REMARK    2  A    between atoms: C4_8  and  O1_2 
REMARK    3  A    between atoms: C12_16  and  O2_3 
REMARK    4  A    between atoms: C2_6  and  O2_3 
REMARK    5  A    between atoms: C3_7  and  C9_13 
REMARK    6  A    between atoms: C4_8  and  C7_11 
REMARK    7  A    between atoms: C13_17  and  C17_21 
REMARK    8  A    between atoms: C16_20  and  C17_21 
ROOT
HETATM    1  C1  UNK     1      25.002  -8.611  37.826  1.00  0.00     0.102 A 
HETATM    2  C2  UNK     1      25.596  -9.726  37.235  1.00  0.00     0.102 A 
HETATM    3  C3  UNK     1      27.552  -9.418  38.619  1.00  0.00    -0.033 A 
HETATM    4  C5  UNK     1      26.871 -10.129  37.631  1.00  0.00     0.051 A 
HETATM    5  C6  UNK     1      25.683  -7.899  38.814  1.00  0.00     0.040 A 
HETATM    6  C8  UNK     1      26.958  -8.303  39.210  1.00  0.00     0.014 A 
ENDROOT
BRANCH   3   7
HETATM    7  C9  UNK     1      28.899  -9.843  39.038  1.00  0.00     0.015 C 
HETATM    8  C13 UNK     1      30.041  -9.384  38.504  1.00  0.00     0.056 C 
BRANCH   8   9
HETATM    9  C17 UNK     1      30.015  -8.367  37.399  1.00  0.00     0.182 C 
HETATM   10  O3  UNK     1      29.795  -8.715  36.228  1.00  0.00    -0.288 OA
BRANCH   9  11
HETATM   11  C16 UNK     1      30.222  -6.967  37.734  1.00  0.00     0.014 A 
HETATM   12  C20 UNK     1      29.178  -6.053  37.587  1.00  0.00     0.015 A 
HETATM   13  C22 UNK     1      29.376  -4.710  37.911  1.00  0.00     0.001 A 
HETATM   14  C24 UNK     1      30.617  -4.282  38.380  1.00  0.00     0.000 A 
HETATM   15  C23 UNK     1      31.661  -5.196  38.527  1.00  0.00     0.001 A 
HETATM   16  C21 UNK     1      31.463  -6.539  38.204  1.00  0.00     0.015 A 
ENDBRANCH   9  11
ENDBRANCH   8   9
ENDBRANCH   3   7
BRANCH   2  17
HETATM   17  O2  UNK     1      24.940 -10.429  36.269  1.00  0.00    -0.349 OA
BRANCH  17  18
HETATM   18  C12 UNK     1      25.273 -11.809  36.135  1.00  0.00     0.171 C 
HETATM   19  C19 UNK     1      24.063 -12.561  35.619  1.00  0.00     0.034 C 
ENDBRANCH  17  18
ENDBRANCH   2  17
BRANCH   1  20
HETATM   20  O1  UNK     1      23.756  -8.209  37.447  1.00  0.00    -0.344 OA
BRANCH  20  21
HETATM   21  C4  UNK     1      22.784  -8.056  38.480  1.00  0.00     0.216 C 
BRANCH  21  22
HETATM   22  C7  UNK     1      21.537  -8.794  38.091  1.00  0.00    -0.012 A 
HETATM   23  C10 UNK     1      20.275  -8.373  38.511  1.00  0.00     0.042 A 
HETATM   24 Cl1  UNK     1      20.080  -6.975  39.504  1.00  0.00    -0.084 Cl
HETATM   25  C14 UNK     1      19.139  -9.086  38.128  1.00  0.00     0.024 A 
HETATM   26  C18 UNK     1      19.264 -10.220  37.326  1.00  0.00     0.002 A 
HETATM   27  C15 UNK     1      20.526 -10.642  36.907  1.00  0.00     0.001 A 
HETATM   28  C11 UNK     1      21.662  -9.929  37.289  1.00  0.00     0.011 A 
ENDBRANCH  21  22
ENDBRANCH  20  21
ENDBRANCH   1  20
TORSDOF 8
ENDMDL
MODEL 5
REMARK VINA RESULT:      -8.4      5.887     12.098
REMARK  8 active torsions:
REMARK  status: ('A' for Active; 'I' for Inactive)
REMARK    1  A    between atoms: C1_5  and  O1_2 
REMARK    2  A    between atoms: C4_8  and  O1_2 
REMARK    3  A    between atoms: C12_16  and  O2_3 
REMARK    4  A    between atoms: C2_6  and  O2_3 
REMARK    5  A    between atoms: C3_7  and  C9_13 
REMARK    6  A    between atoms: C4_8  and  C7_11 
REMARK    7  A    between atoms: C13_17  and  C17_21 
REMARK    8  A    between atoms: C16_20  and  C17_21 
ROOT
HETATM    1  C1  UNK     1      19.906  -4.645  36.672  1.00  0.00     0.102 A 
HETATM    2  C2  UNK     1      19.193  -5.791  37.024  1.00  0.00     0.102 A 
HETATM    3  C3  UNK     1      20.852  -6.307  38.703  1.00  0.00    -0.033 A 
HETATM    4  C5  UNK     1      19.666  -6.623  38.039  1.00  0.00     0.051 A 
HETATM    5  C6  UNK     1      21.091  -4.330  37.336  1.00  0.00     0.040 A 
HETATM    6  C8  UNK     1      21.564  -5.161  38.351  1.00  0.00     0.014 A 
ENDROOT
BRANCH   3   7
HETATM    7  C9  UNK     1      21.353  -7.186  39.775  1.00  0.00     0.015 C 
HETATM    8  C13 UNK     1      22.278  -8.141  39.604  1.00  0.00     0.056 C 
BRANCH   8   9
HETATM    9  C17 UNK     1      22.887  -8.385  38.252  1.00  0.00     0.182 C 
HETATM   10  O3  UNK     1      23.950  -7.830  37.931  1.00  0.00    -0.288 OA
BRANCH   9  11
HETATM   11  C16 UNK     1      22.223  -9.306  37.343  1.00  0.00     0.014 A 
HETATM   12  C20 UNK     1      22.744  -9.523  36.067  1.00  0.00     0.015 A 
HETATM   13  C22 UNK     1      22.108 -10.408  35.196  1.00  0.00     0.001 A 
HETATM   14  C24 UNK     1      20.952 -11.075  35.601  1.00  0.00     0.000 A 
HETATM   15  C23 UNK     1      20.433 -10.859  36.878  1.00  0.00     0.001 A 
HETATM   16  C21 UNK     1      21.069  -9.974  37.749  1.00  0.00     0.015 A 
ENDBRANCH   9  11
ENDBRANCH   8   9
ENDBRANCH   3   7
BRANCH   2  17
HETATM   17  O2  UNK     1      18.034  -6.109  36.382  1.00  0.00    -0.349 OA
BRANCH  17  18
HETATM   18  C12 UNK     1      18.051  -7.270  35.553  1.00  0.00     0.171 C 
HETATM   19  C19 UNK     1      19.386  -7.348  34.842  1.00  0.00     0.034 C 
ENDBRANCH  17  18
ENDBRANCH   2  17
BRANCH   1  20
HETATM   20  O1  UNK     1      19.453  -3.824  35.683  1.00  0.00    -0.344 OA
BRANCH  20  21
HETATM   21  C4  UNK     1      19.967  -2.494  35.659  1.00  0.00     0.216 C 
BRANCH  21  22
HETATM   22  C7  UNK     1      18.836  -1.528  35.852  1.00  0.00    -0.012 A 
HETATM   23  C10 UNK     1      18.252  -0.858  34.777  1.00  0.00     0.042 A 
HETATM   24 Cl1  UNK     1      18.804  -1.105  33.160  1.00  0.00    -0.084 Cl
HETATM   25  C14 UNK     1      17.202   0.033  34.996  1.00  0.00     0.024 A 
HETATM   26  C18 UNK     1      16.733   0.254  36.292  1.00  0.00     0.002 A 
HETATM   27  C15 UNK     1      17.317  -0.416  37.367  1.00  0.00     0.001 A 
HETATM   28  C11 UNK     1      18.367  -1.307  37.148  1.00  0.00     0.011 A 
ENDBRANCH  21  22
ENDBRANCH  20  21
ENDBRANCH   1  20
TORSDOF 8
ENDMDL
MODEL 6
REMARK VINA RESULT:      -8.4     11.465     14.727
REMARK  8 active torsions:
REMARK  status: ('A' for Active; 'I' for Inactive)
REMARK    1  A    between atoms: C1_5  and  O1_2 
REMARK    2  A    between atoms: C4_8  and  O1_2 
REMARK    3  A    between atoms: C12_16  and  O2_3 
REMARK    4  A    between atoms: C2_6  and  O2_3 
REMARK    5  A    between atoms: C3_7  and  C9_13 
REMARK    6  A    between atoms: C4_8  and  C7_11 
REMARK    7  A    between atoms: C13_17  and  C17_21 
REMARK    8  A    between atoms: C16_20  and  C17_21 
ROOT
HETATM    1  C1  UNK     1      24.500  -9.014  37.176  1.00  0.00     0.102 A 
HETATM    2  C2  UNK     1      24.798  -8.328  38.353  1.00  0.00     0.102 A 
HETATM    3  C3  UNK     1      26.805  -9.647  38.615  1.00  0.00    -0.033 A 
HETATM    4  C5  UNK     1      25.950  -8.644  39.073  1.00  0.00     0.051 A 
HETATM    5  C6  UNK     1      25.355 -10.017  36.718  1.00  0.00     0.040 A 
HETATM    6  C8  UNK     1      26.507 -10.333  37.438  1.00  0.00     0.014 A 
ENDROOT
BRANCH   3   7
HETATM    7  C9  UNK     1      28.022  -9.982  39.376  1.00  0.00     0.015 C 
HETATM    8  C13 UNK     1      29.241  -9.492  39.112  1.00  0.00     0.056 C 
BRANCH   8   9
HETATM    9  C17 UNK     1      29.452  -8.531  37.977  1.00  0.00     0.182 C 
HETATM   10  O3  UNK     1      29.435  -8.930  36.802  1.00  0.00    -0.288 OA
BRANCH   9  11
HETATM   11  C16 UNK     1      29.645  -7.122  38.282  1.00  0.00     0.014 A 
HETATM   12  C20 UNK     1      30.888  -6.525  38.069  1.00  0.00     0.015 A 
HETATM   13  C22 UNK     1      31.072  -5.174  38.360  1.00  0.00     0.001 A 
HETATM   14  C24 UNK     1      30.015  -4.419  38.865  1.00  0.00     0.000 A 
HETATM   15  C23 UNK     1      28.771  -5.015  39.078  1.00  0.00     0.001 A 
HETATM   16  C21 UNK     1      28.587  -6.367  38.787  1.00  0.00     0.015 A 
ENDBRANCH   9  11
ENDBRANCH   8   9
ENDBRANCH   3   7
BRANCH   2  17
HETATM   17  O2  UNK     1      23.970  -7.346  38.810  1.00  0.00    -0.349 OA
BRANCH  17  18
HETATM   18  C12 UNK     1      22.913  -7.745  39.680  1.00  0.00     0.171 C 
HETATM   19  C19 UNK     1      21.646  -7.016  39.283  1.00  0.00     0.034 C 
ENDBRANCH  17  18
ENDBRANCH   2  17
BRANCH   1  20
HETATM   20  O1  UNK     1      23.378  -8.713  36.464  1.00  0.00    -0.344 OA
BRANCH  20  21
HETATM   21  C4  UNK     1      22.353  -9.703  36.421  1.00  0.00     0.216 C 
BRANCH  21  22
HETATM   22  C7  UNK     1      21.023  -9.025  36.276  1.00  0.00    -0.012 A 
HETATM   23  C10 UNK     1      19.879  -9.514  36.907  1.00  0.00     0.042 A 
HETATM   24 Cl1  UNK     1      19.933 -10.930  37.891  1.00  0.00    -0.084 Cl
HETATM   25  C14 UNK     1      18.659  -8.855  36.748  1.00  0.00     0.024 A 
HETATM   26  C18 UNK     1      18.584  -7.708  35.959  1.00  0.00     0.002 A 
HETATM   27  C15 UNK     1      19.728  -7.219  35.327  1.00  0.00     0.001 A 
HETATM   28  C11 UNK     1      20.947  -7.878  35.486  1.00  0.00     0.011 A 
ENDBRANCH  21  22
ENDBRANCH  20  21
ENDBRANCH   1  20
TORSDOF 8
ENDMDL
MODEL 7
REMARK VINA RESULT:      -8.3      2.797      4.753
REMARK  8 active torsions:
REMARK  status: ('A' for Active; 'I' for Inactive)
REMARK    1  A    between atoms: C1_5  and  O1_2 
REMARK    2  A    between atoms: C4_8  and  O1_2 
REMARK    3  A    between atoms: C12_16  and  O2_3 
REMARK    4  A    between atoms: C2_6  and  O2_3 
REMARK    5  A    between atoms: C3_7  and  C9_13 
REMARK    6  A    between atoms: C4_8  and  C7_11 
REMARK    7  A    between atoms: C13_17  and  C17_21 
REMARK    8  A    between atoms: C16_20  and  C17_21 
ROOT
HETATM    1  C1  UNK     1      18.395   3.239  31.507  1.00  0.00     0.102 A 
HETATM    2  C2  UNK     1      18.202   3.508  32.861  1.00  0.00     0.102 A 
HETATM    3  C3  UNK     1      19.092   5.732  32.546  1.00  0.00    -0.033 A 
HETATM    4  C5  UNK     1      18.551   4.754  33.382  1.00  0.00     0.051 A 
HETATM    5  C6  UNK     1      18.936   4.216  30.671  1.00  0.00     0.040 A 
HETATM    6  C8  UNK     1      19.285   5.462  31.192  1.00  0.00     0.014 A 
ENDROOT
BRANCH   3   7
HETATM    7  C9  UNK     1      19.462   7.048  33.095  1.00  0.00     0.015 C 
HETATM    8  C13 UNK     1      18.648   8.113  33.128  1.00  0.00     0.056 C 
BRANCH   8   9
HETATM    9  C17 UNK     1      17.250   8.026  32.584  1.00  0.00     0.182 C 
HETATM   10  O3  UNK     1      17.003   7.323  31.592  1.00  0.00    -0.288 OA
BRANCH   9  11
HETATM   11  C16 UNK     1      16.191   8.757  33.263  1.00  0.00     0.014 A 
HETATM   12  C20 UNK     1      16.359   9.158  34.589  1.00  0.00     0.015 A 
HETATM   13  C22 UNK     1      15.344   9.859  35.239  1.00  0.00     0.001 A 
HETATM   14  C24 UNK     1      14.161  10.160  34.565  1.00  0.00     0.000 A 
HETATM   15  C23 UNK     1      13.993   9.759  33.238  1.00  0.00     0.001 A 
HETATM   16  C21 UNK     1      15.008   9.058  32.588  1.00  0.00     0.015 A 
ENDBRANCH   9  11
ENDBRANCH   8   9
ENDBRANCH   3   7
BRANCH   2  17
HETATM   17  O2  UNK     1      17.674   2.560  33.687  1.00  0.00    -0.349 OA
BRANCH  17  18
HETATM   18  C12 UNK     1      18.393   2.274  34.885  1.00  0.00     0.171 C 
HETATM   19  C19 UNK     1      17.613   1.260  35.697  1.00  0.00     0.034 C 
ENDBRANCH  17  18
ENDBRANCH   2  17
BRANCH   1  20
HETATM   20  O1  UNK     1      18.057   2.025  30.987  1.00  0.00    -0.344 OA
BRANCH  20  21
HETATM   21  C4  UNK     1      19.055   1.345  30.228  1.00  0.00     0.216 C 
BRANCH  21  22
HETATM   22  C7  UNK     1      19.441   0.085  30.945  1.00  0.00    -0.012 A 
HETATM   23  C10 UNK     1      20.306  -0.848  30.373  1.00  0.00     0.042 A 
HETATM   24 Cl1  UNK     1      20.979  -0.603  28.803  1.00  0.00    -0.084 Cl
HETATM   25  C14 UNK     1      20.642  -2.008  31.071  1.00  0.00     0.024 A 
HETATM   26  C18 UNK     1      20.114  -2.235  32.342  1.00  0.00     0.002 A 
HETATM   27  C15 UNK     1      19.249  -1.302  32.914  1.00  0.00     0.001 A 
HETATM   28  C11 UNK     1      18.913  -0.142  32.216  1.00  0.00     0.011 A 
ENDBRANCH  21  22
ENDBRANCH  20  21
ENDBRANCH   1  20
TORSDOF 8
ENDMDL
MODEL 8
REMARK VINA RESULT:      -8.2     14.094     15.967
REMARK  8 active torsions:
REMARK  status: ('A' for Active; 'I' for Inactive)
REMARK    1  A    between atoms: C1_5  and  O1_2 
REMARK    2  A    between atoms: C4_8  and  O1_2 
REMARK    3  A    between atoms: C12_16  and  O2_3 
REMARK    4  A    between atoms: C2_6  and  O2_3 
REMARK    5  A    between atoms: C3_7  and  C9_13 
REMARK    6  A    between atoms: C4_8  and  C7_11 
REMARK    7  A    between atoms: C13_17  and  C17_21 
REMARK    8  A    between atoms: C16_20  and  C17_21 
ROOT
HETATM    1  C1  UNK     1      29.764  -7.206  32.669  1.00  0.00     0.102 A 
HETATM    2  C2  UNK     1      29.904  -8.528  33.092  1.00  0.00     0.102 A 
HETATM    3  C3  UNK     1      28.387  -8.104  34.923  1.00  0.00    -0.033 A 
HETATM    4  C5  UNK     1      29.216  -8.977  34.219  1.00  0.00     0.051 A 
HETATM    5  C6  UNK     1      28.935  -6.334  33.374  1.00  0.00     0.040 A 
HETATM    6  C8  UNK     1      28.247  -6.783  34.501  1.00  0.00     0.014 A 
ENDROOT
BRANCH   3   7
HETATM    7  C9  UNK     1      27.661  -8.578  36.115  1.00  0.00     0.015 C 
HETATM    8  C13 UNK     1      28.161  -8.581  37.359  1.00  0.00     0.056 C 
BRANCH   8   9
HETATM    9  C17 UNK     1      29.553  -8.081  37.626  1.00  0.00     0.182 C 
HETATM   10  O3  UNK     1      30.509  -8.871  37.664  1.00  0.00    -0.288 OA
BRANCH   9  11
HETATM   11  C16 UNK     1      29.759  -6.653  37.806  1.00  0.00     0.014 A 
HETATM   12  C20 UNK     1      29.047  -5.964  38.788  1.00  0.00     0.015 A 
HETATM   13  C22 UNK     1      29.245  -4.595  38.963  1.00  0.00     0.001 A 
HETATM   14  C24 UNK     1      30.155  -3.913  38.155  1.00  0.00     0.000 A 
HETATM   15  C23 UNK     1      30.868  -4.602  37.173  1.00  0.00     0.001 A 
HETATM   16  C21 UNK     1      30.670  -5.972  36.999  1.00  0.00     0.015 A 
ENDBRANCH   9  11
ENDBRANCH   8   9
ENDBRANCH   3   7
BRANCH   2  17
HETATM   17  O2  UNK     1      30.712  -9.390  32.411  1.00  0.00    -0.349 OA
BRANCH  17  18
HETATM   18  C12 UNK     1      30.113 -10.589  31.924  1.00  0.00     0.171 C 
HETATM   19  C19 UNK     1      31.153 -11.385  31.163  1.00  0.00     0.034 C 
ENDBRANCH  17  18
ENDBRANCH   2  17
BRANCH   1  20
HETATM   20  O1  UNK     1      30.430  -6.757  31.569  1.00  0.00    -0.344 OA
BRANCH  20  21
HETATM   21  C4  UNK     1      29.644  -6.440  30.421  1.00  0.00     0.216 C 
BRANCH  21  22
HETATM   22  C7  UNK     1      29.371  -7.698  29.652  1.00  0.00    -0.012 A 
HETATM   23  C10 UNK     1      28.127  -8.327  29.693  1.00  0.00     0.042 A 
HETATM   24 Cl1  UNK     1      26.830  -7.688  30.635  1.00  0.00    -0.084 Cl
HETATM   25  C14 UNK     1      27.911  -9.496  28.963  1.00  0.00     0.024 A 
HETATM   26  C18 UNK     1      28.940 -10.036  28.191  1.00  0.00     0.002 A 
HETATM   27  C15 UNK     1      30.185  -9.408  28.150  1.00  0.00     0.001 A 
HETATM   28  C11 UNK     1      30.400  -8.239  28.880  1.00  0.00     0.011 A 
ENDBRANCH  21  22
ENDBRANCH  20  21
ENDBRANCH   1  20
TORSDOF 8
ENDMDL
MODEL 9
REMARK VINA RESULT:      -8.2     13.820     15.539
REMARK  8 active torsions:
REMARK  status: ('A' for Active; 'I' for Inactive)
REMARK    1  A    between atoms: C1_5  and  O1_2 
REMARK    2  A    between atoms: C4_8  and  O1_2 
REMARK    3  A    between atoms: C12_16  and  O2_3 
REMARK    4  A    between atoms: C2_6  and  O2_3 
REMARK    5  A    between atoms: C3_7  and  C9_13 
REMARK    6  A    between atoms: C4_8  and  C7_11 
REMARK    7  A    between atoms: C13_17  and  C17_21 
REMARK    8  A    between atoms: C16_20  and  C17_21 
ROOT
HETATM    1  C1  UNK     1      29.390  -6.601  35.004  1.00  0.00     0.102 A 
HETATM    2  C2  UNK     1      30.613  -6.042  34.633  1.00  0.00     0.102 A 
HETATM    3  C3  UNK     1      29.708  -5.502  32.459  1.00  0.00    -0.033 A 
HETATM    4  C5  UNK     1      30.772  -5.493  33.361  1.00  0.00     0.051 A 
HETATM    5  C6  UNK     1      28.326  -6.610  34.102  1.00  0.00     0.040 A 
HETATM    6  C8  UNK     1      28.485  -6.061  32.830  1.00  0.00     0.014 A 
ENDROOT
BRANCH   3   7
HETATM    7  C9  UNK     1      29.875  -4.922  31.115  1.00  0.00     0.015 C 
HETATM    8  C13 UNK     1      30.357  -5.588  30.055  1.00  0.00     0.056 C 
BRANCH   8   9
HETATM    9  C17 UNK     1      30.774  -7.027  30.179  1.00  0.00     0.182 C 
HETATM   10  O3  UNK     1      31.791  -7.334  30.820  1.00  0.00    -0.288 OA
BRANCH   9  11
HETATM   11  C16 UNK     1      29.945  -8.049  29.560  1.00  0.00     0.014 A 
HETATM   12  C20 UNK     1      30.472  -8.859  28.554  1.00  0.00     0.015 A 
HETATM   13  C22 UNK     1      29.678  -9.841  27.961  1.00  0.00     0.001 A 
HETATM   14  C24 UNK     1      28.357 -10.013  28.375  1.00  0.00     0.000 A 
HETATM   15  C23 UNK     1      27.831  -9.204  29.383  1.00  0.00     0.001 A 
HETATM   16  C21 UNK     1      28.625  -8.222  29.975  1.00  0.00     0.015 A 
ENDBRANCH   9  11
ENDBRANCH   8   9
ENDBRANCH   3   7
BRANCH   2  17
HETATM   17  O2  UNK     1      31.660  -6.027  35.506  1.00  0.00    -0.349 OA
BRANCH  17  18
HETATM   18  C12 UNK     1      32.213  -4.754  35.831  1.00  0.00     0.171 C 
HETATM   19  C19 UNK     1      31.399  -4.133  36.947  1.00  0.00     0.034 C 
ENDBRANCH  17  18
ENDBRANCH   2  17
BRANCH   1  20
HETATM   20  O1  UNK     1      29.223  -7.139  36.244  1.00  0.00    -0.344 OA
BRANCH  20  21
HETATM   21  C4  UNK     1      27.957  -6.940  36.871  1.00  0.00     0.216 C 
BRANCH  21  22
HETATM   22  C7  UNK     1      27.717  -8.048  37.854  1.00  0.00    -0.012 A 
HETATM   23  C10 UNK     1      27.409  -9.343  37.437  1.00  0.00     0.042 A 
HETATM   24 Cl1  UNK     1      27.284  -9.742  35.763  1.00  0.00    -0.084 Cl
HETATM   25  C14 UNK     1      27.193 -10.347  38.382  1.00  0.00     0.024 A 
HETATM   26  C18 UNK     1      27.287 -10.056  39.743  1.00  0.00     0.002 A 
HETATM   27  C15 UNK     1      27.595  -8.761  40.159  1.00  0.00     0.001 A 
HETATM   28  C11 UNK     1      27.811  -7.757  39.215  1.00  0.00     0.011 A 
ENDBRANCH  21  22
ENDBRANCH  20  21
ENDBRANCH   1  20
TORSDOF 8
ENDMDL
MODEL 10
REMARK VINA RESULT:      -8.2     13.444     16.013
REMARK  8 active torsions:
REMARK  status: ('A' for Active; 'I' for Inactive)
REMARK    1  A    between atoms: C1_5  and  O1_2 
REMARK    2  A    between atoms: C4_8  and  O1_2 
REMARK    3  A    between atoms: C12_16  and  O2_3 
REMARK    4  A    between atoms: C2_6  and  O2_3 
REMARK    5  A    between atoms: C3_7  and  C9_13 
REMARK    6  A    between atoms: C4_8  and  C7_11 
REMARK    7  A    between atoms: C13_17  and  C17_21 
REMARK    8  A    between atoms: C16_20  and  C17_21 
ROOT
HETATM    1  C1  UNK     1      29.484  -9.704  34.882  1.00  0.00     0.102 A 
HETATM    2  C2  UNK     1      30.449  -9.621  35.885  1.00  0.00     0.102 A 
HETATM    3  C3  UNK     1      28.709  -9.335  37.536  1.00  0.00    -0.033 A 
HETATM    4  C5  UNK     1      30.062  -9.436  37.212  1.00  0.00     0.051 A 
HETATM    5  C6  UNK     1      28.131  -9.602  35.206  1.00  0.00     0.040 A 
HETATM    6  C8  UNK     1      27.744  -9.417  36.533  1.00  0.00     0.014 A 
ENDROOT
BRANCH   3   7
HETATM    7  C9  UNK     1      28.299  -9.139  38.938  1.00  0.00     0.015 C 
HETATM    8  C13 UNK     1      27.745  -8.016  39.417  1.00  0.00     0.056 C 
BRANCH   8   9
HETATM    9  C17 UNK     1      27.497  -6.839  38.517  1.00  0.00     0.182 C 
HETATM   10  O3  UNK     1      26.371  -6.641  38.035  1.00  0.00    -0.288 OA
BRANCH   9  11
HETATM   11  C16 UNK     1      28.594  -5.922  38.248  1.00  0.00     0.014 A 
HETATM   12  C20 UNK     1      28.944  -4.958  39.194  1.00  0.00     0.015 A 
HETATM   13  C22 UNK     1      29.997  -4.080  38.938  1.00  0.00     0.001 A 
HETATM   14  C24 UNK     1      30.700  -4.166  37.737  1.00  0.00     0.000 A 
HETATM   15  C23 UNK     1      30.351  -5.131  36.791  1.00  0.00     0.001 A 
HETATM   16  C21 UNK     1      29.298  -6.009  37.048  1.00  0.00     0.015 A 
ENDBRANCH   9  11
ENDBRANCH   8   9
ENDBRANCH   3   7
BRANCH   2  17
HETATM   17  O2  UNK     1      31.775  -9.719  35.580  1.00  0.00    -0.349 OA
BRANCH  17  18
HETATM   18  C12 UNK     1      32.592  -8.589  35.880  1.00  0.00     0.171 C 
HETATM   19  C19 UNK     1      33.612  -8.412  34.774  1.00  0.00     0.034 C 
ENDBRANCH  17  18
ENDBRANCH   2  17
BRANCH   1  20
HETATM   20  O1  UNK     1      29.851  -9.885  33.582  1.00  0.00    -0.344 OA
BRANCH  20  21
HETATM   21  C4  UNK     1      30.219  -8.721  32.844  1.00  0.00     0.216 C 
BRANCH  21  22
HETATM   22  C7  UNK     1      29.069  -8.309  31.974  1.00  0.00    -0.012 A 
HETATM   23  C10 UNK     1      28.314  -7.169  32.249  1.00  0.00     0.042 A 
HETATM   24 Cl1  UNK     1      28.664  -6.168  33.610  1.00  0.00    -0.084 Cl
HETATM   25  C14 UNK     1      27.252  -6.818  31.416  1.00  0.00     0.024 A 
HETATM   26  C18 UNK     1      26.944  -7.607  30.307  1.00  0.00     0.002 A 
HETATM   27  C15 UNK     1      27.699  -8.747  30.032  1.00  0.00     0.001 A 
HETATM   28  C11 UNK     1      28.761  -9.098  30.865  1.00  0.00     0.011 A 
ENDBRANCH  21  22
ENDBRANCH  20  21
ENDBRANCH   1  20
TORSDOF 8
ENDMDL
