MODEL 1
REMARK VINA RESULT:      -7.9      0.000      0.000
REMARK  7 active torsions:
REMARK  status: ('A' for Active; 'I' for Inactive)
REMARK    1  A    between atoms: C11_18  and  O1_1 
REMARK    2  A    between atoms: C6_13  and  O1_1 
REMARK       I    between atoms: C7_14  and  N1_6 
REMARK    3  A    between atoms: C21_28  and  N2_7 
REMARK    4  A    between atoms: C1_8  and  C6_13 
REMARK    5  A    between atoms: C7_14  and  C8_15 
REMARK    6  A    between atoms: C8_15  and  C9_16 
REMARK    7  A    between atoms: C10_17  and  C12_19 
ROOT
HETATM    1  C8  UNK     1      30.899  -5.953  33.608  1.00  0.00     0.043 C 
HETATM    2  C10 UNK     1      29.957  -6.492  34.402  1.00  0.00     0.029 C 
ENDROOT
BRANCH   1   3
HETATM    3  C7  UNK     1      30.510  -5.797  32.193  1.00  0.00     0.254 C 
HETATM    4  O3  UNK     1      30.004  -4.726  31.855  1.00  0.00    -0.267 OA
HETATM    5  N1  UNK     1      30.745  -6.867  31.333  1.00  0.00    -0.348 N 
HETATM    6  C4  UNK     1      30.380  -6.750  29.922  1.00  0.00     0.127 C 
HETATM    7  C5  UNK     1      31.332  -8.164  31.689  1.00  0.00     0.127 C 
HETATM    8  C2  UNK     1      31.608  -6.951  29.035  1.00  0.00     0.034 C 
HETATM    9  C1  UNK     1      32.369  -8.242  29.360  1.00  0.00     0.088 C 
HETATM   10  C3  UNK     1      32.594  -8.422  30.867  1.00  0.00     0.034 C 
BRANCH   9  11
HETATM   11  C6  UNK     1      31.651  -9.424  28.776  1.00  0.00     0.263 C 
HETATM   12  O2  UNK     1      31.908 -10.588  29.054  1.00  0.00    -0.265 OA
BRANCH  11  13
HETATM   13  O1  UNK     1      30.694  -8.993  27.907  1.00  0.00    -0.322 OA
BRANCH  13  14
HETATM   14  C11 UNK     1      29.617  -9.906  27.674  1.00  0.00     0.174 C 
HETATM   15  C15 UNK     1      28.534  -9.665  28.703  1.00  0.00     0.034 C 
ENDBRANCH  13  14
ENDBRANCH  11  13
ENDBRANCH   9  11
ENDBRANCH   1   3
BRANCH   1  16
HETATM   16  C9  UNK     1      32.237  -5.528  34.043  1.00  0.00    -0.021 A 
HETATM   17  C13 UNK     1      32.393  -4.300  34.668  1.00  0.00     0.012 A 
HETATM   18  C17 UNK     1      33.663  -3.896  35.081  1.00  0.00     0.001 A 
HETATM   19  C20 UNK     1      34.763  -4.725  34.865  1.00  0.00     0.000 A 
HETATM   20  C18 UNK     1      34.593  -5.958  34.235  1.00  0.00     0.001 A 
HETATM   21  C14 UNK     1      33.323  -6.362  33.822  1.00  0.00     0.012 A 
ENDBRANCH   1  16
BRANCH   2  22
HETATM   22  C12 UNK     1      30.101  -6.782  35.836  1.00  0.00    -0.033 A 
HETATM   23  C16 UNK     1      29.618  -5.875  36.768  1.00  0.00     0.047 A 
HETATM   24  C21 UNK     1      29.754  -6.152  38.128  1.00  0.00     0.103 A 
HETATM   25  C23 UNK     1      30.371  -7.333  38.541  1.00  0.00     0.036 A 
HETATM   26  C22 UNK     1      30.853  -8.236  37.594  1.00  0.00     0.003 A 
HETATM   27  C19 UNK     1      30.717  -7.960  36.234  1.00  0.00     0.011 A 
BRANCH  24  28
HETATM   28  N2  UNK     1      29.265  -5.233  39.092  1.00  0.00    -0.116 N 
HETATM   29  O4  UNK     1      28.108  -5.392  39.552  1.00  0.00    -0.532 OA
HETATM   30  O5  UNK     1      30.002  -4.286  39.460  1.00  0.00    -0.532 OA
ENDBRANCH  24  28
ENDBRANCH   2  22
TORSDOF 7
ENDMDL
MODEL 2
REMARK VINA RESULT:      -7.8      2.658      8.341
REMARK  7 active torsions:
REMARK  status: ('A' for Active; 'I' for Inactive)
REMARK    1  A    between atoms: C11_18  and  O1_1 
REMARK    2  A    between atoms: C6_13  and  O1_1 
REMARK       I    between atoms: C7_14  and  N1_6 
REMARK    3  A    between atoms: C21_28  and  N2_7 
REMARK    4  A    between atoms: C1_8  and  C6_13 
REMARK    5  A    between atoms: C7_14  and  C8_15 
REMARK    6  A    between atoms: C8_15  and  C9_16 
REMARK    7  A    between atoms: C10_17  and  C12_19 
ROOT
HETATM    1  C8  UNK     1      30.405  -8.053  32.687  1.00  0.00     0.043 C 
HETATM    2  C10 UNK     1      31.656  -8.365  32.305  1.00  0.00     0.029 C 
ENDROOT
BRANCH   1   3
HETATM    3  C7  UNK     1      30.137  -8.199  34.131  1.00  0.00     0.254 C 
HETATM    4  O3  UNK     1      29.684  -9.277  34.520  1.00  0.00    -0.267 OA
HETATM    5  N1  UNK     1      30.417  -7.114  34.956  1.00  0.00    -0.348 N 
HETATM    6  C4  UNK     1      30.171  -7.220  36.394  1.00  0.00     0.127 C 
HETATM    7  C5  UNK     1      30.944  -5.809  34.540  1.00  0.00     0.127 C 
HETATM    8  C2  UNK     1      31.463  -6.982  37.175  1.00  0.00     0.034 C 
HETATM    9  C1  UNK     1      32.165  -5.680  36.775  1.00  0.00     0.088 C 
HETATM   10  C3  UNK     1      32.263  -5.513  35.253  1.00  0.00     0.034 C 
BRANCH   9  11
HETATM   11  C6  UNK     1      31.471  -4.505  37.403  1.00  0.00     0.263 C 
HETATM   12  O2  UNK     1      31.371  -3.406  36.875  1.00  0.00    -0.265 OA
BRANCH  11  13
HETATM   13  O1  UNK     1      30.988  -4.863  38.626  1.00  0.00    -0.322 OA
BRANCH  13  14
HETATM   14  C11 UNK     1      29.841  -4.131  39.072  1.00  0.00     0.174 C 
HETATM   15  C15 UNK     1      28.590  -4.883  38.675  1.00  0.00     0.034 C 
ENDBRANCH  13  14
ENDBRANCH  11  13
ENDBRANCH   9  11
ENDBRANCH   1   3
BRANCH   1  16
HETATM   16  C9  UNK     1      29.333  -7.594  31.794  1.00  0.00    -0.021 A 
HETATM   17  C13 UNK     1      28.325  -8.474  31.428  1.00  0.00     0.012 A 
HETATM   18  C17 UNK     1      27.307  -8.038  30.580  1.00  0.00     0.001 A 
HETATM   19  C20 UNK     1      27.307  -6.726  30.108  1.00  0.00     0.000 A 
HETATM   20  C18 UNK     1      28.325  -5.850  30.482  1.00  0.00     0.001 A 
HETATM   21  C14 UNK     1      29.344  -6.286  31.330  1.00  0.00     0.012 A 
ENDBRANCH   1  16
BRANCH   2  22
HETATM   22  C12 UNK     1      32.170  -8.335  30.928  1.00  0.00    -0.033 A 
HETATM   23  C16 UNK     1      33.402  -7.752  30.671  1.00  0.00     0.047 A 
HETATM   24  C21 UNK     1      33.888  -7.726  29.364  1.00  0.00     0.103 A 
HETATM   25  C23 UNK     1      33.138  -8.283  28.329  1.00  0.00     0.036 A 
HETATM   26  C22 UNK     1      31.900  -8.866  28.601  1.00  0.00     0.003 A 
HETATM   27  C19 UNK     1      31.413  -8.893  29.907  1.00  0.00     0.011 A 
BRANCH  24  28
HETATM   28  N2  UNK     1      35.147  -7.132  29.087  1.00  0.00    -0.116 N 
HETATM   29  O4  UNK     1      35.481  -6.093  29.707  1.00  0.00    -0.532 OA
HETATM   30  O5  UNK     1      35.895  -7.664  28.229  1.00  0.00    -0.532 OA
ENDBRANCH  24  28
ENDBRANCH   2  22
TORSDOF 7
ENDMDL
MODEL 3
REMARK VINA RESULT:      -7.7      2.603      7.825
REMARK  7 active torsions:
REMARK  status: ('A' for Active; 'I' for Inactive)
REMARK    1  A    between atoms: C11_18  and  O1_1 
REMARK    2  A    between atoms: C6_13  and  O1_1 
REMARK       I    between atoms: C7_14  and  N1_6 
REMARK    3  A    between atoms: C21_28  and  N2_7 
REMARK    4  A    between atoms: C1_8  and  C6_13 
REMARK    5  A    between atoms: C7_14  and  C8_15 
REMARK    6  A    between atoms: C8_15  and  C9_16 
REMARK    7  A    between atoms: C10_17  and  C12_19 
ROOT
HETATM    1  C8  UNK     1      32.107  -7.692  34.256  1.00  0.00     0.043 C 
HETATM    2  C10 UNK     1      31.649  -8.194  33.096  1.00  0.00     0.029 C 
ENDROOT
BRANCH   1   3
HETATM    3  C7  UNK     1      31.734  -8.460  35.460  1.00  0.00     0.254 C 
HETATM    4  O3  UNK     1      32.480  -9.377  35.806  1.00  0.00    -0.267 OA
HETATM    5  N1  UNK     1      30.567  -8.095  36.127  1.00  0.00    -0.348 N 
HETATM    6  C4  UNK     1      30.165  -8.827  37.328  1.00  0.00     0.127 C 
HETATM    7  C5  UNK     1      29.641  -7.022  35.748  1.00  0.00     0.127 C 
HETATM    8  C2  UNK     1      30.059  -7.878  38.520  1.00  0.00     0.034 C 
HETATM    9  C1  UNK     1      29.177  -6.657  38.229  1.00  0.00     0.088 C 
HETATM   10  C3  UNK     1      29.510  -6.005  36.882  1.00  0.00     0.034 C 
BRANCH   9  11
HETATM   11  C6  UNK     1      27.727  -7.041  38.300  1.00  0.00     0.263 C 
HETATM   12  O2  UNK     1      26.892  -6.721  37.464  1.00  0.00    -0.265 OA
BRANCH  11  13
HETATM   13  O1  UNK     1      27.506  -7.782  39.422  1.00  0.00    -0.322 OA
BRANCH  13  14
HETATM   14  C11 UNK     1      26.561  -8.847  39.279  1.00  0.00     0.174 C 
HETATM   15  C15 UNK     1      27.176 -10.127  39.802  1.00  0.00     0.034 C 
ENDBRANCH  13  14
ENDBRANCH  11  13
ENDBRANCH   9  11
ENDBRANCH   1   3
BRANCH   1  16
HETATM   16  C9  UNK     1      32.923  -6.478  34.396  1.00  0.00    -0.021 A 
HETATM   17  C13 UNK     1      34.306  -6.585  34.423  1.00  0.00     0.012 A 
HETATM   18  C17 UNK     1      35.081  -5.432  34.555  1.00  0.00     0.001 A 
HETATM   19  C20 UNK     1      34.464  -4.185  34.658  1.00  0.00     0.000 A 
HETATM   20  C18 UNK     1      33.073  -4.091  34.630  1.00  0.00     0.001 A 
HETATM   21  C14 UNK     1      32.298  -5.244  34.497  1.00  0.00     0.012 A 
ENDBRANCH   1  16
BRANCH   2  22
HETATM   22  C12 UNK     1      31.852  -7.606  31.764  1.00  0.00    -0.033 A 
HETATM   23  C16 UNK     1      33.114  -7.638  31.188  1.00  0.00     0.047 A 
HETATM   24  C21 UNK     1      33.304  -7.080  29.924  1.00  0.00     0.103 A 
HETATM   25  C23 UNK     1      32.231  -6.500  29.248  1.00  0.00     0.036 A 
HETATM   26  C22 UNK     1      30.968  -6.475  29.838  1.00  0.00     0.003 A 
HETATM   27  C19 UNK     1      30.776  -7.031  31.102  1.00  0.00     0.011 A 
BRANCH  24  28
HETATM   28  N2  UNK     1      34.590  -7.105  29.323  1.00  0.00    -0.116 N 
HETATM   29  O4  UNK     1      34.886  -8.055  28.557  1.00  0.00    -0.532 OA
HETATM   30  O5  UNK     1      35.397  -6.176  29.574  1.00  0.00    -0.532 OA
ENDBRANCH  24  28
ENDBRANCH   2  22
TORSDOF 7
ENDMDL
MODEL 4
REMARK VINA RESULT:      -7.6      1.642      2.063
REMARK  7 active torsions:
REMARK  status: ('A' for Active; 'I' for Inactive)
REMARK    1  A    between atoms: C11_18  and  O1_1 
REMARK    2  A    between atoms: C6_13  and  O1_1 
REMARK       I    between atoms: C7_14  and  N1_6 
REMARK    3  A    between atoms: C21_28  and  N2_7 
REMARK    4  A    between atoms: C1_8  and  C6_13 
REMARK    5  A    between atoms: C7_14  and  C8_15 
REMARK    6  A    between atoms: C8_15  and  C9_16 
REMARK    7  A    between atoms: C10_17  and  C12_19 
ROOT
HETATM    1  C8  UNK     1      30.806  -5.872  33.765  1.00  0.00     0.043 C 
HETATM    2  C10 UNK     1      29.786  -6.314  34.522  1.00  0.00     0.029 C 
ENDROOT
BRANCH   1   3
HETATM    3  C7  UNK     1      30.496  -5.714  32.330  1.00  0.00     0.254 C 
HETATM    4  O3  UNK     1      29.995  -4.648  31.968  1.00  0.00    -0.267 OA
HETATM    5  N1  UNK     1      30.796  -6.776  31.481  1.00  0.00    -0.348 N 
HETATM    6  C4  UNK     1      30.510  -6.658  30.052  1.00  0.00     0.127 C 
HETATM    7  C5  UNK     1      31.380  -8.067  31.865  1.00  0.00     0.127 C 
HETATM    8  C2  UNK     1      31.790  -6.837  29.236  1.00  0.00     0.034 C 
HETATM    9  C1  UNK     1      32.550  -8.118  29.600  1.00  0.00     0.088 C 
HETATM   10  C3  UNK     1      32.691  -8.303  31.116  1.00  0.00     0.034 C 
BRANCH   9  11
HETATM   11  C6  UNK     1      31.883  -9.308  28.970  1.00  0.00     0.263 C 
HETATM   12  O2  UNK     1      32.118 -10.468  29.280  1.00  0.00    -0.265 OA
BRANCH  11  13
HETATM   13  O1  UNK     1      31.001  -8.887  28.022  1.00  0.00    -0.322 OA
BRANCH  13  14
HETATM   14  C11 UNK     1      29.969  -9.820  27.684  1.00  0.00     0.174 C 
HETATM   15  C15 UNK     1      28.797  -9.620  28.622  1.00  0.00     0.034 C 
ENDBRANCH  13  14
ENDBRANCH  11  13
ENDBRANCH   9  11
ENDBRANCH   1   3
BRANCH   1  16
HETATM   16  C9  UNK     1      32.152  -5.548  34.255  1.00  0.00    -0.021 A 
HETATM   17  C13 UNK     1      33.115  -6.545  34.313  1.00  0.00     0.012 A 
HETATM   18  C17 UNK     1      34.394  -6.239  34.779  1.00  0.00     0.001 A 
HETATM   19  C20 UNK     1      34.696  -4.938  35.180  1.00  0.00     0.000 A 
HETATM   20  C18 UNK     1      33.720  -3.944  35.119  1.00  0.00     0.001 A 
HETATM   21  C14 UNK     1      32.440  -4.251  34.653  1.00  0.00     0.012 A 
ENDBRANCH   1  16
BRANCH   2  22
HETATM   22  C12 UNK     1      29.840  -6.584  35.966  1.00  0.00    -0.033 A 
HETATM   23  C16 UNK     1      29.961  -7.892  36.412  1.00  0.00     0.047 A 
HETATM   24  C21 UNK     1      30.012  -8.146  37.783  1.00  0.00     0.103 A 
HETATM   25  C23 UNK     1      29.943  -7.090  38.692  1.00  0.00     0.036 A 
HETATM   26  C22 UNK     1      29.822  -5.780  38.229  1.00  0.00     0.003 A 
HETATM   27  C19 UNK     1      29.770  -5.524  36.860  1.00  0.00     0.011 A 
BRANCH  24  28
HETATM   28  N2  UNK     1      30.136  -9.479  38.254  1.00  0.00    -0.116 N 
HETATM   29  O4  UNK     1      29.146 -10.026  38.799  1.00  0.00    -0.532 OA
HETATM   30  O5  UNK     1      31.231 -10.076  38.111  1.00  0.00    -0.532 OA
ENDBRANCH  24  28
ENDBRANCH   2  22
TORSDOF 7
ENDMDL
MODEL 5
REMARK VINA RESULT:      -7.6      2.407      3.668
REMARK  7 active torsions:
REMARK  status: ('A' for Active; 'I' for Inactive)
REMARK    1  A    between atoms: C11_18  and  O1_1 
REMARK    2  A    between atoms: C6_13  and  O1_1 
REMARK       I    between atoms: C7_14  and  N1_6 
REMARK    3  A    between atoms: C21_28  and  N2_7 
REMARK    4  A    between atoms: C1_8  and  C6_13 
REMARK    5  A    between atoms: C7_14  and  C8_15 
REMARK    6  A    between atoms: C8_15  and  C9_16 
REMARK    7  A    between atoms: C10_17  and  C12_19 
ROOT
HETATM    1  C8  UNK     1      30.286  -8.694  35.631  1.00  0.00     0.043 C 
HETATM    2  C10 UNK     1      29.037  -8.964  36.047  1.00  0.00     0.029 C 
ENDROOT
BRANCH   1   3
HETATM    3  C7  UNK     1      30.661  -9.304  34.339  1.00  0.00     0.254 C 
HETATM    4  O3  UNK     1      31.329 -10.338  34.370  1.00  0.00    -0.267 OA
HETATM    5  N1  UNK     1      30.230  -8.674  33.175  1.00  0.00    -0.348 N 
HETATM    6  C4  UNK     1      30.575  -9.250  31.875  1.00  0.00     0.127 C 
HETATM    7  C5  UNK     1      29.444  -7.437  33.087  1.00  0.00     0.127 C 
HETATM    8  C2  UNK     1      29.308  -9.572  31.083  1.00  0.00     0.034 C 
HETATM    9  C1  UNK     1      28.352  -8.378  30.983  1.00  0.00     0.088 C 
HETATM   10  C3  UNK     1      28.137  -7.688  32.336  1.00  0.00     0.034 C 
BRANCH   9  11
HETATM   11  C6  UNK     1      28.848  -7.404  29.953  1.00  0.00     0.263 C 
HETATM   12  O2  UNK     1      28.666  -6.195  30.009  1.00  0.00    -0.265 OA
BRANCH  11  13
HETATM   13  O1  UNK     1      29.515  -8.077  28.974  1.00  0.00    -0.322 OA
BRANCH  13  14
HETATM   14  C11 UNK     1      30.769  -7.511  28.583  1.00  0.00     0.174 C 
HETATM   15  C15 UNK     1      31.733  -8.629  28.247  1.00  0.00     0.034 C 
ENDBRANCH  13  14
ENDBRANCH  11  13
ENDBRANCH   9  11
ENDBRANCH   1   3
BRANCH   1  16
HETATM   16  C9  UNK     1      31.263  -7.864  36.349  1.00  0.00    -0.021 A 
HETATM   17  C13 UNK     1      32.065  -8.442  37.322  1.00  0.00     0.012 A 
HETATM   18  C17 UNK     1      32.992  -7.654  38.005  1.00  0.00     0.001 A 
HETATM   19  C20 UNK     1      33.107  -6.296  37.706  1.00  0.00     0.000 A 
HETATM   20  C18 UNK     1      32.295  -5.726  36.726  1.00  0.00     0.001 A 
HETATM   21  C14 UNK     1      31.367  -6.514  36.044  1.00  0.00     0.012 A 
ENDBRANCH   1  16
BRANCH   2  22
HETATM   22  C12 UNK     1      28.431  -8.507  37.306  1.00  0.00    -0.033 A 
HETATM   23  C16 UNK     1      27.922  -7.219  37.392  1.00  0.00     0.047 A 
HETATM   24  C21 UNK     1      27.347  -6.788  38.587  1.00  0.00     0.103 A 
HETATM   25  C23 UNK     1      27.286  -7.649  39.683  1.00  0.00     0.036 A 
HETATM   26  C22 UNK     1      27.802  -8.941  39.584  1.00  0.00     0.003 A 
HETATM   27  C19 UNK     1      28.377  -9.374  38.389  1.00  0.00     0.011 A 
BRANCH  24  28
HETATM   28  N2  UNK     1      26.822  -5.473  38.689  1.00  0.00    -0.116 N 
HETATM   29  O4  UNK     1      27.612  -4.515  38.871  1.00  0.00    -0.532 OA
HETATM   30  O5  UNK     1      25.582  -5.304  38.594  1.00  0.00    -0.532 OA
ENDBRANCH  24  28
ENDBRANCH   2  22
TORSDOF 7
ENDMDL
MODEL 6
REMARK VINA RESULT:      -7.5      3.148      4.263
REMARK  7 active torsions:
REMARK  status: ('A' for Active; 'I' for Inactive)
REMARK    1  A    between atoms: C11_18  and  O1_1 
REMARK    2  A    between atoms: C6_13  and  O1_1 
REMARK       I    between atoms: C7_14  and  N1_6 
REMARK    3  A    between atoms: C21_28  and  N2_7 
REMARK    4  A    between atoms: C1_8  and  C6_13 
REMARK    5  A    between atoms: C7_14  and  C8_15 
REMARK    6  A    between atoms: C8_15  and  C9_16 
REMARK    7  A    between atoms: C10_17  and  C12_19 
ROOT
HETATM    1  C8  UNK     1      30.443  -8.364  36.282  1.00  0.00     0.043 C 
HETATM    2  C10 UNK     1      29.525  -9.310  36.546  1.00  0.00     0.029 C 
ENDROOT
BRANCH   1   3
HETATM    3  C7  UNK     1      31.357  -8.675  35.164  1.00  0.00     0.254 C 
HETATM    4  O3  UNK     1      32.522  -8.963  35.443  1.00  0.00    -0.267 OA
HETATM    5  N1  UNK     1      30.841  -8.627  33.872  1.00  0.00    -0.348 N 
HETATM    6  C4  UNK     1      31.712  -8.933  32.737  1.00  0.00     0.127 C 
HETATM    7  C5  UNK     1      29.468  -8.278  33.489  1.00  0.00     0.127 C 
HETATM    8  C2  UNK     1      31.151 -10.109  31.938  1.00  0.00     0.034 C 
HETATM    9  C1  UNK     1      29.684  -9.909  31.541  1.00  0.00     0.088 C 
HETATM   10  C3  UNK     1      28.822  -9.426  32.714  1.00  0.00     0.034 C 
BRANCH   9  11
HETATM   11  C6  UNK     1      29.589  -8.965  30.377  1.00  0.00     0.263 C 
HETATM   12  O2  UNK     1      30.549  -8.598  29.713  1.00  0.00    -0.265 OA
BRANCH  11  13
HETATM   13  O1  UNK     1      28.290  -8.597  30.193  1.00  0.00    -0.322 OA
BRANCH  13  14
HETATM   14  C11 UNK     1      28.061  -7.189  30.070  1.00  0.00     0.174 C 
HETATM   15  C15 UNK     1      26.629  -6.886  30.454  1.00  0.00     0.034 C 
ENDBRANCH  13  14
ENDBRANCH  11  13
ENDBRANCH   9  11
ENDBRANCH   1   3
BRANCH   1  16
HETATM   16  C9  UNK     1      30.590  -7.094  37.005  1.00  0.00    -0.021 A 
HETATM   17  C13 UNK     1      31.511  -6.998  38.037  1.00  0.00     0.012 A 
HETATM   18  C17 UNK     1      31.650  -5.792  38.724  1.00  0.00     0.001 A 
HETATM   19  C20 UNK     1      30.866  -4.694  38.370  1.00  0.00     0.000 A 
HETATM   20  C18 UNK     1      29.942  -4.803  37.330  1.00  0.00     0.001 A 
HETATM   21  C14 UNK     1      29.803  -6.009  36.643  1.00  0.00     0.012 A 
ENDBRANCH   1  16
BRANCH   2  22
HETATM   22  C12 UNK     1      28.524  -9.262  37.621  1.00  0.00    -0.033 A 
HETATM   23  C16 UNK     1      27.267  -8.734  37.361  1.00  0.00     0.047 A 
HETATM   24  C21 UNK     1      26.318  -8.690  38.382  1.00  0.00     0.103 A 
HETATM   25  C23 UNK     1      26.635  -9.174  39.651  1.00  0.00     0.036 A 
HETATM   26  C22 UNK     1      27.902  -9.702  39.899  1.00  0.00     0.003 A 
HETATM   27  C19 UNK     1      28.851  -9.747  38.879  1.00  0.00     0.011 A 
BRANCH  24  28
HETATM   28  N2  UNK     1      25.028  -8.153  38.130  1.00  0.00    -0.116 N 
HETATM   29  O4  UNK     1      24.660  -7.133  38.762  1.00  0.00    -0.532 OA
HETATM   30  O5  UNK     1      24.291  -8.713  37.281  1.00  0.00    -0.532 OA
ENDBRANCH  24  28
ENDBRANCH   2  22
TORSDOF 7
ENDMDL
MODEL 7
REMARK VINA RESULT:      -7.4     31.544     34.643
REMARK  7 active torsions:
REMARK  status: ('A' for Active; 'I' for Inactive)
REMARK    1  A    between atoms: C11_18  and  O1_1 
REMARK    2  A    between atoms: C6_13  and  O1_1 
REMARK       I    between atoms: C7_14  and  N1_6 
REMARK    3  A    between atoms: C21_28  and  N2_7 
REMARK    4  A    between atoms: C1_8  and  C6_13 
REMARK    5  A    between atoms: C7_14  and  C8_15 
REMARK    6  A    between atoms: C8_15  and  C9_16 
REMARK    7  A    between atoms: C10_17  and  C12_19 
ROOT
HETATM    1  C8  UNK     1      13.130   8.437   9.857  1.00  0.00     0.043 C 
HETATM    2  C10 UNK     1      12.004   8.716   9.177  1.00  0.00     0.029 C 
ENDROOT
BRANCH   1   3
HETATM    3  C7  UNK     1      13.636   9.535  10.705  1.00  0.00     0.254 C 
HETATM    4  O3  UNK     1      13.321   9.527  11.896  1.00  0.00    -0.267 OA
HETATM    5  N1  UNK     1      14.438  10.501  10.105  1.00  0.00    -0.348 N 
HETATM    6  C4  UNK     1      14.964  11.602  10.912  1.00  0.00     0.127 C 
HETATM    7  C5  UNK     1      14.829  10.561   8.692  1.00  0.00     0.127 C 
HETATM    8  C2  UNK     1      16.491  11.615  10.864  1.00  0.00     0.034 C 
HETATM    9  C1  UNK     1      17.040  11.595   9.433  1.00  0.00     0.088 C 
HETATM   10  C3  UNK     1      16.352  10.539   8.559  1.00  0.00     0.034 C 
BRANCH   9  11
HETATM   11  C6  UNK     1      16.927  12.961   8.818  1.00  0.00     0.263 C 
HETATM   12  O2  UNK     1      16.802  13.993   9.463  1.00  0.00    -0.265 OA
BRANCH  11  13
HETATM   13  O1  UNK     1      16.983  12.856   7.461  1.00  0.00    -0.322 OA
BRANCH  13  14
HETATM   14  C11 UNK     1      18.183  13.348   6.855  1.00  0.00     0.174 C 
HETATM   15  C15 UNK     1      18.761  12.274   5.959  1.00  0.00     0.034 C 
ENDBRANCH  13  14
ENDBRANCH  11  13
ENDBRANCH   9  11
ENDBRANCH   1   3
BRANCH   1  16
HETATM   16  C9  UNK     1      13.858   7.162   9.813  1.00  0.00    -0.021 A 
HETATM   17  C13 UNK     1      15.232   7.167   9.624  1.00  0.00     0.012 A 
HETATM   18  C17 UNK     1      15.924   5.956   9.582  1.00  0.00     0.001 A 
HETATM   19  C20 UNK     1      15.233   4.753   9.730  1.00  0.00     0.000 A 
HETATM   20  C18 UNK     1      13.851   4.761   9.919  1.00  0.00     0.001 A 
HETATM   21  C14 UNK     1      13.159   5.972   9.961  1.00  0.00     0.012 A 
ENDBRANCH   1  16
BRANCH   2  22
HETATM   22  C12 UNK     1      11.316   7.812   8.244  1.00  0.00    -0.033 A 
HETATM   23  C16 UNK     1      10.028   7.384   8.532  1.00  0.00     0.047 A 
HETATM   24  C21 UNK     1       9.376   6.528   7.645  1.00  0.00     0.103 A 
HETATM   25  C23 UNK     1      10.018   6.109   6.479  1.00  0.00     0.036 A 
HETATM   26  C22 UNK     1      11.313   6.546   6.202  1.00  0.00     0.003 A 
HETATM   27  C19 UNK     1      11.966   7.403   7.088  1.00  0.00     0.011 A 
BRANCH  24  28
HETATM   28  N2  UNK     1       8.058   6.082   7.927  1.00  0.00    -0.116 N 
HETATM   29  O4  UNK     1       7.762   4.882   7.711  1.00  0.00    -0.532 OA
HETATM   30  O5  UNK     1       7.224   6.901   8.386  1.00  0.00    -0.532 OA
ENDBRANCH  24  28
ENDBRANCH   2  22
TORSDOF 7
ENDMDL
MODEL 8
REMARK VINA RESULT:      -7.3      1.598      3.105
REMARK  7 active torsions:
REMARK  status: ('A' for Active; 'I' for Inactive)
REMARK    1  A    between atoms: C11_18  and  O1_1 
REMARK    2  A    between atoms: C6_13  and  O1_1 
REMARK       I    between atoms: C7_14  and  N1_6 
REMARK    3  A    between atoms: C21_28  and  N2_7 
REMARK    4  A    between atoms: C1_8  and  C6_13 
REMARK    5  A    between atoms: C7_14  and  C8_15 
REMARK    6  A    between atoms: C8_15  and  C9_16 
REMARK    7  A    between atoms: C10_17  and  C12_19 
ROOT
HETATM    1  C8  UNK     1      29.717  -6.426  33.974  1.00  0.00     0.043 C 
HETATM    2  C10 UNK     1      30.575  -5.523  34.478  1.00  0.00     0.029 C 
ENDROOT
BRANCH   1   3
HETATM    3  C7  UNK     1      29.398  -6.255  32.542  1.00  0.00     0.254 C 
HETATM    4  O3  UNK     1      28.532  -5.431  32.246  1.00  0.00    -0.267 OA
HETATM    5  N1  UNK     1      30.101  -7.030  31.624  1.00  0.00    -0.348 N 
HETATM    6  C4  UNK     1      29.819  -6.885  30.195  1.00  0.00     0.127 C 
HETATM    7  C5  UNK     1      31.130  -8.030  31.927  1.00  0.00     0.127 C 
HETATM    8  C2  UNK     1      31.084  -6.477  29.441  1.00  0.00     0.034 C 
HETATM    9  C1  UNK     1      32.272  -7.401  29.735  1.00  0.00     0.088 C 
HETATM   10  C3  UNK     1      32.445  -7.670  31.235  1.00  0.00     0.034 C 
BRANCH   9  11
HETATM   11  C6  UNK     1      32.129  -8.684  28.969  1.00  0.00     0.263 C 
HETATM   12  O2  UNK     1      32.896  -9.632  29.071  1.00  0.00    -0.265 OA
BRANCH  11  13
HETATM   13  O1  UNK     1      31.033  -8.614  28.163  1.00  0.00    -0.322 OA
BRANCH  13  14
HETATM   14  C11 UNK     1      30.413  -9.867  27.857  1.00  0.00     0.174 C 
HETATM   15  C15 UNK     1      28.950  -9.801  28.240  1.00  0.00     0.034 C 
ENDBRANCH  13  14
ENDBRANCH  11  13
ENDBRANCH   9  11
ENDBRANCH   1   3
BRANCH   1  16
HETATM   16  C9  UNK     1      29.102  -7.529  34.725  1.00  0.00    -0.021 A 
HETATM   17  C13 UNK     1      27.898  -7.319  35.381  1.00  0.00     0.012 A 
HETATM   18  C17 UNK     1      27.313  -8.366  36.095  1.00  0.00     0.001 A 
HETATM   19  C20 UNK     1      27.939  -9.611  36.144  1.00  0.00     0.000 A 
HETATM   20  C18 UNK     1      29.150  -9.810  35.481  1.00  0.00     0.001 A 
HETATM   21  C14 UNK     1      29.735  -8.763  34.767  1.00  0.00     0.012 A 
ENDBRANCH   1  16
BRANCH   2  22
HETATM   22  C12 UNK     1      31.029  -5.453  35.875  1.00  0.00    -0.033 A 
HETATM   23  C16 UNK     1      30.118  -5.148  36.875  1.00  0.00     0.047 A 
HETATM   24  C21 UNK     1      30.550  -5.082  38.199  1.00  0.00     0.103 A 
HETATM   25  C23 UNK     1      31.888  -5.324  38.509  1.00  0.00     0.036 A 
HETATM   26  C22 UNK     1      32.794  -5.630  37.494  1.00  0.00     0.003 A 
HETATM   27  C19 UNK     1      32.363  -5.695  36.170  1.00  0.00     0.011 A 
BRANCH  24  28
HETATM   28  N2  UNK     1      29.628  -4.771  39.233  1.00  0.00    -0.116 N 
HETATM   29  O4  UNK     1      28.700  -5.578  39.484  1.00  0.00    -0.532 OA
HETATM   30  O5  UNK     1      29.766  -3.697  39.868  1.00  0.00    -0.532 OA
ENDBRANCH  24  28
ENDBRANCH   2  22
TORSDOF 7
ENDMDL
MODEL 9
REMARK VINA RESULT:      -7.3      2.598      4.676
REMARK  7 active torsions:
REMARK  status: ('A' for Active; 'I' for Inactive)
REMARK    1  A    between atoms: C11_18  and  O1_1 
REMARK    2  A    between atoms: C6_13  and  O1_1 
REMARK       I    between atoms: C7_14  and  N1_6 
REMARK    3  A    between atoms: C21_28  and  N2_7 
REMARK    4  A    between atoms: C1_8  and  C6_13 
REMARK    5  A    between atoms: C7_14  and  C8_15 
REMARK    6  A    between atoms: C8_15  and  C9_16 
REMARK    7  A    between atoms: C10_17  and  C12_19 
ROOT
HETATM    1  C8  UNK     1      30.119  -6.633  34.203  1.00  0.00     0.043 C 
HETATM    2  C10 UNK     1      31.011  -5.785  33.662  1.00  0.00     0.029 C 
ENDROOT
BRANCH   1   3
HETATM    3  C7  UNK     1      28.880  -6.819  33.421  1.00  0.00     0.254 C 
HETATM    4  O3  UNK     1      27.855  -6.281  33.841  1.00  0.00    -0.267 OA
HETATM    5  N1  UNK     1      28.954  -7.584  32.260  1.00  0.00    -0.348 N 
HETATM    6  C4  UNK     1      27.751  -7.788  31.454  1.00  0.00     0.127 C 
HETATM    7  C5  UNK     1      30.146  -8.254  31.727  1.00  0.00     0.127 C 
HETATM    8  C2  UNK     1      27.967  -7.267  30.034  1.00  0.00     0.034 C 
HETATM    9  C1  UNK     1      29.236  -7.829  29.383  1.00  0.00     0.088 C 
HETATM   10  C3  UNK     1      30.452  -7.755  30.315  1.00  0.00     0.034 C 
BRANCH   9  11
HETATM   11  C6  UNK     1      28.996  -9.237  28.919  1.00  0.00     0.263 C 
HETATM   12  O2  UNK     1      27.887  -9.713  28.716  1.00  0.00    -0.265 OA
BRANCH  11  13
HETATM   13  O1  UNK     1      30.190  -9.877  28.770  1.00  0.00    -0.322 OA
BRANCH  13  14
HETATM   14  C11 UNK     1      30.237 -11.216  29.274  1.00  0.00     0.174 C 
HETATM   15  C15 UNK     1      31.578 -11.448  29.937  1.00  0.00     0.034 C 
ENDBRANCH  13  14
ENDBRANCH  11  13
ENDBRANCH   9  11
ENDBRANCH   1   3
BRANCH   1  16
HETATM   16  C9  UNK     1      30.291  -7.356  35.470  1.00  0.00    -0.021 A 
HETATM   17  C13 UNK     1      29.920  -6.747  36.659  1.00  0.00     0.012 A 
HETATM   18  C17 UNK     1      30.083  -7.434  37.863  1.00  0.00     0.001 A 
HETATM   19  C20 UNK     1      30.615  -8.723  37.863  1.00  0.00     0.000 A 
HETATM   20  C18 UNK     1      30.984  -9.325  36.660  1.00  0.00     0.001 A 
HETATM   21  C14 UNK     1      30.821  -8.638  35.457  1.00  0.00     0.012 A 
ENDBRANCH   1  16
BRANCH   2  22
HETATM   22  C12 UNK     1      32.303  -5.403  34.252  1.00  0.00    -0.033 A 
HETATM   23  C16 UNK     1      33.441  -6.127  33.930  1.00  0.00     0.047 A 
HETATM   24  C21 UNK     1      34.666  -5.763  34.489  1.00  0.00     0.103 A 
HETATM   25  C23 UNK     1      34.739  -4.678  35.363  1.00  0.00     0.036 A 
HETATM   26  C22 UNK     1      33.587  -3.958  35.678  1.00  0.00     0.003 A 
HETATM   27  C19 UNK     1      32.362  -4.321  35.119  1.00  0.00     0.011 A 
BRANCH  24  28
HETATM   28  N2  UNK     1      35.839  -6.496  34.169  1.00  0.00    -0.116 N 
HETATM   29  O4  UNK     1      36.587  -6.884  35.099  1.00  0.00    -0.532 OA
HETATM   30  O5  UNK     1      36.095  -6.737  32.964  1.00  0.00    -0.532 OA
ENDBRANCH  24  28
ENDBRANCH   2  22
TORSDOF 7
ENDMDL
MODEL 10
REMARK VINA RESULT:      -7.3      2.892      4.546
REMARK  7 active torsions:
REMARK  status: ('A' for Active; 'I' for Inactive)
REMARK    1  A    between atoms: C11_18  and  O1_1 
REMARK    2  A    between atoms: C6_13  and  O1_1 
REMARK       I    between atoms: C7_14  and  N1_6 
REMARK    3  A    between atoms: C21_28  and  N2_7 
REMARK    4  A    between atoms: C1_8  and  C6_13 
REMARK    5  A    between atoms: C7_14  and  C8_15 
REMARK    6  A    between atoms: C8_15  and  C9_16 
REMARK    7  A    between atoms: C10_17  and  C12_19 
ROOT
HETATM    1  C8  UNK     1      31.293  -7.441  34.624  1.00  0.00     0.043 C 
HETATM    2  C10 UNK     1      31.829  -6.948  35.755  1.00  0.00     0.029 C 
ENDROOT
BRANCH   1   3
HETATM    3  C7  UNK     1      31.808  -8.761  34.211  1.00  0.00     0.254 C 
HETATM    4  O3  UNK     1      31.212  -9.759  34.619  1.00  0.00    -0.267 OA
HETATM    5  N1  UNK     1      32.929  -8.791  33.386  1.00  0.00    -0.348 N 
HETATM    6  C4  UNK     1      33.467 -10.079  32.949  1.00  0.00     0.127 C 
HETATM    7  C5  UNK     1      33.679  -7.633  32.885  1.00  0.00     0.127 C 
HETATM    8  C2  UNK     1      33.470 -10.165  31.423  1.00  0.00     0.034 C 
HETATM    9  C1  UNK     1      34.158  -8.965  30.764  1.00  0.00     0.088 C 
HETATM   10  C3  UNK     1      33.695  -7.628  31.357  1.00  0.00     0.034 C 
BRANCH   9  11
HETATM   11  C6  UNK     1      35.650  -9.110  30.858  1.00  0.00     0.263 C 
HETATM   12  O2  UNK     1      36.394  -8.252  31.314  1.00  0.00    -0.265 OA
BRANCH  11  13
HETATM   13  O1  UNK     1      36.022 -10.322  30.359  1.00  0.00    -0.322 OA
BRANCH  13  14
HETATM   14  C11 UNK     1      37.330 -10.767  30.735  1.00  0.00     0.174 C 
HETATM   15  C15 UNK     1      38.241 -10.699  29.529  1.00  0.00     0.034 C 
ENDBRANCH  13  14
ENDBRANCH  11  13
ENDBRANCH   9  11
ENDBRANCH   1   3
BRANCH   1  16
HETATM   16  C9  UNK     1      30.268  -6.776  33.808  1.00  0.00    -0.021 A 
HETATM   17  C13 UNK     1      28.927  -7.028  34.057  1.00  0.00     0.012 A 
HETATM   18  C17 UNK     1      27.954  -6.396  33.282  1.00  0.00     0.001 A 
HETATM   19  C20 UNK     1      28.333  -5.518  32.267  1.00  0.00     0.000 A 
HETATM   20  C18 UNK     1      29.685  -5.273  32.026  1.00  0.00     0.001 A 
HETATM   21  C14 UNK     1      30.658  -5.904  32.801  1.00  0.00     0.012 A 
ENDBRANCH   1  16
BRANCH   2  22
HETATM   22  C12 UNK     1      31.514  -5.647  36.362  1.00  0.00    -0.033 A 
HETATM   23  C16 UNK     1      30.542  -5.571  37.349  1.00  0.00     0.047 A 
HETATM   24  C21 UNK     1      30.245  -4.336  37.924  1.00  0.00     0.103 A 
HETATM   25  C23 UNK     1      30.924  -3.191  37.508  1.00  0.00     0.036 A 
HETATM   26  C22 UNK     1      31.899  -3.281  36.515  1.00  0.00     0.003 A 
HETATM   27  C19 UNK     1      32.197  -4.515  35.939  1.00  0.00     0.011 A 
BRANCH  24  28
HETATM   28  N2  UNK     1      29.252  -4.244  38.935  1.00  0.00    -0.116 N 
HETATM   29  O4  UNK     1      29.527  -3.646  40.004  1.00  0.00    -0.532 OA
HETATM   30  O5  UNK     1      28.127  -4.761  38.732  1.00  0.00    -0.532 OA
ENDBRANCH  24  28
ENDBRANCH   2  22
TORSDOF 7
ENDMDL
