MODEL 1
REMARK VINA RESULT:      -9.1      0.000      0.000
REMARK  5 active torsions:
REMARK  status: ('A' for Active; 'I' for Inactive)
REMARK    1  A    between atoms: C9_15  and  O2_2 
REMARK    2  A    between atoms: C20_26  and  O3_3 
REMARK    3  A    between atoms: C5_11  and  N1_5 
REMARK    4  A    between atoms: C6_12  and  N2_6 
REMARK    5  A    between atoms: C5_11  and  C7_13 
ROOT
HETATM    1  N1  UNK     1      20.071  -4.087  36.819  1.00  0.00     0.095 N 
HETATM    2  N2  UNK     1      20.099  -6.909  37.260  1.00  0.00    -0.375 N 
HETATM    3  C1  UNK     1      19.853  -5.015  35.702  1.00  0.00     0.292 C 
HETATM    4  C2  UNK     1      21.003  -4.680  37.785  1.00  0.00     0.292 C 
HETATM    5  C3  UNK     1      19.263  -6.339  36.196  1.00  0.00     0.153 C 
HETATM    6  C4  UNK     1      20.454  -5.993  38.347  1.00  0.00     0.153 C 
ENDROOT
BRANCH   1   7
HETATM    7  C5  UNK     1      20.582  -2.807  36.330  1.00  0.00     0.312 C 
BRANCH   7   8
HETATM    8  C7  UNK     1      19.561  -2.078  35.506  1.00  0.00    -0.011 A 
HETATM    9  C11 UNK     1      18.476  -1.532  36.072  1.00  0.00     0.092 A 
HETATM   10  C16 UNK     1      17.448  -0.808  35.307  1.00  0.00     0.288 A 
HETATM   11  O1  UNK     1      17.647  -0.707  33.939  1.00  0.00    -0.275 OA
HETATM   12  O4  UNK     1      16.469  -0.320  35.859  1.00  0.00    -0.260 OA
HETATM   13  C12 UNK     1      18.778  -1.271  33.315  1.00  0.00     0.093 A 
HETATM   14  C8  UNK     1      19.743  -1.954  34.054  1.00  0.00     0.006 A 
HETATM   15  C18 UNK     1      18.874  -1.108  31.930  1.00  0.00     0.075 A 
HETATM   16  C13 UNK     1      20.838  -2.487  33.358  1.00  0.00     0.017 A 
HETATM   17  C19 UNK     1      20.948  -2.332  31.972  1.00  0.00     0.038 A 
HETATM   18  C20 UNK     1      19.968  -1.644  31.259  1.00  0.00     0.070 A 
BRANCH  18  19
HETATM   19  O3  UNK     1      20.081  -1.495  29.912  1.00  0.00    -0.356 OA
HETATM   20  C22 UNK     1      20.391  -0.191  29.424  1.00  0.00     0.210 C 
ENDBRANCH  18  19
ENDBRANCH   7   8
ENDBRANCH   1   7
BRANCH   2  21
HETATM   21  C6  UNK     1      19.993  -8.281  37.515  1.00  0.00     0.064 A 
HETATM   22  C10 UNK     1      19.206  -8.750  38.587  1.00  0.00     0.032 A 
HETATM   23  C15 UNK     1      19.093 -10.114  38.855  1.00  0.00     0.002 A 
HETATM   24  C17 UNK     1      19.763 -11.039  38.054  1.00  0.00     0.003 A 
HETATM   25  C14 UNK     1      20.546 -10.600  36.987  1.00  0.00     0.039 A 
HETATM   26  C9  UNK     1      20.660  -9.236  36.721  1.00  0.00     0.094 A 
BRANCH  26  27
HETATM   27  O2  UNK     1      21.432  -8.827  35.673  1.00  0.00    -0.354 OA
HETATM   28  C21 UNK     1      21.782  -9.811  34.704  1.00  0.00     0.210 C 
ENDBRANCH  26  27
ENDBRANCH   2  21
TORSDOF 5
ENDMDL
MODEL 2
REMARK VINA RESULT:      -8.9      8.000     11.484
REMARK  5 active torsions:
REMARK  status: ('A' for Active; 'I' for Inactive)
REMARK    1  A    between atoms: C9_15  and  O2_2 
REMARK    2  A    between atoms: C20_26  and  O3_3 
REMARK    3  A    between atoms: C5_11  and  N1_5 
REMARK    4  A    between atoms: C6_12  and  N2_6 
REMARK    5  A    between atoms: C5_11  and  C7_13 
ROOT
HETATM    1  N1  UNK     1      18.155   5.013  31.970  1.00  0.00     0.095 N 
HETATM    2  N2  UNK     1      18.961   2.431  31.055  1.00  0.00    -0.375 N 
HETATM    3  C1  UNK     1      19.166   4.883  30.913  1.00  0.00     0.292 C 
HETATM    4  C2  UNK     1      18.271   3.893  32.911  1.00  0.00     0.292 C 
HETATM    5  C3  UNK     1      18.981   3.576  30.136  1.00  0.00     0.153 C 
HETATM    6  C4  UNK     1      18.058   2.554  32.202  1.00  0.00     0.153 C 
ENDROOT
BRANCH   1   7
HETATM    7  C5  UNK     1      18.307   6.289  32.669  1.00  0.00     0.312 C 
BRANCH   7   8
HETATM    8  C7  UNK     1      17.032   7.081  32.667  1.00  0.00    -0.011 A 
HETATM    9  C11 UNK     1      15.891   6.554  32.200  1.00  0.00     0.092 A 
HETATM   10  C16 UNK     1      14.617   7.291  32.178  1.00  0.00     0.288 A 
HETATM   11  O1  UNK     1      14.638   8.586  32.671  1.00  0.00    -0.275 OA
HETATM   12  O4  UNK     1      13.592   6.777  31.743  1.00  0.00    -0.260 OA
HETATM   13  C12 UNK     1      15.822   9.166  33.169  1.00  0.00     0.093 A 
HETATM   14  C8  UNK     1      17.022   8.456  33.183  1.00  0.00     0.006 A 
HETATM   15  C18 UNK     1      15.725  10.478  33.640  1.00  0.00     0.075 A 
HETATM   16  C13 UNK     1      18.156   9.104  33.693  1.00  0.00     0.017 A 
HETATM   17  C19 UNK     1      18.074  10.417  34.169  1.00  0.00     0.038 A 
HETATM   18  C20 UNK     1      16.862  11.103  34.142  1.00  0.00     0.070 A 
BRANCH  18  19
HETATM   19  O3  UNK     1      16.789  12.380  34.607  1.00  0.00    -0.356 OA
HETATM   20  C22 UNK     1      18.020  13.034  34.909  1.00  0.00     0.210 C 
ENDBRANCH  18  19
ENDBRANCH   7   8
ENDBRANCH   1   7
BRANCH   2  21
HETATM   21  C6  UNK     1      19.252   1.165  30.532  1.00  0.00     0.064 A 
HETATM   22  C10 UNK     1      19.379   0.978  29.141  1.00  0.00     0.032 A 
HETATM   23  C15 UNK     1      19.666  -0.278  28.607  1.00  0.00     0.002 A 
HETATM   24  C17 UNK     1      19.833  -1.374  29.453  1.00  0.00     0.003 A 
HETATM   25  C14 UNK     1      19.713  -1.214  30.833  1.00  0.00     0.039 A 
HETATM   26  C9  UNK     1      19.426   0.042  31.367  1.00  0.00     0.094 A 
BRANCH  26  27
HETATM   27  O2  UNK     1      19.311   0.177  32.719  1.00  0.00    -0.354 OA
HETATM   28  C21 UNK     1      18.658  -0.877  33.422  1.00  0.00     0.210 C 
ENDBRANCH  26  27
ENDBRANCH   2  21
TORSDOF 5
ENDMDL
MODEL 3
REMARK VINA RESULT:      -8.5      6.050     11.800
REMARK  5 active torsions:
REMARK  status: ('A' for Active; 'I' for Inactive)
REMARK    1  A    between atoms: C9_15  and  O2_2 
REMARK    2  A    between atoms: C20_26  and  O3_3 
REMARK    3  A    between atoms: C5_11  and  N1_5 
REMARK    4  A    between atoms: C6_12  and  N2_6 
REMARK    5  A    between atoms: C5_11  and  C7_13 
ROOT
HETATM    1  N1  UNK     1      18.629   2.937  31.453  1.00  0.00     0.095 N 
HETATM    2  N2  UNK     1      18.653   5.585  32.523  1.00  0.00    -0.375 N 
HETATM    3  C1  UNK     1      18.695   4.098  30.557  1.00  0.00     0.292 C 
HETATM    4  C2  UNK     1      17.832   3.266  32.640  1.00  0.00     0.292 C 
HETATM    5  C3  UNK     1      19.342   5.296  31.258  1.00  0.00     0.153 C 
HETATM    6  C4  UNK     1      18.448   4.436  33.410  1.00  0.00     0.153 C 
ENDROOT
BRANCH   1   7
HETATM    7  C5  UNK     1      18.061   1.784  30.755  1.00  0.00     0.312 C 
BRANCH   7   8
HETATM    8  C7  UNK     1      19.068   0.684  30.584  1.00  0.00    -0.011 A 
HETATM    9  C11 UNK     1      19.746   0.538  29.438  1.00  0.00     0.092 A 
HETATM   10  C16 UNK     1      20.742  -0.525  29.224  1.00  0.00     0.288 A 
HETATM   11  O1  UNK     1      20.962  -1.395  30.280  1.00  0.00    -0.275 OA
HETATM   12  O4  UNK     1      21.344  -0.628  28.161  1.00  0.00    -0.260 OA
HETATM   13  C12 UNK     1      20.264  -1.266  31.498  1.00  0.00     0.093 A 
HETATM   14  C8  UNK     1      19.322  -0.254  31.686  1.00  0.00     0.006 A 
HETATM   15  C18 UNK     1      20.565  -2.199  32.493  1.00  0.00     0.075 A 
HETATM   16  C13 UNK     1      18.670  -0.194  32.926  1.00  0.00     0.017 A 
HETATM   17  C19 UNK     1      18.962  -1.122  33.932  1.00  0.00     0.038 A 
HETATM   18  C20 UNK     1      19.908  -2.122  33.716  1.00  0.00     0.070 A 
BRANCH  18  19
HETATM   19  O3  UNK     1      20.188  -3.021  34.699  1.00  0.00    -0.356 OA
HETATM   20  C22 UNK     1      20.557  -2.497  35.973  1.00  0.00     0.210 C 
ENDBRANCH  18  19
ENDBRANCH   7   8
ENDBRANCH   1   7
BRANCH   2  21
HETATM   21  C6  UNK     1      18.789   6.867  33.067  1.00  0.00     0.064 A 
HETATM   22  C10 UNK     1      20.030   7.299  33.578  1.00  0.00     0.032 A 
HETATM   23  C15 UNK     1      20.180   8.573  34.125  1.00  0.00     0.002 A 
HETATM   24  C17 UNK     1      19.091   9.443  34.172  1.00  0.00     0.003 A 
HETATM   25  C14 UNK     1      17.853   9.040  33.672  1.00  0.00     0.039 A 
HETATM   26  C9  UNK     1      17.704   7.766  33.125  1.00  0.00     0.094 A 
BRANCH  26  27
HETATM   27  O2  UNK     1      16.485   7.390  32.643  1.00  0.00    -0.354 OA
HETATM   28  C21 UNK     1      16.015   8.062  31.477  1.00  0.00     0.210 C 
ENDBRANCH  26  27
ENDBRANCH   2  21
TORSDOF 5
ENDMDL
MODEL 4
REMARK VINA RESULT:      -8.4      2.262      8.620
REMARK  5 active torsions:
REMARK  status: ('A' for Active; 'I' for Inactive)
REMARK    1  A    between atoms: C9_15  and  O2_2 
REMARK    2  A    between atoms: C20_26  and  O3_3 
REMARK    3  A    between atoms: C5_11  and  N1_5 
REMARK    4  A    between atoms: C6_12  and  N2_6 
REMARK    5  A    between atoms: C5_11  and  C7_13 
ROOT
HETATM    1  N1  UNK     1      19.548  -4.211  36.690  1.00  0.00     0.095 N 
HETATM    2  N2  UNK     1      18.946  -1.596  35.712  1.00  0.00    -0.375 N 
HETATM    3  C1  UNK     1      20.171  -3.719  35.455  1.00  0.00     0.292 C 
HETATM    4  C2  UNK     1      18.192  -3.663  36.817  1.00  0.00     0.292 C 
HETATM    5  C3  UNK     1      20.265  -2.191  35.458  1.00  0.00     0.153 C 
HETATM    6  C4  UNK     1      18.219  -2.133  36.865  1.00  0.00     0.153 C 
ENDROOT
BRANCH   1   7
HETATM    7  C5  UNK     1      19.514  -5.673  36.699  1.00  0.00     0.312 C 
BRANCH   7   8
HETATM    8  C7  UNK     1      20.805  -6.257  37.193  1.00  0.00    -0.011 A 
HETATM    9  C11 UNK     1      21.537  -5.630  38.123  1.00  0.00     0.092 A 
HETATM   10  C16 UNK     1      22.809  -6.163  38.639  1.00  0.00     0.288 A 
HETATM   11  O1  UNK     1      23.236  -7.372  38.114  1.00  0.00    -0.275 OA
HETATM   12  O4  UNK     1      23.453  -5.560  39.491  1.00  0.00    -0.260 OA
HETATM   13  C12 UNK     1      22.486  -8.056  37.135  1.00  0.00     0.093 A 
HETATM   14  C8  UNK     1      21.283  -7.538  36.656  1.00  0.00     0.006 A 
HETATM   15  C18 UNK     1      23.012  -9.267  36.678  1.00  0.00     0.075 A 
HETATM   16  C13 UNK     1      20.598  -8.278  35.682  1.00  0.00     0.017 A 
HETATM   17  C19 UNK     1      21.113  -9.493  35.215  1.00  0.00     0.038 A 
HETATM   18  C20 UNK     1      22.318  -9.986  35.712  1.00  0.00     0.070 A 
BRANCH  18  19
HETATM   19  O3  UNK     1      22.812 -11.168  35.254  1.00  0.00    -0.356 OA
HETATM   20  C22 UNK     1      23.944 -11.707  35.935  1.00  0.00     0.210 C 
ENDBRANCH  18  19
ENDBRANCH   7   8
ENDBRANCH   1   7
BRANCH   2  21
HETATM   21  C6  UNK     1      18.737  -0.269  35.316  1.00  0.00     0.064 A 
HETATM   22  C10 UNK     1      18.979   0.791  36.213  1.00  0.00     0.032 A 
HETATM   23  C15 UNK     1      18.772   2.117  35.833  1.00  0.00     0.002 A 
HETATM   24  C17 UNK     1      18.321   2.411  34.546  1.00  0.00     0.003 A 
HETATM   25  C14 UNK     1      18.076   1.379  33.641  1.00  0.00     0.039 A 
HETATM   26  C9  UNK     1      18.282   0.054  34.021  1.00  0.00     0.094 A 
BRANCH  26  27
HETATM   27  O2  UNK     1      18.035  -0.941  33.121  1.00  0.00    -0.354 OA
HETATM   28  C21 UNK     1      19.063  -1.229  32.177  1.00  0.00     0.210 C 
ENDBRANCH  26  27
ENDBRANCH   2  21
TORSDOF 5
ENDMDL
MODEL 5
REMARK VINA RESULT:      -8.3      1.108      3.482
REMARK  5 active torsions:
REMARK  status: ('A' for Active; 'I' for Inactive)
REMARK    1  A    between atoms: C9_15  and  O2_2 
REMARK    2  A    between atoms: C20_26  and  O3_3 
REMARK    3  A    between atoms: C5_11  and  N1_5 
REMARK    4  A    between atoms: C6_12  and  N2_6 
REMARK    5  A    between atoms: C5_11  and  C7_13 
ROOT
HETATM    1  N1  UNK     1      20.229  -4.048  36.662  1.00  0.00     0.095 N 
HETATM    2  N2  UNK     1      20.128  -6.858  37.163  1.00  0.00    -0.375 N 
HETATM    3  C1  UNK     1      19.972  -4.989  35.564  1.00  0.00     0.292 C 
HETATM    4  C2  UNK     1      21.132  -4.661  37.643  1.00  0.00     0.292 C 
HETATM    5  C3  UNK     1      19.321  -6.274  36.084  1.00  0.00     0.153 C 
HETATM    6  C4  UNK     1      20.521  -5.935  38.232  1.00  0.00     0.153 C 
ENDROOT
BRANCH   1   7
HETATM    7  C5  UNK     1      20.800  -2.804  36.146  1.00  0.00     0.312 C 
BRANCH   7   8
HETATM    8  C7  UNK     1      19.907  -2.164  35.123  1.00  0.00    -0.011 A 
HETATM    9  C11 UNK     1      20.161  -2.279  33.813  1.00  0.00     0.092 A 
HETATM   10  C16 UNK     1      19.315  -1.668  32.774  1.00  0.00     0.288 A 
HETATM   11  O1  UNK     1      18.213  -0.950  33.211  1.00  0.00    -0.275 OA
HETATM   12  O4  UNK     1      19.578  -1.795  31.583  1.00  0.00    -0.260 OA
HETATM   13  C12 UNK     1      17.920  -0.813  34.583  1.00  0.00     0.093 A 
HETATM   14  C8  UNK     1      18.731  -1.396  35.555  1.00  0.00     0.006 A 
HETATM   15  C18 UNK     1      16.784  -0.067  34.907  1.00  0.00     0.075 A 
HETATM   16  C13 UNK     1      18.372  -1.212  36.898  1.00  0.00     0.017 A 
HETATM   17  C19 UNK     1      17.237  -0.467  37.238  1.00  0.00     0.038 A 
HETATM   18  C20 UNK     1      16.445   0.104  36.245  1.00  0.00     0.070 A 
BRANCH  18  19
HETATM   19  O3  UNK     1      15.342   0.827  36.582  1.00  0.00    -0.356 OA
HETATM   20  C22 UNK     1      15.556   2.054  37.278  1.00  0.00     0.210 C 
ENDBRANCH  18  19
ENDBRANCH   7   8
ENDBRANCH   1   7
BRANCH   2  21
HETATM   21  C6  UNK     1      19.958  -8.218  37.448  1.00  0.00     0.064 A 
HETATM   22  C10 UNK     1      19.237  -8.625  38.590  1.00  0.00     0.032 A 
HETATM   23  C15 UNK     1      19.063  -9.976  38.887  1.00  0.00     0.002 A 
HETATM   24  C17 UNK     1      19.603 -10.950  38.047  1.00  0.00     0.003 A 
HETATM   25  C14 UNK     1      20.319 -10.573  36.911  1.00  0.00     0.039 A 
HETATM   26  C9  UNK     1      20.494  -9.221  36.615  1.00  0.00     0.094 A 
BRANCH  26  27
HETATM   27  O2  UNK     1      21.198  -8.873  35.500  1.00  0.00    -0.354 OA
HETATM   28  C21 UNK     1      21.810  -9.929  34.765  1.00  0.00     0.210 C 
ENDBRANCH  26  27
ENDBRANCH   2  21
TORSDOF 5
ENDMDL
MODEL 6
REMARK VINA RESULT:      -8.2     24.552     29.330
REMARK  5 active torsions:
REMARK  status: ('A' for Active; 'I' for Inactive)
REMARK    1  A    between atoms: C9_15  and  O2_2 
REMARK    2  A    between atoms: C20_26  and  O3_3 
REMARK    3  A    between atoms: C5_11  and  N1_5 
REMARK    4  A    between atoms: C6_12  and  N2_6 
REMARK    5  A    between atoms: C5_11  and  C7_13 
ROOT
HETATM    1  N1  UNK     1       6.672   6.202  11.195  1.00  0.00     0.095 N 
HETATM    2  N2  UNK     1       8.470   6.200   8.976  1.00  0.00    -0.375 N 
HETATM    3  C1  UNK     1       6.911   4.969  10.434  1.00  0.00     0.292 C 
HETATM    4  C2  UNK     1       6.751   7.363  10.301  1.00  0.00     0.292 C 
HETATM    5  C3  UNK     1       8.296   4.986   9.783  1.00  0.00     0.153 C 
HETATM    6  C4  UNK     1       8.129   7.460   9.644  1.00  0.00     0.153 C 
ENDROOT
BRANCH   1   7
HETATM    7  C5  UNK     1       5.369   6.150  11.857  1.00  0.00     0.312 C 
BRANCH   7   8
HETATM    8  C7  UNK     1       5.505   6.104  13.352  1.00  0.00    -0.011 A 
HETATM    9  C11 UNK     1       5.676   7.225  14.066  1.00  0.00     0.092 A 
HETATM   10  C16 UNK     1       5.814   7.230  15.532  1.00  0.00     0.288 A 
HETATM   11  O1  UNK     1       5.759   5.999  16.167  1.00  0.00    -0.275 OA
HETATM   12  O4  UNK     1       5.969   8.276  16.153  1.00  0.00    -0.260 OA
HETATM   13  C12 UNK     1       5.579   4.804  15.442  1.00  0.00     0.093 A 
HETATM   14  C8  UNK     1       5.450   4.815  14.053  1.00  0.00     0.006 A 
HETATM   15  C18 UNK     1       5.539   3.622  16.186  1.00  0.00     0.075 A 
HETATM   16  C13 UNK     1       5.275   3.583  13.406  1.00  0.00     0.017 A 
HETATM   17  C19 UNK     1       5.233   2.391  14.138  1.00  0.00     0.038 A 
HETATM   18  C20 UNK     1       5.364   2.410  15.525  1.00  0.00     0.070 A 
BRANCH  18  19
HETATM   19  O3  UNK     1       5.322   1.249  16.231  1.00  0.00    -0.356 OA
HETATM   20  C22 UNK     1       5.489   1.340  17.645  1.00  0.00     0.210 C 
ENDBRANCH  18  19
ENDBRANCH   7   8
ENDBRANCH   1   7
BRANCH   2  21
HETATM   21  C6  UNK     1       9.446   6.188   7.973  1.00  0.00     0.064 A 
HETATM   22  C10 UNK     1       9.075   6.241   6.614  1.00  0.00     0.032 A 
HETATM   23  C15 UNK     1      10.037   6.227   5.604  1.00  0.00     0.002 A 
HETATM   24  C17 UNK     1      11.391   6.161   5.931  1.00  0.00     0.003 A 
HETATM   25  C14 UNK     1      11.783   6.109   7.269  1.00  0.00     0.039 A 
HETATM   26  C9  UNK     1      10.821   6.123   8.278  1.00  0.00     0.094 A 
BRANCH  26  27
HETATM   27  O2  UNK     1      11.225   6.070   9.580  1.00  0.00    -0.354 OA
HETATM   28  C21 UNK     1      12.536   5.570   9.831  1.00  0.00     0.210 C 
ENDBRANCH  26  27
ENDBRANCH   2  21
TORSDOF 5
ENDMDL
MODEL 7
REMARK VINA RESULT:      -8.2      8.510     13.738
REMARK  5 active torsions:
REMARK  status: ('A' for Active; 'I' for Inactive)
REMARK    1  A    between atoms: C9_15  and  O2_2 
REMARK    2  A    between atoms: C20_26  and  O3_3 
REMARK    3  A    between atoms: C5_11  and  N1_5 
REMARK    4  A    between atoms: C6_12  and  N2_6 
REMARK    5  A    between atoms: C5_11  and  C7_13 
ROOT
HETATM    1  N1  UNK     1      17.325   6.344  32.770  1.00  0.00     0.095 N 
HETATM    2  N2  UNK     1      16.370   8.813  33.841  1.00  0.00    -0.375 N 
HETATM    3  C1  UNK     1      18.271   7.363  33.243  1.00  0.00     0.292 C 
HETATM    4  C2  UNK     1      16.138   6.992  32.201  1.00  0.00     0.292 C 
HETATM    5  C3  UNK     1      17.635   8.243  34.322  1.00  0.00     0.153 C 
HETATM    6  C4  UNK     1      15.431   7.860  33.243  1.00  0.00     0.153 C 
ENDROOT
BRANCH   1   7
HETATM    7  C5  UNK     1      17.961   5.475  31.780  1.00  0.00     0.312 C 
BRANCH   7   8
HETATM    8  C7  UNK     1      18.199   4.095  32.321  1.00  0.00    -0.011 A 
HETATM    9  C11 UNK     1      18.131   3.846  33.635  1.00  0.00     0.092 A 
HETATM   10  C16 UNK     1      18.357   2.510  34.212  1.00  0.00     0.288 A 
HETATM   11  O1  UNK     1      18.651   1.489  33.322  1.00  0.00    -0.275 OA
HETATM   12  O4  UNK     1      18.287   2.319  35.421  1.00  0.00    -0.260 OA
HETATM   13  C12 UNK     1      18.728   1.721  31.934  1.00  0.00     0.093 A 
HETATM   14  C8  UNK     1      18.512   2.992  31.402  1.00  0.00     0.006 A 
HETATM   15  C18 UNK     1      19.031   0.618  31.132  1.00  0.00     0.075 A 
HETATM   16  C13 UNK     1      18.608   3.141  30.012  1.00  0.00     0.017 A 
HETATM   17  C19 UNK     1      18.911   2.045  29.195  1.00  0.00     0.038 A 
HETATM   18  C20 UNK     1      19.122   0.786  29.754  1.00  0.00     0.070 A 
BRANCH  18  19
HETATM   19  O3  UNK     1      19.415  -0.275  28.955  1.00  0.00    -0.356 OA
HETATM   20  C22 UNK     1      20.756  -0.760  28.983  1.00  0.00     0.210 C 
ENDBRANCH  18  19
ENDBRANCH   7   8
ENDBRANCH   1   7
BRANCH   2  21
HETATM   21  C6  UNK     1      15.885   9.962  34.475  1.00  0.00     0.064 A 
HETATM   22  C10 UNK     1      14.650   9.936  35.155  1.00  0.00     0.032 A 
HETATM   23  C15 UNK     1      14.152  11.074  35.790  1.00  0.00     0.002 A 
HETATM   24  C17 UNK     1      14.880  12.263  35.759  1.00  0.00     0.003 A 
HETATM   25  C14 UNK     1      16.104  12.315  35.094  1.00  0.00     0.039 A 
HETATM   26  C9  UNK     1      16.601  11.177  34.459  1.00  0.00     0.094 A 
BRANCH  26  27
HETATM   27  O2  UNK     1      17.800  11.248  33.813  1.00  0.00    -0.354 OA
HETATM   28  C21 UNK     1      18.362  12.545  33.633  1.00  0.00     0.210 C 
ENDBRANCH  26  27
ENDBRANCH   2  21
TORSDOF 5
ENDMDL
MODEL 8
REMARK VINA RESULT:      -8.0      9.186     11.594
REMARK  5 active torsions:
REMARK  status: ('A' for Active; 'I' for Inactive)
REMARK    1  A    between atoms: C9_15  and  O2_2 
REMARK    2  A    between atoms: C20_26  and  O3_3 
REMARK    3  A    between atoms: C5_11  and  N1_5 
REMARK    4  A    between atoms: C6_12  and  N2_6 
REMARK    5  A    between atoms: C5_11  and  C7_13 
ROOT
HETATM    1  N1  UNK     1      28.958  -8.746  37.908  1.00  0.00     0.095 N 
HETATM    2  N2  UNK     1      26.529  -9.971  37.040  1.00  0.00    -0.375 N 
HETATM    3  C1  UNK     1      28.771  -9.103  36.497  1.00  0.00     0.292 C 
HETATM    4  C2  UNK     1      28.267  -9.717  38.765  1.00  0.00     0.292 C 
HETATM    5  C3  UNK     1      27.286  -9.108  36.124  1.00  0.00     0.153 C 
HETATM    6  C4  UNK     1      26.766  -9.744  38.468  1.00  0.00     0.153 C 
ENDROOT
BRANCH   1   7
HETATM    7  C5  UNK     1      30.382  -8.692  38.238  1.00  0.00     0.312 C 
BRANCH   7   8
HETATM    8  C7  UNK     1      30.911  -7.287  38.191  1.00  0.00    -0.011 A 
HETATM    9  C11 UNK     1      30.216  -6.268  38.712  1.00  0.00     0.092 A 
HETATM   10  C16 UNK     1      30.694  -4.875  38.689  1.00  0.00     0.288 A 
HETATM   11  O1  UNK     1      31.924  -4.648  38.093  1.00  0.00    -0.275 OA
HETATM   12  O4  UNK     1      30.030  -3.967  39.176  1.00  0.00    -0.260 OA
HETATM   13  C12 UNK     1      32.679  -5.701  37.537  1.00  0.00     0.093 A 
HETATM   14  C8  UNK     1      32.213  -7.016  37.566  1.00  0.00     0.006 A 
HETATM   15  C18 UNK     1      33.904  -5.356  36.962  1.00  0.00     0.075 A 
HETATM   16  C13 UNK     1      33.022  -8.005  36.991  1.00  0.00     0.017 A 
HETATM   17  C19 UNK     1      34.252  -7.675  36.411  1.00  0.00     0.038 A 
HETATM   18  C20 UNK     1      34.692  -6.353  36.397  1.00  0.00     0.070 A 
BRANCH  18  19
HETATM   19  O3  UNK     1      35.890  -6.038  35.833  1.00  0.00    -0.356 OA
HETATM   20  C22 UNK     1      36.397  -6.930  34.842  1.00  0.00     0.210 C 
ENDBRANCH  18  19
ENDBRANCH   7   8
ENDBRANCH   1   7
BRANCH   2  21
HETATM   21  C6  UNK     1      25.287 -10.455  36.610  1.00  0.00     0.064 A 
HETATM   22  C10 UNK     1      25.180 -11.738  36.037  1.00  0.00     0.032 A 
HETATM   23  C15 UNK     1      23.949 -12.231  35.602  1.00  0.00     0.002 A 
HETATM   24  C17 UNK     1      22.800 -11.452  35.734  1.00  0.00     0.003 A 
HETATM   25  C14 UNK     1      22.881 -10.180  36.298  1.00  0.00     0.039 A 
HETATM   26  C9  UNK     1      24.111  -9.686  36.732  1.00  0.00     0.094 A 
BRANCH  26  27
HETATM   27  O2  UNK     1      24.169  -8.439  37.280  1.00  0.00    -0.354 OA
HETATM   28  C21 UNK     1      23.144  -8.091  38.207  1.00  0.00     0.210 C 
ENDBRANCH  26  27
ENDBRANCH   2  21
TORSDOF 5
ENDMDL
MODEL 9
REMARK VINA RESULT:      -7.9     28.263     31.858
REMARK  5 active torsions:
REMARK  status: ('A' for Active; 'I' for Inactive)
REMARK    1  A    between atoms: C9_15  and  O2_2 
REMARK    2  A    between atoms: C20_26  and  O3_3 
REMARK    3  A    between atoms: C5_11  and  N1_5 
REMARK    4  A    between atoms: C6_12  and  N2_6 
REMARK    5  A    between atoms: C5_11  and  C7_13 
ROOT
HETATM    1  N1  UNK     1      15.631   9.422   9.172  1.00  0.00     0.095 N 
HETATM    2  N2  UNK     1      16.960  11.669   8.013  1.00  0.00    -0.375 N 
HETATM    3  C1  UNK     1      14.855  10.549   8.639  1.00  0.00     0.292 C 
HETATM    4  C2  UNK     1      16.896   9.908   9.733  1.00  0.00     0.292 C 
HETATM    5  C3  UNK     1      15.629  11.274   7.534  1.00  0.00     0.153 C 
HETATM    6  C4  UNK     1      17.738  10.612   8.666  1.00  0.00     0.153 C 
ENDROOT
BRANCH   1   7
HETATM    7  C5  UNK     1      14.860   8.705  10.187  1.00  0.00     0.312 C 
BRANCH   7   8
HETATM    8  C7  UNK     1      14.568   7.292   9.770  1.00  0.00    -0.011 A 
HETATM    9  C11 UNK     1      15.469   6.317   9.953  1.00  0.00     0.092 A 
HETATM   10  C16 UNK     1      15.228   4.918   9.561  1.00  0.00     0.288 A 
HETATM   11  O1  UNK     1      14.002   4.636   8.979  1.00  0.00    -0.275 OA
HETATM   12  O4  UNK     1      16.076   4.052   9.744  1.00  0.00    -0.260 OA
HETATM   13  C12 UNK     1      13.035   5.642   8.775  1.00  0.00     0.093 A 
HETATM   14  C8  UNK     1      13.278   6.962   9.151  1.00  0.00     0.006 A 
HETATM   15  C18 UNK     1      11.836   5.243   8.180  1.00  0.00     0.075 A 
HETATM   16  C13 UNK     1      12.266   7.903   8.913  1.00  0.00     0.017 A 
HETATM   17  C19 UNK     1      11.059   7.518   8.318  1.00  0.00     0.038 A 
HETATM   18  C20 UNK     1      10.844   6.191   7.952  1.00  0.00     0.070 A 
BRANCH  18  19
HETATM   19  O3  UNK     1       9.668   5.823   7.375  1.00  0.00    -0.356 OA
HETATM   20  C22 UNK     1       9.494   6.138   5.995  1.00  0.00     0.210 C 
ENDBRANCH  18  19
ENDBRANCH   7   8
ENDBRANCH   1   7
BRANCH   2  21
HETATM   21  C6  UNK     1      17.621  12.701   7.338  1.00  0.00     0.064 A 
HETATM   22  C10 UNK     1      18.463  12.416   6.244  1.00  0.00     0.032 A 
HETATM   23  C15 UNK     1      19.130  13.435   5.564  1.00  0.00     0.002 A 
HETATM   24  C17 UNK     1      18.968  14.762   5.962  1.00  0.00     0.003 A 
HETATM   25  C14 UNK     1      18.139  15.069   7.041  1.00  0.00     0.039 A 
HETATM   26  C9  UNK     1      17.473  14.050   7.721  1.00  0.00     0.094 A 
BRANCH  26  27
HETATM   27  O2  UNK     1      16.668  14.372   8.774  1.00  0.00    -0.354 OA
HETATM   28  C21 UNK     1      15.436  15.022   8.472  1.00  0.00     0.210 C 
ENDBRANCH  26  27
ENDBRANCH   2  21
TORSDOF 5
ENDMDL
MODEL 10
REMARK VINA RESULT:      -7.9     11.287     13.828
REMARK  5 active torsions:
REMARK  status: ('A' for Active; 'I' for Inactive)
REMARK    1  A    between atoms: C9_15  and  O2_2 
REMARK    2  A    between atoms: C20_26  and  O3_3 
REMARK    3  A    between atoms: C5_11  and  N1_5 
REMARK    4  A    between atoms: C6_12  and  N2_6 
REMARK    5  A    between atoms: C5_11  and  C7_13 
ROOT
HETATM    1  N1  UNK     1      32.992  -7.623  33.897  1.00  0.00     0.095 N 
HETATM    2  N2  UNK     1      31.447  -6.581  36.061  1.00  0.00    -0.375 N 
HETATM    3  C1  UNK     1      31.525  -7.622  33.829  1.00  0.00     0.292 C 
HETATM    4  C2  UNK     1      33.427  -7.822  35.284  1.00  0.00     0.292 C 
HETATM    5  C3  UNK     1      30.937  -6.499  34.687  1.00  0.00     0.153 C 
HETATM    6  C4  UNK     1      32.901  -6.707  36.192  1.00  0.00     0.153 C 
ENDROOT
BRANCH   1   7
HETATM    7  C5  UNK     1      33.544  -8.664  33.030  1.00  0.00     0.312 C 
BRANCH   7   8
HETATM    8  C7  UNK     1      33.691  -8.189  31.614  1.00  0.00    -0.011 A 
HETATM    9  C11 UNK     1      34.689  -7.369  31.259  1.00  0.00     0.092 A 
HETATM   10  C16 UNK     1      34.874  -6.878  29.883  1.00  0.00     0.288 A 
HETATM   11  O1  UNK     1      33.954  -7.306  28.940  1.00  0.00    -0.275 OA
HETATM   12  O4  UNK     1      35.800  -6.127  29.595  1.00  0.00    -0.260 OA
HETATM   13  C12 UNK     1      32.894  -8.169  29.283  1.00  0.00     0.093 A 
HETATM   14  C8  UNK     1      32.731  -8.626  30.591  1.00  0.00     0.006 A 
HETATM   15  C18 UNK     1      32.026  -8.535  28.251  1.00  0.00     0.075 A 
HETATM   16  C13 UNK     1      31.651  -9.481  30.852  1.00  0.00     0.017 A 
HETATM   17  C19 UNK     1      30.774  -9.857  29.828  1.00  0.00     0.038 A 
HETATM   18  C20 UNK     1      30.961  -9.384  28.531  1.00  0.00     0.070 A 
BRANCH  18  19
HETATM   19  O3  UNK     1      30.105  -9.754  27.540  1.00  0.00    -0.356 OA
HETATM   20  C22 UNK     1      28.801 -10.179  27.931  1.00  0.00     0.210 C 
ENDBRANCH  18  19
ENDBRANCH   7   8
ENDBRANCH   1   7
BRANCH   2  21
HETATM   21  C6  UNK     1      30.711  -5.955  37.074  1.00  0.00     0.064 A 
HETATM   22  C10 UNK     1      30.753  -4.554  37.226  1.00  0.00     0.032 A 
HETATM   23  C15 UNK     1      30.027  -3.917  38.232  1.00  0.00     0.002 A 
HETATM   24  C17 UNK     1      29.241  -4.668  39.107  1.00  0.00     0.003 A 
HETATM   25  C14 UNK     1      29.183  -6.055  38.976  1.00  0.00     0.039 A 
HETATM   26  C9  UNK     1      29.910  -6.691  37.971  1.00  0.00     0.094 A 
BRANCH  26  27
HETATM   27  O2  UNK     1      29.840  -8.049  37.860  1.00  0.00    -0.354 OA
HETATM   28  C21 UNK     1      28.544  -8.620  37.701  1.00  0.00     0.210 C 
ENDBRANCH  26  27
ENDBRANCH   2  21
TORSDOF 5
ENDMDL
