MODEL 1
REMARK VINA RESULT:     -10.4      0.000      0.000
REMARK  5 active torsions:
REMARK  status: ('A' for Active; 'I' for Inactive)
REMARK    1  A    between atoms: C1_10  and  N1_8 
REMARK       I    between atoms: C7_16  and  N1_8 
REMARK       I    between atoms: C11_20  and  N2_9 
REMARK    2  A    between atoms: C2_11  and  N2_9 
REMARK    3  A    between atoms: C4_13  and  C7_16 
REMARK    4  A    between atoms: C11_20  and  C8_17 
REMARK    5  A    between atoms: C14_23  and  C24_33 
ROOT
HETATM    1  C1  UNK     1      24.998 -10.112  36.681  1.00  0.00     0.062 A 
HETATM    2  C2  UNK     1      23.653  -9.982  36.381  1.00  0.00     0.062 A 
HETATM    3  C9  UNK     1      25.651 -11.328  36.547  1.00  0.00     0.032 A 
HETATM    4  C10 UNK     1      22.940 -11.096  35.935  1.00  0.00     0.032 A 
HETATM    5  C18 UNK     1      24.939 -12.441  36.102  1.00  0.00     0.002 A 
HETATM    6  C19 UNK     1      23.584 -12.325  35.796  1.00  0.00     0.002 A 
ENDROOT
BRANCH   1   7
HETATM    7  N1  UNK     1      25.742  -8.996  37.135  1.00  0.00    -0.321 N 
HETATM    8  C7  UNK     1      25.593  -8.310  38.333  1.00  0.00     0.262 C 
HETATM    9  O2  UNK     1      24.788  -8.529  39.238  1.00  0.00    -0.267 OA
HETATM   10  H2  UNK     1      26.487  -8.690  36.522  1.00  0.00     0.169 HD
BRANCH   8  11
HETATM   11  C4  UNK     1      26.548  -7.203  38.460  1.00  0.00     0.108 A 
HETATM   12  C12 UNK     1      26.110  -5.815  38.728  1.00  0.00     0.304 A 
HETATM   13  O1  UNK     1      27.110  -4.851  38.828  1.00  0.00    -0.274 OA
HETATM   14  O4  UNK     1      24.926  -5.521  38.857  1.00  0.00    -0.259 OA
HETATM   15  C5  UNK     1      28.473  -5.177  38.683  1.00  0.00     0.089 A 
HETATM   16  C15 UNK     1      29.401  -4.146  38.800  1.00  0.00     0.038 A 
HETATM   17  C3  UNK     1      28.863  -6.489  38.432  1.00  0.00    -0.001 A 
HETATM   18  C23 UNK     1      30.756  -4.438  38.662  1.00  0.00     0.003 A 
HETATM   19  C22 UNK     1      31.168  -5.748  38.409  1.00  0.00     0.001 A 
HETATM   20  C13 UNK     1      30.224  -6.774  38.294  1.00  0.00     0.014 A 
HETATM   21  C6  UNK     1      27.841  -7.519  38.322  1.00  0.00     0.037 A 
ENDBRANCH   8  11
ENDBRANCH   1   7
BRANCH   2  22
HETATM   22  N2  UNK     1      22.984  -8.761  36.512  1.00  0.00    -0.321 N 
HETATM   23  C11 UNK     1      21.862  -8.474  37.297  1.00  0.00     0.256 C 
HETATM   24  O3  UNK     1      21.251  -9.253  38.021  1.00  0.00    -0.267 OA
HETATM   25  H3  UNK     1      23.405  -7.986  36.017  1.00  0.00     0.169 HD
BRANCH  23  26
HETATM   26  C8  UNK     1      21.361  -7.078  37.203  1.00  0.00     0.032 A 
HETATM   27  C16 UNK     1      20.443  -6.764  36.223  1.00  0.00     0.018 A 
HETATM   28  C20 UNK     1      19.972  -5.455  36.136  1.00  0.00     0.017 A 
HETATM   29  C14 UNK     1      20.429  -4.488  37.032  1.00  0.00     0.048 A 
HETATM   30  C21 UNK     1      21.357  -4.832  38.015  1.00  0.00     0.017 A 
HETATM   31  C17 UNK     1      21.829  -6.142  38.101  1.00  0.00     0.018 A 
BRANCH  29  32
HETATM   32  C24 UNK     1      19.925  -3.088  36.938  1.00  0.00     0.417 C 
HETATM   33  F1  UNK     1      18.832  -2.952  36.131  1.00  0.00    -0.166 F 
HETATM   34  F2  UNK     1      19.548  -2.560  38.141  1.00  0.00    -0.166 F 
HETATM   35  F3  UNK     1      20.858  -2.226  36.438  1.00  0.00    -0.166 F 
ENDBRANCH  29  32
ENDBRANCH  23  26
ENDBRANCH   2  22
TORSDOF 5
ENDMDL
MODEL 2
REMARK VINA RESULT:      -9.6      5.712      8.783
REMARK  5 active torsions:
REMARK  status: ('A' for Active; 'I' for Inactive)
REMARK    1  A    between atoms: C1_10  and  N1_8 
REMARK       I    between atoms: C7_16  and  N1_8 
REMARK       I    between atoms: C11_20  and  N2_9 
REMARK    2  A    between atoms: C2_11  and  N2_9 
REMARK    3  A    between atoms: C4_13  and  C7_16 
REMARK    4  A    between atoms: C11_20  and  C8_17 
REMARK    5  A    between atoms: C14_23  and  C24_33 
ROOT
HETATM    1  C1  UNK     1      33.630  -6.743  35.408  1.00  0.00     0.062 A 
HETATM    2  C2  UNK     1      33.557  -6.626  34.030  1.00  0.00     0.062 A 
HETATM    3  C9  UNK     1      34.850  -6.781  36.064  1.00  0.00     0.032 A 
HETATM    4  C10 UNK     1      34.737  -6.544  33.287  1.00  0.00     0.032 A 
HETATM    5  C18 UNK     1      36.028  -6.700  35.323  1.00  0.00     0.002 A 
HETATM    6  C19 UNK     1      35.971  -6.581  33.934  1.00  0.00     0.002 A 
ENDROOT
BRANCH   1   7
HETATM    7  N1  UNK     1      32.447  -6.828  36.182  1.00  0.00    -0.321 N 
HETATM    8  C7  UNK     1      31.994  -5.928  37.138  1.00  0.00     0.262 C 
HETATM    9  O2  UNK     1      32.524  -4.881  37.505  1.00  0.00    -0.267 OA
HETATM   10  H2  UNK     1      31.855  -7.626  35.988  1.00  0.00     0.169 HD
BRANCH   8  11
HETATM   11  C4  UNK     1      30.722  -6.349  37.736  1.00  0.00     0.108 A 
HETATM   12  C12 UNK     1      29.677  -5.375  38.125  1.00  0.00     0.304 A 
HETATM   13  O1  UNK     1      28.513  -5.896  38.683  1.00  0.00    -0.274 OA
HETATM   14  O4  UNK     1      29.823  -4.168  37.965  1.00  0.00    -0.259 OA
HETATM   15  C5  UNK     1      28.333  -7.281  38.870  1.00  0.00     0.089 A 
HETATM   16  C15 UNK     1      27.134  -7.708  39.435  1.00  0.00     0.038 A 
HETATM   17  C3  UNK     1      29.328  -8.180  38.497  1.00  0.00    -0.001 A 
HETATM   18  C23 UNK     1      26.928  -9.072  39.631  1.00  0.00     0.003 A 
HETATM   19  C22 UNK     1      27.915  -9.989  39.265  1.00  0.00     0.001 A 
HETATM   20  C13 UNK     1      29.115  -9.545  38.698  1.00  0.00     0.014 A 
HETATM   21  C6  UNK     1      30.557  -7.665  37.911  1.00  0.00     0.037 A 
ENDBRANCH   8  11
ENDBRANCH   1   7
BRANCH   2  22
HETATM   22  N2  UNK     1      32.332  -6.587  33.358  1.00  0.00    -0.321 N 
HETATM   23  C11 UNK     1      31.368  -5.574  33.383  1.00  0.00     0.256 C 
HETATM   24  O3  UNK     1      31.423  -4.521  34.008  1.00  0.00    -0.267 OA
HETATM   25  H3  UNK     1      32.157  -7.369  32.739  1.00  0.00     0.169 HD
BRANCH  23  26
HETATM   26  C8  UNK     1      30.146  -5.839  32.579  1.00  0.00     0.032 A 
HETATM   27  C16 UNK     1      28.959  -6.088  33.235  1.00  0.00     0.018 A 
HETATM   28  C20 UNK     1      27.812  -6.334  32.481  1.00  0.00     0.017 A 
HETATM   29  C14 UNK     1      27.879  -6.327  31.088  1.00  0.00     0.048 A 
HETATM   30  C21 UNK     1      29.092  -6.073  30.449  1.00  0.00     0.017 A 
HETATM   31  C17 UNK     1      30.239  -5.826  31.203  1.00  0.00     0.018 A 
BRANCH  29  32
HETATM   32  C24 UNK     1      26.652  -6.592  30.282  1.00  0.00     0.417 C 
HETATM   33  F1  UNK     1      25.501  -6.580  31.017  1.00  0.00    -0.166 F 
HETATM   34  F2  UNK     1      26.446  -5.682  29.283  1.00  0.00    -0.166 F 
HETATM   35  F3  UNK     1      26.681  -7.811  29.666  1.00  0.00    -0.166 F 
ENDBRANCH  29  32
ENDBRANCH  23  26
ENDBRANCH   2  22
TORSDOF 5
ENDMDL
MODEL 3
REMARK VINA RESULT:      -9.4      8.134     11.363
REMARK  5 active torsions:
REMARK  status: ('A' for Active; 'I' for Inactive)
REMARK    1  A    between atoms: C1_10  and  N1_8 
REMARK       I    between atoms: C7_16  and  N1_8 
REMARK       I    between atoms: C11_20  and  N2_9 
REMARK    2  A    between atoms: C2_11  and  N2_9 
REMARK    3  A    between atoms: C4_13  and  C7_16 
REMARK    4  A    between atoms: C11_20  and  C8_17 
REMARK    5  A    between atoms: C14_23  and  C24_33 
ROOT
HETATM    1  C1  UNK     1      34.888  -8.988  31.662  1.00  0.00     0.062 A 
HETATM    2  C2  UNK     1      35.299  -8.540  32.906  1.00  0.00     0.062 A 
HETATM    3  C9  UNK     1      35.736  -9.719  30.844  1.00  0.00     0.032 A 
HETATM    4  C10 UNK     1      36.591  -8.831  33.346  1.00  0.00     0.032 A 
HETATM    5  C18 UNK     1      37.027 -10.009  31.282  1.00  0.00     0.002 A 
HETATM    6  C19 UNK     1      37.455  -9.565  32.533  1.00  0.00     0.002 A 
ENDROOT
BRANCH   1   7
HETATM    7  N1  UNK     1      33.582  -8.705  31.194  1.00  0.00    -0.321 N 
HETATM    8  C7  UNK     1      33.217  -7.830  30.179  1.00  0.00     0.262 C 
HETATM    9  O2  UNK     1      33.948  -7.126  29.484  1.00  0.00    -0.267 OA
HETATM   10  H2  UNK     1      32.837  -9.229  31.636  1.00  0.00     0.169 HD
BRANCH   8  11
HETATM   11  C4  UNK     1      31.764  -7.799  29.970  1.00  0.00     0.108 A 
HETATM   12  C12 UNK     1      31.136  -8.334  28.741  1.00  0.00     0.304 A 
HETATM   13  O1  UNK     1      29.749  -8.248  28.658  1.00  0.00    -0.274 OA
HETATM   14  O4  UNK     1      31.800  -8.831  27.836  1.00  0.00    -0.259 OA
HETATM   15  C5  UNK     1      28.977  -7.681  29.692  1.00  0.00     0.089 A 
HETATM   16  C15 UNK     1      27.596  -7.639  29.520  1.00  0.00     0.038 A 
HETATM   17  C3  UNK     1      29.588  -7.184  30.840  1.00  0.00    -0.001 A 
HETATM   18  C23 UNK     1      26.807  -7.085  30.525  1.00  0.00     0.003 A 
HETATM   19  C22 UNK     1      27.401  -6.581  31.683  1.00  0.00     0.001 A 
HETATM   20  C13 UNK     1      28.790  -6.629  31.842  1.00  0.00     0.014 A 
HETATM   21  C6  UNK     1      31.037  -7.260  30.955  1.00  0.00     0.037 A 
ENDBRANCH   8  11
ENDBRANCH   1   7
BRANCH   2  22
HETATM   22  N2  UNK     1      34.452  -7.802  33.738  1.00  0.00    -0.321 N 
HETATM   23  C11 UNK     1      34.443  -6.418  33.948  1.00  0.00     0.256 C 
HETATM   24  O3  UNK     1      35.187  -5.591  33.433  1.00  0.00    -0.267 OA
HETATM   25  H3  UNK     1      33.728  -8.338  34.199  1.00  0.00     0.169 HD
BRANCH  23  26
HETATM   26  C8  UNK     1      33.433  -5.930  34.923  1.00  0.00     0.032 A 
HETATM   27  C16 UNK     1      32.106  -5.902  34.549  1.00  0.00     0.018 A 
HETATM   28  C20 UNK     1      31.158  -5.446  35.464  1.00  0.00     0.017 A 
HETATM   29  C14 UNK     1      31.559  -5.029  36.734  1.00  0.00     0.048 A 
HETATM   30  C21 UNK     1      32.907  -5.068  37.087  1.00  0.00     0.017 A 
HETATM   31  C17 UNK     1      33.856  -5.524  36.171  1.00  0.00     0.018 A 
BRANCH  29  32
HETATM   32  C24 UNK     1      30.545  -4.541  37.712  1.00  0.00     0.417 C 
HETATM   33  F1  UNK     1      29.336  -5.168  37.606  1.00  0.00    -0.166 F 
HETATM   34  F2  UNK     1      30.918  -4.706  39.016  1.00  0.00    -0.166 F 
HETATM   35  F3  UNK     1      30.279  -3.209  37.573  1.00  0.00    -0.166 F 
ENDBRANCH  29  32
ENDBRANCH  23  26
ENDBRANCH   2  22
TORSDOF 5
ENDMDL
MODEL 4
REMARK VINA RESULT:      -9.4      5.598      8.987
REMARK  5 active torsions:
REMARK  status: ('A' for Active; 'I' for Inactive)
REMARK    1  A    between atoms: C1_10  and  N1_8 
REMARK       I    between atoms: C7_16  and  N1_8 
REMARK       I    between atoms: C11_20  and  N2_9 
REMARK    2  A    between atoms: C2_11  and  N2_9 
REMARK    3  A    between atoms: C4_13  and  C7_16 
REMARK    4  A    between atoms: C11_20  and  C8_17 
REMARK    5  A    between atoms: C14_23  and  C24_33 
ROOT
HETATM    1  C1  UNK     1      30.216  -6.916  37.070  1.00  0.00     0.062 A 
HETATM    2  C2  UNK     1      31.004  -6.838  35.933  1.00  0.00     0.062 A 
HETATM    3  C9  UNK     1      30.655  -6.416  38.286  1.00  0.00     0.032 A 
HETATM    4  C10 UNK     1      32.265  -6.244  36.014  1.00  0.00     0.032 A 
HETATM    5  C18 UNK     1      31.915  -5.824  38.367  1.00  0.00     0.002 A 
HETATM    6  C19 UNK     1      32.720  -5.738  37.231  1.00  0.00     0.002 A 
ENDROOT
BRANCH   1   7
HETATM    7  N1  UNK     1      28.934  -7.513  37.013  1.00  0.00    -0.321 N 
HETATM    8  C7  UNK     1      28.527  -8.702  37.604  1.00  0.00     0.262 C 
HETATM    9  O2  UNK     1      29.192  -9.474  38.294  1.00  0.00    -0.267 OA
HETATM   10  H2  UNK     1      28.231  -6.991  36.504  1.00  0.00     0.169 HD
BRANCH   8  11
HETATM   11  C4  UNK     1      27.117  -9.004  37.328  1.00  0.00     0.108 A 
HETATM   12  C12 UNK     1      26.033  -8.046  37.639  1.00  0.00     0.304 A 
HETATM   13  O1  UNK     1      24.736  -8.446  37.330  1.00  0.00    -0.274 OA
HETATM   14  O4  UNK     1      26.260  -6.951  38.143  1.00  0.00    -0.259 OA
HETATM   15  C5  UNK     1      24.464  -9.701  36.750  1.00  0.00     0.089 A 
HETATM   16  C15 UNK     1      23.135 -10.014  36.476  1.00  0.00     0.038 A 
HETATM   17  C3  UNK     1      25.499 -10.588  36.465  1.00  0.00    -0.001 A 
HETATM   18  C23 UNK     1      22.835 -11.247  35.902  1.00  0.00     0.003 A 
HETATM   19  C22 UNK     1      23.859 -12.150  35.610  1.00  0.00     0.001 A 
HETATM   20  C13 UNK     1      25.190 -11.822  35.890  1.00  0.00     0.014 A 
HETATM   21  C6  UNK     1      26.865 -10.197  36.776  1.00  0.00     0.037 A 
ENDBRANCH   8  11
ENDBRANCH   1   7
BRANCH   2  22
HETATM   22  N2  UNK     1      30.571  -7.339  34.702  1.00  0.00    -0.321 N 
HETATM   23  C11 UNK     1      29.407  -7.008  33.999  1.00  0.00     0.256 C 
HETATM   24  O3  UNK     1      28.543  -6.208  34.341  1.00  0.00    -0.267 OA
HETATM   25  H3  UNK     1      31.212  -7.977  34.249  1.00  0.00     0.169 HD
BRANCH  23  26
HETATM   26  C8  UNK     1      29.209  -7.738  32.720  1.00  0.00     0.032 A 
HETATM   27  C16 UNK     1      28.219  -7.315  31.858  1.00  0.00     0.018 A 
HETATM   28  C20 UNK     1      28.034  -7.998  30.657  1.00  0.00     0.017 A 
HETATM   29  C14 UNK     1      28.844  -9.089  30.344  1.00  0.00     0.048 A 
HETATM   30  C21 UNK     1      29.839  -9.497  31.232  1.00  0.00     0.017 A 
HETATM   31  C17 UNK     1      30.023  -8.814  32.435  1.00  0.00     0.018 A 
BRANCH  29  32
HETATM   32  C24 UNK     1      28.645  -9.821  29.060  1.00  0.00     0.417 C 
HETATM   33  F1  UNK     1      27.336  -9.919  28.683  1.00  0.00    -0.166 F 
HETATM   34  F2  UNK     1      29.279  -9.241  27.996  1.00  0.00    -0.166 F 
HETATM   35  F3  UNK     1      29.110 -11.103  29.108  1.00  0.00    -0.166 F 
ENDBRANCH  29  32
ENDBRANCH  23  26
ENDBRANCH   2  22
TORSDOF 5
ENDMDL
MODEL 5
REMARK VINA RESULT:      -9.4      7.672      9.625
REMARK  5 active torsions:
REMARK  status: ('A' for Active; 'I' for Inactive)
REMARK    1  A    between atoms: C1_10  and  N1_8 
REMARK       I    between atoms: C7_16  and  N1_8 
REMARK       I    between atoms: C11_20  and  N2_9 
REMARK    2  A    between atoms: C2_11  and  N2_9 
REMARK    3  A    between atoms: C4_13  and  C7_16 
REMARK    4  A    between atoms: C11_20  and  C8_17 
REMARK    5  A    between atoms: C14_23  and  C24_33 
ROOT
HETATM    1  C1  UNK     1      30.333  -8.948  30.011  1.00  0.00     0.062 A 
HETATM    2  C2  UNK     1      29.173  -8.716  30.731  1.00  0.00     0.062 A 
HETATM    3  C9  UNK     1      30.292  -9.472  28.728  1.00  0.00     0.032 A 
HETATM    4  C10 UNK     1      27.937  -9.013  30.152  1.00  0.00     0.032 A 
HETATM    5  C18 UNK     1      29.058  -9.769  28.150  1.00  0.00     0.002 A 
HETATM    6  C19 UNK     1      27.881  -9.540  28.862  1.00  0.00     0.002 A 
ENDROOT
BRANCH   1   7
HETATM    7  N1  UNK     1      31.597  -8.655  30.576  1.00  0.00    -0.321 N 
HETATM    8  C7  UNK     1      32.490  -7.665  30.187  1.00  0.00     0.262 C 
HETATM    9  O2  UNK     1      32.365  -6.846  29.278  1.00  0.00    -0.267 OA
HETATM   10  H2  UNK     1      31.860  -9.219  31.375  1.00  0.00     0.169 HD
BRANCH   8  11
HETATM   11  C4  UNK     1      33.704  -7.659  31.011  1.00  0.00     0.108 A 
HETATM   12  C12 UNK     1      35.013  -8.107  30.483  1.00  0.00     0.304 A 
HETATM   13  O1  UNK     1      36.092  -8.055  31.361  1.00  0.00    -0.274 OA
HETATM   14  O4  UNK     1      35.146  -8.504  29.331  1.00  0.00    -0.259 OA
HETATM   15  C5  UNK     1      35.951  -7.599  32.687  1.00  0.00     0.089 A 
HETATM   16  C15 UNK     1      37.088  -7.582  33.490  1.00  0.00     0.038 A 
HETATM   17  C3  UNK     1      34.711  -7.182  33.163  1.00  0.00    -0.001 A 
HETATM   18  C23 UNK     1      36.980  -7.135  34.805  1.00  0.00     0.003 A 
HETATM   19  C22 UNK     1      35.744  -6.715  35.302  1.00  0.00     0.001 A 
HETATM   20  C13 UNK     1      34.611  -6.737  34.483  1.00  0.00     0.014 A 
HETATM   21  C6  UNK     1      33.564  -7.224  32.269  1.00  0.00     0.037 A 
ENDBRANCH   8  11
ENDBRANCH   1   7
BRANCH   2  22
HETATM   22  N2  UNK     1      29.203  -8.189  32.025  1.00  0.00    -0.321 N 
HETATM   23  C11 UNK     1      29.557  -6.894  32.420  1.00  0.00     0.256 C 
HETATM   24  O3  UNK     1      29.910  -5.973  31.691  1.00  0.00    -0.267 OA
HETATM   25  H3  UNK     1      28.876  -8.814  32.750  1.00  0.00     0.169 HD
BRANCH  23  26
HETATM   26  C8  UNK     1      29.517  -6.643  33.884  1.00  0.00     0.032 A 
HETATM   27  C16 UNK     1      30.607  -6.051  34.488  1.00  0.00     0.018 A 
HETATM   28  C20 UNK     1      30.568  -5.814  35.861  1.00  0.00     0.017 A 
HETATM   29  C14 UNK     1      29.442  -6.173  36.600  1.00  0.00     0.048 A 
HETATM   30  C21 UNK     1      28.352  -6.770  35.966  1.00  0.00     0.017 A 
HETATM   31  C17 UNK     1      28.391  -7.008  34.591  1.00  0.00     0.018 A 
BRANCH  29  32
HETATM   32  C24 UNK     1      29.402  -5.920  38.069  1.00  0.00     0.417 C 
HETATM   33  F1  UNK     1      28.832  -6.935  38.784  1.00  0.00    -0.166 F 
HETATM   34  F2  UNK     1      30.636  -5.742  38.628  1.00  0.00    -0.166 F 
HETATM   35  F3  UNK     1      28.689  -4.801  38.391  1.00  0.00    -0.166 F 
ENDBRANCH  29  32
ENDBRANCH  23  26
ENDBRANCH   2  22
TORSDOF 5
ENDMDL
MODEL 6
REMARK VINA RESULT:      -9.4      6.221      9.644
REMARK  5 active torsions:
REMARK  status: ('A' for Active; 'I' for Inactive)
REMARK    1  A    between atoms: C1_10  and  N1_8 
REMARK       I    between atoms: C7_16  and  N1_8 
REMARK       I    between atoms: C11_20  and  N2_9 
REMARK    2  A    between atoms: C2_11  and  N2_9 
REMARK    3  A    between atoms: C4_13  and  C7_16 
REMARK    4  A    between atoms: C11_20  and  C8_17 
REMARK    5  A    between atoms: C14_23  and  C24_33 
ROOT
HETATM    1  C1  UNK     1      33.362  -6.663  34.660  1.00  0.00     0.062 A 
HETATM    2  C2  UNK     1      33.287  -6.744  36.040  1.00  0.00     0.062 A 
HETATM    3  C9  UNK     1      34.476  -6.133  34.028  1.00  0.00     0.032 A 
HETATM    4  C10 UNK     1      34.356  -6.283  36.811  1.00  0.00     0.032 A 
HETATM    5  C18 UNK     1      35.543  -5.671  34.798  1.00  0.00     0.002 A 
HETATM    6  C19 UNK     1      35.483  -5.747  36.190  1.00  0.00     0.002 A 
ENDROOT
BRANCH   1   7
HETATM    7  N1  UNK     1      32.290  -7.124  33.856  1.00  0.00    -0.321 N 
HETATM    8  C7  UNK     1      31.857  -8.433  33.693  1.00  0.00     0.262 C 
HETATM    9  O2  UNK     1      32.312  -9.453  34.208  1.00  0.00    -0.267 OA
HETATM   10  H2  UNK     1      31.767  -6.405  33.373  1.00  0.00     0.169 HD
BRANCH   8  11
HETATM   11  C4  UNK     1      30.712  -8.527  32.779  1.00  0.00     0.108 A 
HETATM   12  C12 UNK     1      29.387  -7.962  33.121  1.00  0.00     0.304 A 
HETATM   13  O1  UNK     1      28.379  -8.115  32.173  1.00  0.00    -0.274 OA
HETATM   14  O4  UNK     1      29.181  -7.386  34.184  1.00  0.00    -0.259 OA
HETATM   15  C5  UNK     1      28.604  -8.773  30.948  1.00  0.00     0.089 A 
HETATM   16  C15 UNK     1      27.534  -8.876  30.062  1.00  0.00     0.038 A 
HETATM   17  C3  UNK     1      29.858  -9.297  30.647  1.00  0.00    -0.001 A 
HETATM   18  C23 UNK     1      27.727  -9.522  28.843  1.00  0.00     0.003 A 
HETATM   19  C22 UNK     1      28.977 -10.055  28.523  1.00  0.00     0.001 A 
HETATM   20  C13 UNK     1      30.042  -9.944  29.423  1.00  0.00     0.014 A 
HETATM   21  C6  UNK     1      30.932  -9.153  31.618  1.00  0.00     0.037 A 
ENDBRANCH   8  11
ENDBRANCH   1   7
BRANCH   2  22
HETATM   22  N2  UNK     1      32.168  -7.276  36.687  1.00  0.00    -0.321 N 
HETATM   23  C11 UNK     1      31.070  -6.588  37.215  1.00  0.00     0.256 C 
HETATM   24  O3  UNK     1      30.888  -5.375  37.206  1.00  0.00    -0.267 OA
HETATM   25  H3  UNK     1      32.134  -8.287  36.724  1.00  0.00     0.169 HD
BRANCH  23  26
HETATM   26  C8  UNK     1      30.044  -7.438  37.873  1.00  0.00     0.032 A 
HETATM   27  C16 UNK     1      29.019  -6.828  38.565  1.00  0.00     0.018 A 
HETATM   28  C20 UNK     1      28.055  -7.626  39.181  1.00  0.00     0.017 A 
HETATM   29  C14 UNK     1      28.138  -9.015  39.091  1.00  0.00     0.048 A 
HETATM   30  C21 UNK     1      29.184  -9.607  38.384  1.00  0.00     0.017 A 
HETATM   31  C17 UNK     1      30.149  -8.809  37.768  1.00  0.00     0.018 A 
BRANCH  29  32
HETATM   32  C24 UNK     1      27.107  -9.867  39.750  1.00  0.00     0.417 C 
HETATM   33  F1  UNK     1      27.442 -10.249  41.018  1.00  0.00    -0.166 F 
HETATM   34  F2  UNK     1      25.890  -9.259  39.872  1.00  0.00    -0.166 F 
HETATM   35  F3  UNK     1      26.870 -11.027  39.070  1.00  0.00    -0.166 F 
ENDBRANCH  29  32
ENDBRANCH  23  26
ENDBRANCH   2  22
TORSDOF 5
ENDMDL
MODEL 7
REMARK VINA RESULT:      -9.3      5.918      8.978
REMARK  5 active torsions:
REMARK  status: ('A' for Active; 'I' for Inactive)
REMARK    1  A    between atoms: C1_10  and  N1_8 
REMARK       I    between atoms: C7_16  and  N1_8 
REMARK       I    between atoms: C11_20  and  N2_9 
REMARK    2  A    between atoms: C2_11  and  N2_9 
REMARK    3  A    between atoms: C4_13  and  C7_16 
REMARK    4  A    between atoms: C11_20  and  C8_17 
REMARK    5  A    between atoms: C14_23  and  C24_33 
ROOT
HETATM    1  C1  UNK     1      33.927  -7.067  34.918  1.00  0.00     0.062 A 
HETATM    2  C2  UNK     1      33.771  -6.839  33.561  1.00  0.00     0.062 A 
HETATM    3  C9  UNK     1      35.185  -7.147  35.495  1.00  0.00     0.032 A 
HETATM    4  C10 UNK     1      34.902  -6.687  32.758  1.00  0.00     0.032 A 
HETATM    5  C18 UNK     1      36.316  -6.996  34.692  1.00  0.00     0.002 A 
HETATM    6  C19 UNK     1      36.174  -6.766  33.324  1.00  0.00     0.002 A 
ENDROOT
BRANCH   1   7
HETATM    7  N1  UNK     1      32.795  -7.224  35.753  1.00  0.00    -0.321 N 
HETATM    8  C7  UNK     1      32.178  -8.411  36.130  1.00  0.00     0.262 C 
HETATM    9  O2  UNK     1      32.488  -9.559  35.816  1.00  0.00    -0.267 OA
HETATM   10  H2  UNK     1      32.415  -6.369  36.140  1.00  0.00     0.169 HD
BRANCH   8  11
HETATM   11  C4  UNK     1      31.026  -8.182  37.009  1.00  0.00     0.108 A 
HETATM   12  C12 UNK     1      31.081  -7.233  38.145  1.00  0.00     0.304 A 
HETATM   13  O1  UNK     1      29.924  -7.102  38.907  1.00  0.00    -0.274 OA
HETATM   14  O4  UNK     1      32.093  -6.591  38.405  1.00  0.00    -0.259 OA
HETATM   15  C5  UNK     1      28.755  -7.834  38.616  1.00  0.00     0.089 A 
HETATM   16  C15 UNK     1      27.647  -7.636  39.435  1.00  0.00     0.038 A 
HETATM   17  C3  UNK     1      28.725  -8.720  37.543  1.00  0.00    -0.001 A 
HETATM   18  C23 UNK     1      26.477  -8.344  39.171  1.00  0.00     0.003 A 
HETATM   19  C22 UNK     1      26.427  -9.240  38.101  1.00  0.00     0.001 A 
HETATM   20  C13 UNK     1      27.549  -9.428  37.287  1.00  0.00     0.014 A 
HETATM   21  C6  UNK     1      29.919  -8.879  36.728  1.00  0.00     0.037 A 
ENDBRANCH   8  11
ENDBRANCH   1   7
BRANCH   2  22
HETATM   22  N2  UNK     1      32.507  -6.757  32.970  1.00  0.00    -0.321 N 
HETATM   23  C11 UNK     1      31.513  -5.797  33.192  1.00  0.00     0.256 C 
HETATM   24  O3  UNK     1      31.571  -4.840  33.957  1.00  0.00    -0.267 OA
HETATM   25  H3  UNK     1      32.320  -7.450  32.257  1.00  0.00     0.169 HD
BRANCH  23  26
HETATM   26  C8  UNK     1      30.254  -5.996  32.427  1.00  0.00     0.032 A 
HETATM   27  C16 UNK     1      30.299  -5.955  31.049  1.00  0.00     0.018 A 
HETATM   28  C20 UNK     1      29.119  -6.145  30.331  1.00  0.00     0.017 A 
HETATM   29  C14 UNK     1      27.920  -6.372  31.007  1.00  0.00     0.048 A 
HETATM   30  C21 UNK     1      27.902  -6.409  32.401  1.00  0.00     0.017 A 
HETATM   31  C17 UNK     1      29.083  -6.219  33.120  1.00  0.00     0.018 A 
BRANCH  29  32
HETATM   32  C24 UNK     1      26.658  -6.573  30.239  1.00  0.00     0.417 C 
HETATM   33  F1  UNK     1      26.467  -5.651  29.250  1.00  0.00    -0.166 F 
HETATM   34  F2  UNK     1      26.586  -7.786  29.614  1.00  0.00    -0.166 F 
HETATM   35  F3  UNK     1      25.546  -6.501  31.027  1.00  0.00    -0.166 F 
ENDBRANCH  29  32
ENDBRANCH  23  26
ENDBRANCH   2  22
TORSDOF 5
ENDMDL
MODEL 8
REMARK VINA RESULT:      -9.2      6.634      8.818
REMARK  5 active torsions:
REMARK  status: ('A' for Active; 'I' for Inactive)
REMARK    1  A    between atoms: C1_10  and  N1_8 
REMARK       I    between atoms: C7_16  and  N1_8 
REMARK       I    between atoms: C11_20  and  N2_9 
REMARK    2  A    between atoms: C2_11  and  N2_9 
REMARK    3  A    between atoms: C4_13  and  C7_16 
REMARK    4  A    between atoms: C11_20  and  C8_17 
REMARK    5  A    between atoms: C14_23  and  C24_33 
ROOT
HETATM    1  C1  UNK     1      29.218  -7.705  37.244  1.00  0.00     0.062 A 
HETATM    2  C2  UNK     1      28.167  -8.172  36.473  1.00  0.00     0.062 A 
HETATM    3  C9  UNK     1      29.061  -7.448  38.597  1.00  0.00     0.032 A 
HETATM    4  C10 UNK     1      26.925  -8.390  37.070  1.00  0.00     0.032 A 
HETATM    5  C18 UNK     1      27.819  -7.665  39.194  1.00  0.00     0.002 A 
HETATM    6  C19 UNK     1      26.751  -8.136  38.431  1.00  0.00     0.002 A 
ENDROOT
BRANCH   1   7
HETATM    7  N1  UNK     1      30.488  -7.476  36.660  1.00  0.00    -0.321 N 
HETATM    8  C7  UNK     1      31.051  -6.256  36.309  1.00  0.00     0.262 C 
HETATM    9  O2  UNK     1      30.565  -5.132  36.431  1.00  0.00    -0.267 OA
HETATM   10  H2  UNK     1      31.057  -8.301  36.514  1.00  0.00     0.169 HD
BRANCH   8  11
HETATM   11  C4  UNK     1      32.390  -6.410  35.729  1.00  0.00     0.108 A 
HETATM   12  C12 UNK     1      33.620  -6.196  36.525  1.00  0.00     0.304 A 
HETATM   13  O1  UNK     1      34.832  -6.372  35.863  1.00  0.00    -0.274 OA
HETATM   14  O4  UNK     1      33.580  -5.880  37.709  1.00  0.00    -0.259 OA
HETATM   15  C5  UNK     1      34.890  -6.737  34.503  1.00  0.00     0.089 A 
HETATM   16  C15 UNK     1      36.149  -6.891  33.927  1.00  0.00     0.038 A 
HETATM   17  C3  UNK     1      33.721  -6.933  33.773  1.00  0.00    -0.001 A 
HETATM   18  C23 UNK     1      36.238  -7.251  32.584  1.00  0.00     0.003 A 
HETATM   19  C22 UNK     1      35.077  -7.451  31.835  1.00  0.00     0.001 A 
HETATM   20  C13 UNK     1      33.819  -7.293  32.427  1.00  0.00     0.014 A 
HETATM   21  C6  UNK     1      32.439  -6.757  34.437  1.00  0.00     0.037 A 
ENDBRANCH   8  11
ENDBRANCH   1   7
BRANCH   2  22
HETATM   22  N2  UNK     1      28.315  -8.434  35.108  1.00  0.00    -0.321 N 
HETATM   23  C11 UNK     1      28.337  -7.515  34.052  1.00  0.00     0.256 C 
HETATM   24  O3  UNK     1      28.228  -6.296  34.135  1.00  0.00    -0.267 OA
HETATM   25  H3  UNK     1      28.480  -9.404  34.872  1.00  0.00     0.169 HD
BRANCH  23  26
HETATM   26  C8  UNK     1      28.482  -8.107  32.697  1.00  0.00     0.032 A 
HETATM   27  C16 UNK     1      27.754  -7.572  31.655  1.00  0.00     0.018 A 
HETATM   28  C20 UNK     1      27.891  -8.126  30.383  1.00  0.00     0.017 A 
HETATM   29  C14 UNK     1      28.754  -9.203  30.182  1.00  0.00     0.048 A 
HETATM   30  C21 UNK     1      29.480  -9.726  31.252  1.00  0.00     0.017 A 
HETATM   31  C17 UNK     1      29.342  -9.171  32.525  1.00  0.00     0.018 A 
BRANCH  29  32
HETATM   32  C24 UNK     1      28.900  -9.796  28.821  1.00  0.00     0.417 C 
HETATM   33  F1  UNK     1      29.411 -11.063  28.828  1.00  0.00    -0.166 F 
HETATM   34  F2  UNK     1      27.722  -9.893  28.137  1.00  0.00    -0.166 F 
HETATM   35  F3  UNK     1      29.732  -9.071  28.018  1.00  0.00    -0.166 F 
ENDBRANCH  29  32
ENDBRANCH  23  26
ENDBRANCH   2  22
TORSDOF 5
ENDMDL
MODEL 9
REMARK VINA RESULT:      -9.2      3.261      7.153
REMARK  5 active torsions:
REMARK  status: ('A' for Active; 'I' for Inactive)
REMARK    1  A    between atoms: C1_10  and  N1_8 
REMARK       I    between atoms: C7_16  and  N1_8 
REMARK       I    between atoms: C11_20  and  N2_9 
REMARK    2  A    between atoms: C2_11  and  N2_9 
REMARK    3  A    between atoms: C4_13  and  C7_16 
REMARK    4  A    between atoms: C11_20  and  C8_17 
REMARK    5  A    between atoms: C14_23  and  C24_33 
ROOT
HETATM    1  C1  UNK     1      23.708 -10.236  36.387  1.00  0.00     0.062 A 
HETATM    2  C2  UNK     1      25.075 -10.432  36.491  1.00  0.00     0.062 A 
HETATM    3  C9  UNK     1      22.861 -11.261  35.996  1.00  0.00     0.032 A 
HETATM    4  C10 UNK     1      25.611 -11.687  36.196  1.00  0.00     0.032 A 
HETATM    5  C18 UNK     1      23.396 -12.515  35.701  1.00  0.00     0.002 A 
HETATM    6  C19 UNK     1      24.771 -12.728  35.802  1.00  0.00     0.002 A 
ENDROOT
BRANCH   1   7
HETATM    7  N1  UNK     1      23.141  -8.972  36.680  1.00  0.00    -0.321 N 
HETATM    8  C7  UNK     1      22.099  -8.693  37.554  1.00  0.00     0.262 C 
HETATM    9  O2  UNK     1      21.459  -9.482  38.248  1.00  0.00    -0.267 OA
HETATM   10  H2  UNK     1      23.572  -8.182  36.215  1.00  0.00     0.169 HD
BRANCH   8  11
HETATM   11  C4  UNK     1      21.783  -7.260  37.601  1.00  0.00     0.108 A 
HETATM   12  C12 UNK     1      22.669  -6.283  38.272  1.00  0.00     0.304 A 
HETATM   13  O1  UNK     1      22.262  -4.951  38.250  1.00  0.00    -0.274 OA
HETATM   14  O4  UNK     1      23.712  -6.622  38.822  1.00  0.00    -0.259 OA
HETATM   15  C5  UNK     1      21.067  -4.550  37.620  1.00  0.00     0.089 A 
HETATM   16  C15 UNK     1      20.743  -3.196  37.649  1.00  0.00     0.038 A 
HETATM   17  C3  UNK     1      20.249  -5.486  36.994  1.00  0.00    -0.001 A 
HETATM   18  C23 UNK     1      19.569  -2.769  37.034  1.00  0.00     0.003 A 
HETATM   19  C22 UNK     1      18.734  -3.693  36.402  1.00  0.00     0.001 A 
HETATM   20  C13 UNK     1      19.072  -5.050  36.381  1.00  0.00     0.014 A 
HETATM   21  C6  UNK     1      20.648  -6.885  37.001  1.00  0.00     0.037 A 
ENDBRANCH   8  11
ENDBRANCH   1   7
BRANCH   2  22
HETATM   22  N2  UNK     1      25.938  -9.404  36.883  1.00  0.00    -0.321 N 
HETATM   23  C11 UNK     1      26.809  -9.382  37.979  1.00  0.00     0.256 C 
HETATM   24  O3  UNK     1      26.974 -10.273  38.805  1.00  0.00    -0.267 OA
HETATM   25  H3  UNK     1      25.967  -8.607  36.261  1.00  0.00     0.169 HD
BRANCH  23  26
HETATM   26  C8  UNK     1      27.582  -8.125  38.150  1.00  0.00     0.032 A 
HETATM   27  C16 UNK     1      27.658  -7.556  39.404  1.00  0.00     0.018 A 
HETATM   28  C20 UNK     1      28.385  -6.377  39.565  1.00  0.00     0.017 A 
HETATM   29  C14 UNK     1      29.021  -5.795  38.469  1.00  0.00     0.048 A 
HETATM   30  C21 UNK     1      28.930  -6.391  37.212  1.00  0.00     0.017 A 
HETATM   31  C17 UNK     1      28.202  -7.570  37.050  1.00  0.00     0.018 A 
BRANCH  29  32
HETATM   32  C24 UNK     1      29.798  -4.534  38.642  1.00  0.00     0.417 C 
HETATM   33  F1  UNK     1      29.705  -3.683  37.578  1.00  0.00    -0.166 F 
HETATM   34  F2  UNK     1      29.408  -3.794  39.723  1.00  0.00    -0.166 F 
HETATM   35  F3  UNK     1      31.134  -4.759  38.815  1.00  0.00    -0.166 F 
ENDBRANCH  29  32
ENDBRANCH  23  26
ENDBRANCH   2  22
TORSDOF 5
ENDMDL
MODEL 10
REMARK VINA RESULT:      -9.1      7.795     10.435
REMARK  5 active torsions:
REMARK  status: ('A' for Active; 'I' for Inactive)
REMARK    1  A    between atoms: C1_10  and  N1_8 
REMARK       I    between atoms: C7_16  and  N1_8 
REMARK       I    between atoms: C11_20  and  N2_9 
REMARK    2  A    between atoms: C2_11  and  N2_9 
REMARK    3  A    between atoms: C4_13  and  C7_16 
REMARK    4  A    between atoms: C11_20  and  C8_17 
REMARK    5  A    between atoms: C14_23  and  C24_33 
ROOT
HETATM    1  C1  UNK     1      35.615  -8.714  32.975  1.00  0.00     0.062 A 
HETATM    2  C2  UNK     1      35.001  -9.011  31.770  1.00  0.00     0.062 A 
HETATM    3  C9  UNK     1      36.912  -9.124  33.244  1.00  0.00     0.032 A 
HETATM    4  C10 UNK     1      35.703  -9.738  30.806  1.00  0.00     0.032 A 
HETATM    5  C18 UNK     1      37.612  -9.850  32.282  1.00  0.00     0.002 A 
HETATM    6  C19 UNK     1      37.008 -10.157  31.063  1.00  0.00     0.002 A 
ENDROOT
BRANCH   1   7
HETATM    7  N1  UNK     1      34.924  -7.978  33.969  1.00  0.00    -0.321 N 
HETATM    8  C7  UNK     1      34.575  -6.634  33.938  1.00  0.00     0.262 C 
HETATM    9  O2  UNK     1      34.795  -5.814  33.049  1.00  0.00    -0.267 OA
HETATM   10  H2  UNK     1      34.627  -8.510  34.778  1.00  0.00     0.169 HD
BRANCH   8  11
HETATM   11  C4  UNK     1      33.860  -6.220  35.151  1.00  0.00     0.108 A 
HETATM   12  C12 UNK     1      34.573  -5.830  36.388  1.00  0.00     0.304 A 
HETATM   13  O1  UNK     1      33.784  -5.456  37.473  1.00  0.00    -0.274 OA
HETATM   14  O4  UNK     1      35.797  -5.834  36.461  1.00  0.00    -0.259 OA
HETATM   15  C5  UNK     1      32.377  -5.447  37.401  1.00  0.00     0.089 A 
HETATM   16  C15 UNK     1      31.673  -5.057  38.538  1.00  0.00     0.038 A 
HETATM   17  C3  UNK     1      31.727  -5.817  36.227  1.00  0.00    -0.001 A 
HETATM   18  C23 UNK     1      30.281  -5.038  38.496  1.00  0.00     0.003 A 
HETATM   19  C22 UNK     1      29.610  -5.407  37.328  1.00  0.00     0.001 A 
HETATM   20  C13 UNK     1      30.331  -5.796  36.194  1.00  0.00     0.014 A 
HETATM   21  C6  UNK     1      32.524  -6.213  35.076  1.00  0.00     0.037 A 
ENDBRANCH   8  11
ENDBRANCH   1   7
BRANCH   2  22
HETATM   22  N2  UNK     1      33.694  -8.604  31.489  1.00  0.00    -0.321 N 
HETATM   23  C11 UNK     1      33.271  -7.653  30.553  1.00  0.00     0.256 C 
HETATM   24  O3  UNK     1      33.980  -6.997  29.799  1.00  0.00    -0.267 OA
HETATM   25  H3  UNK     1      32.971  -9.101  31.993  1.00  0.00     0.169 HD
BRANCH  23  26
HETATM   26  C8  UNK     1      31.804  -7.416  30.508  1.00  0.00     0.032 A 
HETATM   27  C16 UNK     1      31.122  -7.683  29.339  1.00  0.00     0.018 A 
HETATM   28  C20 UNK     1      29.746  -7.462  29.297  1.00  0.00     0.017 A 
HETATM   29  C14 UNK     1      29.083  -6.979  30.425  1.00  0.00     0.048 A 
HETATM   30  C21 UNK     1      29.796  -6.718  31.595  1.00  0.00     0.017 A 
HETATM   31  C17 UNK     1      31.173  -6.938  31.637  1.00  0.00     0.018 A 
BRANCH  29  32
HETATM   32  C24 UNK     1      27.611  -6.742  30.379  1.00  0.00     0.417 C 
HETATM   33  F1  UNK     1      27.059  -6.489  31.603  1.00  0.00    -0.166 F 
HETATM   34  F2  UNK     1      27.252  -5.677  29.601  1.00  0.00    -0.166 F 
HETATM   35  F3  UNK     1      26.922  -7.809  29.880  1.00  0.00    -0.166 F 
ENDBRANCH  29  32
ENDBRANCH  23  26
ENDBRANCH   2  22
TORSDOF 5
ENDMDL
