MODEL 1
REMARK VINA RESULT:      -9.4      0.000      0.000
REMARK  3 active torsions:
REMARK  status: ('A' for Active; 'I' for Inactive)
REMARK    1  A    between atoms: C6_11  and  N1_4 
REMARK    2  A    between atoms: C11_16  and  N2_5 
REMARK    3  A    between atoms: C6_11  and  N2_5 
ROOT
HETATM    1  N2  UNK     1      17.740   4.595  31.738  1.00  0.00    -0.333 N 
HETATM    2  H11 UNK     1      16.806   4.718  32.124  1.00  0.00     0.168 HD
ENDROOT
BRANCH   1   3
HETATM    3  C11 UNK     1      18.186   3.250  31.732  1.00  0.00     0.036 A 
HETATM    4  C13 UNK     1      18.700   2.713  30.570  1.00  0.00     0.067 A 
HETATM    5  C14 UNK     1      19.135   1.386  30.586  1.00  0.00     0.092 A 
HETATM    6  C12 UNK     1      19.064   0.593  31.733  1.00  0.00     0.004 A 
HETATM    7  O1  UNK     1      19.653   0.877  29.380  1.00  0.00    -0.275 OA
HETATM    8  C16 UNK     1      18.535   1.173  32.893  1.00  0.00     0.017 A 
HETATM    9  C17 UNK     1      19.544  -0.794  31.660  1.00  0.00    -0.043 A 
HETATM   10  C15 UNK     1      18.096   2.502  32.893  1.00  0.00     0.030 A 
HETATM   11  C18 UNK     1      20.033  -1.251  30.498  1.00  0.00     0.090 A 
HETATM   12  C19 UNK     1      19.483  -1.673  32.875  1.00  0.00     0.049 C 
HETATM   13  C20 UNK     1      20.114  -0.427  29.280  1.00  0.00     0.288 A 
HETATM   14  O2  UNK     1      20.567  -0.880  28.235  1.00  0.00    -0.260 OA
ENDBRANCH   1   3
BRANCH   1  15
HETATM   15  C6  UNK     1      18.398   5.764  31.462  1.00  0.00     0.179 C 
HETATM   16  S1  UNK     1      19.049   6.022  29.937  1.00  0.00    -0.040 SA
BRANCH  15  17
HETATM   17  N1  UNK     1      18.468   6.734  32.398  1.00  0.00    -0.319 N 
HETATM   18  C1  UNK     1      19.606   6.932  33.322  1.00  0.00     0.093 C 
HETATM   19  C2  UNK     1      19.363   8.289  34.021  1.00  0.00     0.066 C 
HETATM   20  C5  UNK     1      19.701   5.790  34.334  1.00  0.00     0.033 C 
HETATM   21  C3  UNK     1      17.960   8.612  33.608  1.00  0.00    -0.029 A 
HETATM   22  C4  UNK     1      17.494   7.712  32.647  1.00  0.00     0.043 A 
HETATM   23  C7  UNK     1      17.178   9.676  34.026  1.00  0.00     0.009 A 
HETATM   24  C8  UNK     1      16.239   7.853  32.078  1.00  0.00     0.030 A 
HETATM   25  C10 UNK     1      15.442   8.920  32.500  1.00  0.00     0.002 A 
HETATM   26  C9  UNK     1      15.908   9.824  33.469  1.00  0.00     0.001 A 
ENDBRANCH  15  17
ENDBRANCH   1  15
TORSDOF 3
ENDMDL
MODEL 2
REMARK VINA RESULT:      -9.4      1.535      2.171
REMARK  3 active torsions:
REMARK  status: ('A' for Active; 'I' for Inactive)
REMARK    1  A    between atoms: C6_11  and  N1_4 
REMARK    2  A    between atoms: C11_16  and  N2_5 
REMARK    3  A    between atoms: C6_11  and  N2_5 
ROOT
HETATM    1  N2  UNK     1      17.695   4.280  31.574  1.00  0.00    -0.333 N 
HETATM    2  H11 UNK     1      16.807   4.204  32.066  1.00  0.00     0.168 HD
ENDROOT
BRANCH   1   3
HETATM    3  C11 UNK     1      18.261   3.032  31.214  1.00  0.00     0.036 A 
HETATM    4  C13 UNK     1      18.468   2.077  32.188  1.00  0.00     0.067 A 
HETATM    5  C14 UNK     1      19.026   0.853  31.813  1.00  0.00     0.092 A 
HETATM    6  C12 UNK     1      19.380   0.570  30.492  1.00  0.00     0.004 A 
HETATM    7  O1  UNK     1      19.220  -0.094  32.837  1.00  0.00    -0.275 OA
HETATM    8  C16 UNK     1      19.155   1.565  29.531  1.00  0.00     0.017 A 
HETATM    9  C17 UNK     1      19.961  -0.744  30.186  1.00  0.00    -0.043 A 
HETATM   10  C15 UNK     1      18.595   2.796  29.893  1.00  0.00     0.030 A 
HETATM   11  C18 UNK     1      20.134  -1.625  31.181  1.00  0.00     0.090 A 
HETATM   12  C19 UNK     1      20.351  -1.080  28.775  1.00  0.00     0.049 C 
HETATM   13  C20 UNK     1      19.767  -1.341  32.579  1.00  0.00     0.288 A 
HETATM   14  O2  UNK     1      19.940  -2.172  33.463  1.00  0.00    -0.260 OA
ENDBRANCH   1   3
BRANCH   1  15
HETATM   15  C6  UNK     1      18.202   5.551  31.514  1.00  0.00     0.179 C 
HETATM   16  S1  UNK     1      18.950   6.092  30.113  1.00  0.00    -0.040 SA
BRANCH  15  17
HETATM   17  N1  UNK     1      18.043   6.389  32.561  1.00  0.00    -0.319 N 
HETATM   18  C1  UNK     1      19.125   6.797  33.483  1.00  0.00     0.093 C 
HETATM   19  C2  UNK     1      18.545   7.941  34.347  1.00  0.00     0.066 C 
HETATM   20  C5  UNK     1      19.587   5.624  34.346  1.00  0.00     0.033 C 
HETATM   21  C3  UNK     1      17.090   7.895  33.998  1.00  0.00    -0.029 A 
HETATM   22  C4  UNK     1      16.847   7.014  32.943  1.00  0.00     0.043 A 
HETATM   23  C7  UNK     1      16.062   8.638  34.557  1.00  0.00     0.009 A 
HETATM   24  C8  UNK     1      15.577   6.855  32.415  1.00  0.00     0.030 A 
HETATM   25  C10 UNK     1      14.534   7.596  32.978  1.00  0.00     0.002 A 
HETATM   26  C9  UNK     1      14.775   8.480  34.042  1.00  0.00     0.001 A 
ENDBRANCH  15  17
ENDBRANCH   1  15
TORSDOF 3
ENDMDL
MODEL 3
REMARK VINA RESULT:      -8.8      3.226      8.491
REMARK  3 active torsions:
REMARK  status: ('A' for Active; 'I' for Inactive)
REMARK    1  A    between atoms: C6_11  and  N1_4 
REMARK    2  A    between atoms: C11_16  and  N2_5 
REMARK    3  A    between atoms: C6_11  and  N2_5 
ROOT
HETATM    1  N2  UNK     1      17.908   3.631  31.703  1.00  0.00    -0.333 N 
HETATM    2  H11 UNK     1      17.441   3.658  30.799  1.00  0.00     0.168 HD
ENDROOT
BRANCH   1   3
HETATM    3  C11 UNK     1      18.158   4.910  32.260  1.00  0.00     0.036 A 
HETATM    4  C13 UNK     1      17.128   5.826  32.339  1.00  0.00     0.067 A 
HETATM    5  C14 UNK     1      17.395   7.080  32.892  1.00  0.00     0.092 A 
HETATM    6  C12 UNK     1      18.662   7.433  33.361  1.00  0.00     0.004 A 
HETATM    7  O1  UNK     1      16.318   7.984  32.955  1.00  0.00    -0.275 OA
HETATM    8  C16 UNK     1      19.681   6.477  33.263  1.00  0.00     0.017 A 
HETATM    9  C17 UNK     1      18.853   8.775  33.927  1.00  0.00    -0.043 A 
HETATM   10  C15 UNK     1      19.429   5.215  32.712  1.00  0.00     0.030 A 
HETATM   11  C18 UNK     1      17.809   9.615  33.975  1.00  0.00     0.090 A 
HETATM   12  C19 UNK     1      20.203   9.186  34.441  1.00  0.00     0.049 C 
HETATM   13  C20 UNK     1      16.467   9.257  33.484  1.00  0.00     0.288 A 
HETATM   14  O2  UNK     1      15.536  10.052  33.543  1.00  0.00    -0.260 OA
ENDBRANCH   1   3
BRANCH   1  15
HETATM   15  C6  UNK     1      18.319   2.383  32.091  1.00  0.00     0.179 C 
HETATM   16  S1  UNK     1      18.093   1.879  33.675  1.00  0.00    -0.040 SA
BRANCH  15  17
HETATM   17  N1  UNK     1      18.849   1.537  31.183  1.00  0.00    -0.319 N 
HETATM   18  C1  UNK     1      19.091   1.870  29.763  1.00  0.00     0.093 C 
HETATM   19  C2  UNK     1      19.931   0.708  29.185  1.00  0.00     0.066 C 
HETATM   20  C5  UNK     1      17.775   2.039  29.004  1.00  0.00     0.033 C 
HETATM   21  C3  UNK     1      19.866  -0.307  30.283  1.00  0.00    -0.029 A 
HETATM   22  C4  UNK     1      19.266   0.220  31.428  1.00  0.00     0.043 A 
HETATM   23  C7  UNK     1      20.365  -1.600  30.271  1.00  0.00     0.009 A 
HETATM   24  C8  UNK     1      19.152  -0.526  32.589  1.00  0.00     0.030 A 
HETATM   25  C10 UNK     1      19.646  -1.833  32.582  1.00  0.00     0.002 A 
HETATM   26  C9  UNK     1      20.246  -2.367  31.431  1.00  0.00     0.001 A 
ENDBRANCH  15  17
ENDBRANCH   1  15
TORSDOF 3
ENDMDL
MODEL 4
REMARK VINA RESULT:      -8.8      7.434     10.428
REMARK  3 active torsions:
REMARK  status: ('A' for Active; 'I' for Inactive)
REMARK    1  A    between atoms: C6_11  and  N1_4 
REMARK    2  A    between atoms: C11_16  and  N2_5 
REMARK    3  A    between atoms: C6_11  and  N2_5 
ROOT
HETATM    1  N2  UNK     1      18.746  -4.706  36.428  1.00  0.00    -0.333 N 
HETATM    2  H11 UNK     1      17.756  -4.531  36.271  1.00  0.00     0.168 HD
ENDROOT
BRANCH   1   3
HETATM    3  C11 UNK     1      19.063  -6.071  36.634  1.00  0.00     0.036 A 
HETATM    4  C13 UNK     1      19.879  -6.721  35.730  1.00  0.00     0.067 A 
HETATM    5  C14 UNK     1      20.180  -8.066  35.952  1.00  0.00     0.092 A 
HETATM    6  C12 UNK     1      19.684  -8.768  37.051  1.00  0.00     0.004 A 
HETATM    7  O1  UNK     1      21.015  -8.690  35.006  1.00  0.00    -0.275 OA
HETATM    8  C16 UNK     1      18.859  -8.075  37.947  1.00  0.00     0.017 A 
HETATM    9  C17 UNK     1      20.051 -10.182  37.208  1.00  0.00    -0.043 A 
HETATM   10  C15 UNK     1      18.549  -6.726  37.738  1.00  0.00     0.030 A 
HETATM   11  C18 UNK     1      20.849 -10.750  36.292  1.00  0.00     0.090 A 
HETATM   12  C19 UNK     1      19.535 -10.965  38.379  1.00  0.00     0.049 C 
HETATM   13  C20 UNK     1      21.380 -10.022  35.126  1.00  0.00     0.288 A 
HETATM   14  O2  UNK     1      22.107 -10.575  34.308  1.00  0.00    -0.260 OA
ENDBRANCH   1   3
BRANCH   1  15
HETATM   15  C6  UNK     1      19.508  -3.574  36.555  1.00  0.00     0.179 C 
HETATM   16  S1  UNK     1      20.872  -3.584  37.532  1.00  0.00    -0.040 SA
BRANCH  15  17
HETATM   17  N1  UNK     1      19.195  -2.469  35.844  1.00  0.00    -0.319 N 
HETATM   18  C1  UNK     1      19.453  -2.298  34.399  1.00  0.00     0.093 C 
HETATM   19  C2  UNK     1      18.707  -1.010  33.978  1.00  0.00     0.066 C 
HETATM   20  C5  UNK     1      20.951  -2.194  34.112  1.00  0.00     0.033 C 
HETATM   21  C3  UNK     1      18.305  -0.431  35.299  1.00  0.00    -0.029 A 
HETATM   22  C4  UNK     1      18.573  -1.316  36.344  1.00  0.00     0.043 A 
HETATM   23  C7  UNK     1      17.689   0.787  35.537  1.00  0.00     0.009 A 
HETATM   24  C8  UNK     1      18.229  -1.012  37.651  1.00  0.00     0.030 A 
HETATM   25  C10 UNK     1      17.614   0.218  37.900  1.00  0.00     0.002 A 
HETATM   26  C9  UNK     1      17.348   1.111  36.850  1.00  0.00     0.001 A 
ENDBRANCH  15  17
ENDBRANCH   1  15
TORSDOF 3
ENDMDL
MODEL 5
REMARK VINA RESULT:      -8.7      7.133     12.424
REMARK  3 active torsions:
REMARK  status: ('A' for Active; 'I' for Inactive)
REMARK    1  A    between atoms: C6_11  and  N1_4 
REMARK    2  A    between atoms: C11_16  and  N2_5 
REMARK    3  A    between atoms: C6_11  and  N2_5 
ROOT
HETATM    1  N2  UNK     1      20.911  -4.342  37.372  1.00  0.00    -0.333 N 
HETATM    2  H11 UNK     1      21.864  -4.070  37.602  1.00  0.00     0.168 HD
ENDROOT
BRANCH   1   3
HETATM    3  C11 UNK     1      20.082  -3.260  36.984  1.00  0.00     0.036 A 
HETATM    4  C13 UNK     1      20.167  -2.770  35.697  1.00  0.00     0.067 A 
HETATM    5  C14 UNK     1      19.341  -1.704  35.335  1.00  0.00     0.092 A 
HETATM    6  C12 UNK     1      18.440  -1.124  36.229  1.00  0.00     0.004 A 
HETATM    7  O1  UNK     1      19.459  -1.234  34.013  1.00  0.00    -0.275 OA
HETATM    8  C16 UNK     1      18.381  -1.648  37.527  1.00  0.00     0.017 A 
HETATM    9  C17 UNK     1      17.608  -0.006  35.763  1.00  0.00    -0.043 A 
HETATM   10  C15 UNK     1      19.203  -2.717  37.904  1.00  0.00     0.030 A 
HETATM   11  C18 UNK     1      17.742   0.421  34.499  1.00  0.00     0.090 A 
HETATM   12  C19 UNK     1      16.628   0.640  36.699  1.00  0.00     0.049 C 
HETATM   13  C20 UNK     1      18.689  -0.181  33.544  1.00  0.00     0.288 A 
HETATM   14  O2  UNK     1      18.784   0.235  32.395  1.00  0.00    -0.260 OA
ENDBRANCH   1   3
BRANCH   1  15
HETATM   15  C6  UNK     1      20.616  -5.654  37.637  1.00  0.00     0.179 C 
HETATM   16  S1  UNK     1      20.317  -6.146  39.213  1.00  0.00    -0.040 SA
BRANCH  15  17
HETATM   17  N1  UNK     1      20.506  -6.537  36.622  1.00  0.00    -0.319 N 
HETATM   18  C1  UNK     1      19.547  -6.418  35.503  1.00  0.00     0.093 C 
HETATM   19  C2  UNK     1      19.954  -7.494  34.470  1.00  0.00     0.066 C 
HETATM   20  C5  UNK     1      18.110  -6.620  35.984  1.00  0.00     0.033 C 
HETATM   21  C3  UNK     1      20.961  -8.299  35.232  1.00  0.00    -0.029 A 
HETATM   22  C4  UNK     1      21.277  -7.696  36.450  1.00  0.00     0.043 A 
HETATM   23  C7  UNK     1      21.592  -9.465  34.829  1.00  0.00     0.009 A 
HETATM   24  C8  UNK     1      22.232  -8.238  37.295  1.00  0.00     0.030 A 
HETATM   25  C10 UNK     1      22.867  -9.417  36.899  1.00  0.00     0.002 A 
HETATM   26  C9  UNK     1      22.548 -10.027  35.675  1.00  0.00     0.001 A 
ENDBRANCH  15  17
ENDBRANCH   1  15
TORSDOF 3
ENDMDL
MODEL 6
REMARK VINA RESULT:      -8.6      7.777     10.764
REMARK  3 active torsions:
REMARK  status: ('A' for Active; 'I' for Inactive)
REMARK    1  A    between atoms: C6_11  and  N1_4 
REMARK    2  A    between atoms: C11_16  and  N2_5 
REMARK    3  A    between atoms: C6_11  and  N2_5 
ROOT
HETATM    1  N2  UNK     1      18.911  -4.818  36.181  1.00  0.00    -0.333 N 
HETATM    2  H11 UNK     1      17.899  -4.746  36.090  1.00  0.00     0.168 HD
ENDROOT
BRANCH   1   3
HETATM    3  C11 UNK     1      19.397  -6.149  36.149  1.00  0.00     0.036 A 
HETATM    4  C13 UNK     1      18.997  -7.038  37.126  1.00  0.00     0.067 A 
HETATM    5  C14 UNK     1      19.487  -8.345  37.076  1.00  0.00     0.092 A 
HETATM    6  C12 UNK     1      20.362  -8.775  36.077  1.00  0.00     0.004 A 
HETATM    7  O1  UNK     1      19.055  -9.220  38.091  1.00  0.00    -0.275 OA
HETATM    8  C16 UNK     1      20.745  -7.844  35.103  1.00  0.00     0.017 A 
HETATM    9  C17 UNK     1      20.828 -10.168  36.101  1.00  0.00    -0.043 A 
HETATM   10  C15 UNK     1      20.262  -6.530  35.139  1.00  0.00     0.030 A 
HETATM   11  C18 UNK     1      20.399 -10.979  37.080  1.00  0.00     0.090 A 
HETATM   12  C19 UNK     1      21.768 -10.662  35.041  1.00  0.00     0.049 C 
HETATM   13  C20 UNK     1      19.477 -10.540  38.141  1.00  0.00     0.288 A 
HETATM   14  O2  UNK     1      19.107 -11.310  39.020  1.00  0.00    -0.260 OA
ENDBRANCH   1   3
BRANCH   1  15
HETATM   15  C6  UNK     1      19.540  -3.635  36.464  1.00  0.00     0.179 C 
HETATM   16  S1  UNK     1      20.751  -3.584  37.624  1.00  0.00    -0.040 SA
BRANCH  15  17
HETATM   17  N1  UNK     1      19.228  -2.523  35.765  1.00  0.00    -0.319 N 
HETATM   18  C1  UNK     1      19.522  -2.321  34.330  1.00  0.00     0.093 C 
HETATM   19  C2  UNK     1      18.766  -1.038  33.912  1.00  0.00     0.066 C 
HETATM   20  C5  UNK     1      21.025  -2.187  34.087  1.00  0.00     0.033 C 
HETATM   21  C3  UNK     1      18.318  -0.490  35.232  1.00  0.00    -0.029 A 
HETATM   22  C4  UNK     1      18.572  -1.390  36.268  1.00  0.00     0.043 A 
HETATM   23  C7  UNK     1      17.675   0.713  35.474  1.00  0.00     0.009 A 
HETATM   24  C8  UNK     1      18.188  -1.115  37.570  1.00  0.00     0.030 A 
HETATM   25  C10 UNK     1      17.545   0.100  37.823  1.00  0.00     0.002 A 
HETATM   26  C9  UNK     1      17.292   1.008  36.783  1.00  0.00     0.001 A 
ENDBRANCH  15  17
ENDBRANCH   1  15
TORSDOF 3
ENDMDL
MODEL 7
REMARK VINA RESULT:      -8.6      2.988      8.116
REMARK  3 active torsions:
REMARK  status: ('A' for Active; 'I' for Inactive)
REMARK    1  A    between atoms: C6_11  and  N1_4 
REMARK    2  A    between atoms: C11_16  and  N2_5 
REMARK    3  A    between atoms: C6_11  and  N2_5 
ROOT
HETATM    1  N2  UNK     1      17.925   4.164  32.100  1.00  0.00    -0.333 N 
HETATM    2  H11 UNK     1      17.341   3.524  32.635  1.00  0.00     0.168 HD
ENDROOT
BRANCH   1   3
HETATM    3  C11 UNK     1      17.848   5.511  32.534  1.00  0.00     0.036 A 
HETATM    4  C13 UNK     1      18.982   6.132  33.015  1.00  0.00     0.067 A 
HETATM    5  C14 UNK     1      18.885   7.460  33.436  1.00  0.00     0.092 A 
HETATM    6  C12 UNK     1      17.685   8.171  33.386  1.00  0.00     0.004 A 
HETATM    7  O1  UNK     1      20.065   8.056  33.921  1.00  0.00    -0.275 OA
HETATM    8  C16 UNK     1      16.556   7.507  32.891  1.00  0.00     0.017 A 
HETATM    9  C17 UNK     1      17.674   9.565  33.849  1.00  0.00    -0.043 A 
HETATM   10  C15 UNK     1      16.638   6.176  32.464  1.00  0.00     0.030 A 
HETATM   11  C18 UNK     1      18.813  10.107  34.305  1.00  0.00     0.090 A 
HETATM   12  C19 UNK     1      16.400  10.358  33.807  1.00  0.00     0.049 C 
HETATM   13  C20 UNK     1      20.086   9.369  34.365  1.00  0.00     0.288 A 
HETATM   14  O2  UNK     1      21.108   9.898  34.788  1.00  0.00    -0.260 OA
ENDBRANCH   1   3
BRANCH   1  15
HETATM   15  C6  UNK     1      18.522   3.602  31.002  1.00  0.00     0.179 C 
HETATM   16  S1  UNK     1      19.067   4.578  29.751  1.00  0.00    -0.040 SA
BRANCH  15  17
HETATM   17  N1  UNK     1      18.726   2.269  30.956  1.00  0.00    -0.319 N 
HETATM   18  C1  UNK     1      19.111   1.518  29.742  1.00  0.00     0.093 C 
HETATM   19  C2  UNK     1      19.478   0.092  30.214  1.00  0.00     0.066 C 
HETATM   20  C5  UNK     1      17.972   1.493  28.723  1.00  0.00     0.033 C 
HETATM   21  C3  UNK     1      19.013   0.101  31.638  1.00  0.00    -0.029 A 
HETATM   22  C4  UNK     1      18.620   1.380  32.036  1.00  0.00     0.043 A 
HETATM   23  C7  UNK     1      18.998  -0.959  32.530  1.00  0.00     0.009 A 
HETATM   24  C8  UNK     1      18.207   1.635  33.333  1.00  0.00     0.030 A 
HETATM   25  C10 UNK     1      18.183   0.569  34.236  1.00  0.00     0.002 A 
HETATM   26  C9  UNK     1      18.574  -0.718  33.837  1.00  0.00     0.001 A 
ENDBRANCH  15  17
ENDBRANCH   1  15
TORSDOF 3
ENDMDL
MODEL 8
REMARK VINA RESULT:      -8.6     14.953     16.693
REMARK  3 active torsions:
REMARK  status: ('A' for Active; 'I' for Inactive)
REMARK    1  A    between atoms: C6_11  and  N1_4 
REMARK    2  A    between atoms: C11_16  and  N2_5 
REMARK    3  A    between atoms: C6_11  and  N2_5 
ROOT
HETATM    1  N2  UNK     1      31.441  -6.791  34.413  1.00  0.00    -0.333 N 
HETATM    2  H11 UNK     1      32.029  -5.979  34.236  1.00  0.00     0.168 HD
ENDROOT
BRANCH   1   3
HETATM    3  C11 UNK     1      30.425  -6.988  33.445  1.00  0.00     0.036 A 
HETATM    4  C13 UNK     1      30.572  -7.985  32.503  1.00  0.00     0.067 A 
HETATM    5  C14 UNK     1      29.559  -8.162  31.559  1.00  0.00     0.092 A 
HETATM    6  C12 UNK     1      28.412  -7.367  31.539  1.00  0.00     0.004 A 
HETATM    7  O1  UNK     1      29.749  -9.190  30.615  1.00  0.00    -0.275 OA
HETATM    8  C16 UNK     1      28.298  -6.365  32.512  1.00  0.00     0.017 A 
HETATM    9  C17 UNK     1      27.396  -7.624  30.509  1.00  0.00    -0.043 A 
HETATM   10  C15 UNK     1      29.305  -6.176  33.465  1.00  0.00     0.030 A 
HETATM   11  C18 UNK     1      27.603  -8.610  29.624  1.00  0.00     0.090 A 
HETATM   12  C19 UNK     1      26.150  -6.788  30.461  1.00  0.00     0.049 C 
HETATM   13  C20 UNK     1      28.808  -9.457  29.632  1.00  0.00     0.288 A 
HETATM   14  O2  UNK     1      28.964 -10.349  28.806  1.00  0.00    -0.260 OA
ENDBRANCH   1   3
BRANCH   1  15
HETATM   15  C6  UNK     1      31.672  -7.405  35.617  1.00  0.00     0.179 C 
HETATM   16  S1  UNK     1      33.158  -8.120  35.924  1.00  0.00    -0.040 SA
BRANCH  15  17
HETATM   17  N1  UNK     1      30.723  -7.380  36.577  1.00  0.00    -0.319 N 
HETATM   18  C1  UNK     1      29.981  -8.564  37.058  1.00  0.00     0.093 C 
HETATM   19  C2  UNK     1      29.204  -8.106  38.314  1.00  0.00     0.066 C 
HETATM   20  C5  UNK     1      29.036  -9.099  35.981  1.00  0.00     0.033 C 
HETATM   21  C3  UNK     1      29.385  -6.620  38.273  1.00  0.00    -0.029 A 
HETATM   22  C4  UNK     1      30.293  -6.246  37.281  1.00  0.00     0.043 A 
HETATM   23  C7  UNK     1      28.813  -5.675  39.109  1.00  0.00     0.009 A 
HETATM   24  C8  UNK     1      30.656  -4.921  37.101  1.00  0.00     0.030 A 
HETATM   25  C10 UNK     1      30.078  -3.962  37.936  1.00  0.00     0.002 A 
HETATM   26  C9  UNK     1      29.162  -4.336  38.931  1.00  0.00     0.001 A 
ENDBRANCH  15  17
ENDBRANCH   1  15
TORSDOF 3
ENDMDL
MODEL 9
REMARK VINA RESULT:      -8.6      3.221      8.338
REMARK  3 active torsions:
REMARK  status: ('A' for Active; 'I' for Inactive)
REMARK    1  A    between atoms: C6_11  and  N1_4 
REMARK    2  A    between atoms: C11_16  and  N2_5 
REMARK    3  A    between atoms: C6_11  and  N2_5 
ROOT
HETATM    1  N2  UNK     1      17.536   4.091  32.388  1.00  0.00    -0.333 N 
HETATM    2  H11 UNK     1      16.533   3.933  32.472  1.00  0.00     0.168 HD
ENDROOT
BRANCH   1   3
HETATM    3  C11 UNK     1      17.954   5.376  32.814  1.00  0.00     0.036 A 
HETATM    4  C13 UNK     1      17.034   6.403  32.866  1.00  0.00     0.067 A 
HETATM    5  C14 UNK     1      17.467   7.662  33.290  1.00  0.00     0.092 A 
HETATM    6  C12 UNK     1      18.790   7.909  33.659  1.00  0.00     0.004 A 
HETATM    7  O1  UNK     1      16.497   8.682  33.329  1.00  0.00    -0.275 OA
HETATM    8  C16 UNK     1      19.694   6.841  33.593  1.00  0.00     0.017 A 
HETATM    9  C17 UNK     1      19.158   9.264  34.093  1.00  0.00    -0.043 A 
HETATM   10  C15 UNK     1      19.276   5.574  33.171  1.00  0.00     0.030 A 
HETATM   11  C18 UNK     1      18.214  10.216  34.120  1.00  0.00     0.090 A 
HETATM   12  C19 UNK     1      20.573   9.563  34.497  1.00  0.00     0.049 C 
HETATM   13  C20 UNK     1      16.814   9.970  33.734  1.00  0.00     0.288 A 
HETATM   14  O2  UNK     1      15.978  10.865  33.771  1.00  0.00    -0.260 OA
ENDBRANCH   1   3
BRANCH   1  15
HETATM   15  C6  UNK     1      18.214   3.089  31.745  1.00  0.00     0.179 C 
HETATM   16  S1  UNK     1      18.892   3.368  30.236  1.00  0.00    -0.040 SA
BRANCH  15  17
HETATM   17  N1  UNK     1      18.389   1.897  32.353  1.00  0.00    -0.319 N 
HETATM   18  C1  UNK     1      17.924   1.573  33.719  1.00  0.00     0.093 C 
HETATM   19  C2  UNK     1      18.112   0.047  33.887  1.00  0.00     0.066 C 
HETATM   20  C5  UNK     1      18.713   2.352  34.771  1.00  0.00     0.033 C 
HETATM   21  C3  UNK     1      18.915  -0.309  32.675  1.00  0.00    -0.029 A 
HETATM   22  C4  UNK     1      19.022   0.774  31.801  1.00  0.00     0.043 A 
HETATM   23  C7  UNK     1      19.462  -1.541  32.354  1.00  0.00     0.009 A 
HETATM   24  C8  UNK     1      19.674   0.655  30.585  1.00  0.00     0.030 A 
HETATM   25  C10 UNK     1      20.236  -0.582  30.257  1.00  0.00     0.002 A 
HETATM   26  C9  UNK     1      20.132  -1.671  31.137  1.00  0.00     0.001 A 
ENDBRANCH  15  17
ENDBRANCH   1  15
TORSDOF 3
ENDMDL
MODEL 10
REMARK VINA RESULT:      -8.6     15.032     16.902
REMARK  3 active torsions:
REMARK  status: ('A' for Active; 'I' for Inactive)
REMARK    1  A    between atoms: C6_11  and  N1_4 
REMARK    2  A    between atoms: C11_16  and  N2_5 
REMARK    3  A    between atoms: C6_11  and  N2_5 
ROOT
HETATM    1  N2  UNK     1      31.328  -6.706  34.810  1.00  0.00    -0.333 N 
HETATM    2  H11 UNK     1      31.954  -5.926  34.618  1.00  0.00     0.168 HD
ENDROOT
BRANCH   1   3
HETATM    3  C11 UNK     1      30.366  -6.934  33.794  1.00  0.00     0.036 A 
HETATM    4  C13 UNK     1      30.586  -7.930  32.865  1.00  0.00     0.067 A 
HETATM    5  C14 UNK     1      29.626  -8.139  31.874  1.00  0.00     0.092 A 
HETATM    6  C12 UNK     1      28.460  -7.376  31.794  1.00  0.00     0.004 A 
HETATM    7  O1  UNK     1      29.889  -9.165  30.946  1.00  0.00    -0.275 OA
HETATM    8  C16 UNK     1      28.271  -6.374  32.755  1.00  0.00     0.017 A 
HETATM    9  C17 UNK     1      27.502  -7.664  30.718  1.00  0.00    -0.043 A 
HETATM   10  C15 UNK     1      29.225  -6.153  33.756  1.00  0.00     0.030 A 
HETATM   11  C18 UNK     1      27.779  -8.647  29.849  1.00  0.00     0.090 A 
HETATM   12  C19 UNK     1      26.238  -6.862  30.605  1.00  0.00     0.049 C 
HETATM   13  C20 UNK     1      29.005  -9.460  29.919  1.00  0.00     0.288 A 
HETATM   14  O2  UNK     1      29.225 -10.351  29.107  1.00  0.00    -0.260 OA
ENDBRANCH   1   3
BRANCH   1  15
HETATM   15  C6  UNK     1      31.464  -7.247  36.061  1.00  0.00     0.179 C 
HETATM   16  S1  UNK     1      32.555  -8.494  36.324  1.00  0.00    -0.040 SA
BRANCH  15  17
HETATM   17  N1  UNK     1      30.764  -6.734  37.095  1.00  0.00    -0.319 N 
HETATM   18  C1  UNK     1      30.975  -5.388  37.670  1.00  0.00     0.093 C 
HETATM   19  C2  UNK     1      29.797  -5.144  38.640  1.00  0.00     0.066 C 
HETATM   20  C5  UNK     1      32.321  -5.300  38.390  1.00  0.00     0.033 C 
HETATM   21  C3  UNK     1      29.162  -6.498  38.715  1.00  0.00    -0.029 A 
HETATM   22  C4  UNK     1      29.724  -7.374  37.786  1.00  0.00     0.043 A 
HETATM   23  C7  UNK     1      28.111  -6.896  39.525  1.00  0.00     0.009 A 
HETATM   24  C8  UNK     1      29.251  -8.668  37.639  1.00  0.00     0.030 A 
HETATM   25  C10 UNK     1      28.196  -9.079  38.457  1.00  0.00     0.002 A 
HETATM   26  C9  UNK     1      27.632  -8.200  39.395  1.00  0.00     0.001 A 
ENDBRANCH  15  17
ENDBRANCH   1  15
TORSDOF 3
ENDMDL
