MODEL 1
REMARK VINA RESULT:     -10.6      0.000      0.000
REMARK  3 active torsions:
REMARK  status: ('A' for Active; 'I' for Inactive)
REMARK    1  A    between atoms: C15_21  and  N1_5 
REMARK    2  A    between atoms: C17_23  and  N2_6 
REMARK    3  A    between atoms: C11_17  and  C4_10 
ROOT
HETATM    1  O1  UNK     1      17.686   4.021  30.682  1.00  0.00    -0.332 OA
HETATM    2  O2  UNK     1      19.762  -0.223  31.853  1.00  0.00    -0.274 OA
HETATM    3  O3  UNK     1      18.309   4.122  34.238  1.00  0.00    -0.289 OA
HETATM    4  O4  UNK     1      20.810  -2.202  32.336  1.00  0.00    -0.260 OA
HETATM    5  C1  UNK     1      18.169   4.640  31.876  1.00  0.00     0.125 C 
HETATM    6  C2  UNK     1      18.637   1.878  31.355  1.00  0.00     0.048 A 
HETATM    7  C3  UNK     1      18.287   3.703  33.083  1.00  0.00     0.196 C 
HETATM    8  C4  UNK     1      18.412   2.250  32.761  1.00  0.00     0.044 C 
HETATM    9  C5  UNK     1      18.230   2.798  30.379  1.00  0.00     0.084 A 
HETATM   10  C6  UNK     1      17.147   5.736  32.207  1.00  0.00     0.055 C 
HETATM   11  C7  UNK     1      19.533   5.289  31.604  1.00  0.00     0.055 C 
HETATM   12  C8  UNK     1      19.238   0.689  30.905  1.00  0.00     0.103 A 
HETATM   13  C9  UNK     1      19.367   0.391  29.544  1.00  0.00    -0.001 A 
HETATM   14  C10 UNK     1      18.330   2.503  29.016  1.00  0.00     0.039 A 
HETATM   15  C12 UNK     1      18.894   1.299  28.599  1.00  0.00     0.017 A 
HETATM   16  C13 UNK     1      19.992  -0.861  29.144  1.00  0.00     0.020 A 
HETATM   17  C14 UNK     1      20.462  -1.710  30.059  1.00  0.00     0.083 A 
HETATM   18  C16 UNK     1      20.371  -1.422  31.499  1.00  0.00     0.288 A 
ENDROOT
BRANCH   8  19
HETATM   19  C11 UNK     1      18.189   1.388  33.765  1.00  0.00     0.104 C 
HETATM   20  N1  UNK     1      18.848   1.303  34.943  1.00  0.00    -0.363 N 
HETATM   21  H11 UNK     1      19.534   2.023  35.128  1.00  0.00     0.165 HD
BRANCH  20  22
HETATM   22  C15 UNK     1      18.634   0.409  36.009  1.00  0.00     0.058 A 
HETATM   23  C17 UNK     1      19.087  -0.912  35.946  1.00  0.00     0.052 A 
HETATM   24  C19 UNK     1      18.862  -1.782  37.012  1.00  0.00     0.031 A 
HETATM   25  C21 UNK     1      18.183  -1.336  38.145  1.00  0.00     0.002 A 
HETATM   26  C20 UNK     1      17.728  -0.019  38.213  1.00  0.00     0.002 A 
HETATM   27  C18 UNK     1      17.954   0.852  37.146  1.00  0.00     0.032 A 
BRANCH  23  28
HETATM   28  N2  UNK     1      19.777  -1.386  34.807  1.00  0.00    -0.397 N 
HETATM   29  H17 UNK     1      19.381  -2.140  34.262  1.00  0.00     0.156 HD
HETATM   30  H18 UNK     1      20.701  -1.046  34.583  1.00  0.00     0.156 HD
ENDBRANCH  23  28
ENDBRANCH  20  22
ENDBRANCH   8  19
TORSDOF 3
ENDMDL
MODEL 2
REMARK VINA RESULT:      -9.8      2.010      5.791
REMARK  3 active torsions:
REMARK  status: ('A' for Active; 'I' for Inactive)
REMARK    1  A    between atoms: C15_21  and  N1_5 
REMARK    2  A    between atoms: C17_23  and  N2_6 
REMARK    3  A    between atoms: C11_17  and  C4_10 
ROOT
HETATM    1  O1  UNK     1      19.135  -1.154  34.808  1.00  0.00    -0.332 OA
HETATM    2  O2  UNK     1      18.675   1.210  30.578  1.00  0.00    -0.274 OA
HETATM    3  O3  UNK     1      17.083   1.745  35.462  1.00  0.00    -0.289 OA
HETATM    4  O4  UNK     1      18.423   2.239  28.547  1.00  0.00    -0.260 OA
HETATM    5  C1  UNK     1      17.987  -0.499  35.352  1.00  0.00     0.125 C 
HETATM    6  C2  UNK     1      18.947   0.134  32.745  1.00  0.00     0.048 A 
HETATM    7  C3  UNK     1      17.760   0.928  34.842  1.00  0.00     0.196 C 
HETATM    8  C4  UNK     1      18.383   1.248  33.523  1.00  0.00     0.044 C 
HETATM    9  C5  UNK     1      19.317  -1.016  33.455  1.00  0.00     0.084 A 
HETATM   10  C6  UNK     1      18.232  -0.443  36.867  1.00  0.00     0.055 C 
HETATM   11  C7  UNK     1      16.735  -1.341  35.075  1.00  0.00     0.055 C 
HETATM   12  C8  UNK     1      19.132   0.115  31.352  1.00  0.00     0.103 A 
HETATM   13  C9  UNK     1      19.724  -0.969  30.695  1.00  0.00    -0.001 A 
HETATM   14  C10 UNK     1      19.934  -2.097  32.816  1.00  0.00     0.039 A 
HETATM   15  C12 UNK     1      20.140  -2.073  31.439  1.00  0.00     0.017 A 
HETATM   16  C13 UNK     1      19.894  -0.924  29.251  1.00  0.00     0.020 A 
HETATM   17  C14 UNK     1      19.470   0.129  28.549  1.00  0.00     0.083 A 
HETATM   18  C16 UNK     1      18.817   1.277  29.196  1.00  0.00     0.288 A 
ENDROOT
BRANCH   8  19
HETATM   19  C11 UNK     1      18.488   2.547  33.205  1.00  0.00     0.104 C 
HETATM   20  N1  UNK     1      17.764   3.236  32.293  1.00  0.00    -0.363 N 
HETATM   21  H11 UNK     1      16.998   2.738  31.858  1.00  0.00     0.165 HD
BRANCH  20  22
HETATM   22  C15 UNK     1      17.855   4.595  31.941  1.00  0.00     0.058 A 
HETATM   23  C17 UNK     1      18.765   5.032  30.973  1.00  0.00     0.052 A 
HETATM   24  C19 UNK     1      18.842   6.384  30.641  1.00  0.00     0.031 A 
HETATM   25  C21 UNK     1      18.010   7.306  31.276  1.00  0.00     0.002 A 
HETATM   26  C20 UNK     1      17.101   6.876  32.243  1.00  0.00     0.002 A 
HETATM   27  C18 UNK     1      17.024   5.523  32.574  1.00  0.00     0.032 A 
BRANCH  23  28
HETATM   28  N2  UNK     1      19.618   4.114  30.318  1.00  0.00    -0.397 N 
HETATM   29  H17 UNK     1      19.335   3.715  29.433  1.00  0.00     0.156 HD
HETATM   30  H18 UNK     1      20.461   3.783  30.765  1.00  0.00     0.156 HD
ENDBRANCH  23  28
ENDBRANCH  20  22
ENDBRANCH   8  19
TORSDOF 3
ENDMDL
MODEL 3
REMARK VINA RESULT:      -9.3     12.116     14.365
REMARK  3 active torsions:
REMARK  status: ('A' for Active; 'I' for Inactive)
REMARK    1  A    between atoms: C15_21  and  N1_5 
REMARK    2  A    between atoms: C17_23  and  N2_6 
REMARK    3  A    between atoms: C11_17  and  C4_10 
ROOT
HETATM    1  O1  UNK     1      27.219  -6.397  38.790  1.00  0.00    -0.332 OA
HETATM    2  O2  UNK     1      30.827  -5.852  35.570  1.00  0.00    -0.274 OA
HETATM    3  O3  UNK     1      26.879  -9.078  36.396  1.00  0.00    -0.289 OA
HETATM    4  O4  UNK     1      32.590  -5.599  34.129  1.00  0.00    -0.260 OA
HETATM    5  C1  UNK     1      27.036  -7.766  38.425  1.00  0.00     0.125 C 
HETATM    6  C2  UNK     1      28.941  -6.124  37.085  1.00  0.00     0.048 A 
HETATM    7  C3  UNK     1      27.334  -8.084  36.956  1.00  0.00     0.196 C 
HETATM    8  C4  UNK     1      28.247  -7.127  36.262  1.00  0.00     0.044 C 
HETATM    9  C5  UNK     1      28.358  -5.798  38.317  1.00  0.00     0.084 A 
HETATM   10  C6  UNK     1      25.556  -8.066  38.699  1.00  0.00     0.055 C 
HETATM   11  C7  UNK     1      27.905  -8.659  39.322  1.00  0.00     0.055 C 
HETATM   12  C8  UNK     1      30.144  -5.478  36.753  1.00  0.00     0.103 A 
HETATM   13  C9  UNK     1      30.712  -4.497  37.572  1.00  0.00    -0.001 A 
HETATM   14  C10 UNK     1      28.900  -4.801  39.135  1.00  0.00     0.039 A 
HETATM   15  C12 UNK     1      30.073  -4.149  38.762  1.00  0.00     0.017 A 
HETATM   16  C13 UNK     1      31.955  -3.860  37.168  1.00  0.00     0.020 A 
HETATM   17  C14 UNK     1      32.568  -4.220  36.039  1.00  0.00     0.083 A 
HETATM   18  C16 UNK     1      32.020  -5.266  35.162  1.00  0.00     0.288 A 
ENDROOT
BRANCH   8  19
HETATM   19  C11 UNK     1      28.269  -7.179  34.921  1.00  0.00     0.104 C 
HETATM   20  N1  UNK     1      28.169  -6.148  34.052  1.00  0.00    -0.363 N 
HETATM   21  H11 UNK     1      28.161  -5.220  34.454  1.00  0.00     0.165 HD
BRANCH  20  22
HETATM   22  C15 UNK     1      28.189  -6.177  32.645  1.00  0.00     0.058 A 
HETATM   23  C17 UNK     1      29.135  -5.447  31.920  1.00  0.00     0.052 A 
HETATM   24  C19 UNK     1      29.136  -5.488  30.527  1.00  0.00     0.031 A 
HETATM   25  C21 UNK     1      28.189  -6.258  29.851  1.00  0.00     0.002 A 
HETATM   26  C20 UNK     1      27.242  -6.987  30.569  1.00  0.00     0.002 A 
HETATM   27  C18 UNK     1      27.242  -6.947  31.964  1.00  0.00     0.032 A 
BRANCH  23  28
HETATM   28  N2  UNK     1      30.103  -4.660  32.585  1.00  0.00    -0.397 N 
HETATM   29  H17 UNK     1      30.585  -5.037  33.390  1.00  0.00     0.156 HD
HETATM   30  H18 UNK     1      30.252  -3.696  32.324  1.00  0.00     0.156 HD
ENDBRANCH  23  28
ENDBRANCH  20  22
ENDBRANCH   8  19
TORSDOF 3
ENDMDL
MODEL 4
REMARK VINA RESULT:      -9.1      2.372      5.903
REMARK  3 active torsions:
REMARK  status: ('A' for Active; 'I' for Inactive)
REMARK    1  A    between atoms: C15_21  and  N1_5 
REMARK    2  A    between atoms: C17_23  and  N2_6 
REMARK    3  A    between atoms: C11_17  and  C4_10 
ROOT
HETATM    1  O1  UNK     1      18.410  -0.680  35.326  1.00  0.00    -0.332 OA
HETATM    2  O2  UNK     1      18.591   2.510  31.655  1.00  0.00    -0.274 OA
HETATM    3  O3  UNK     1      17.115   2.439  36.604  1.00  0.00    -0.289 OA
HETATM    4  O4  UNK     1      18.622   3.949  29.872  1.00  0.00    -0.260 OA
HETATM    5  C1  UNK     1      17.449   0.111  36.028  1.00  0.00     0.125 C 
HETATM    6  C2  UNK     1      18.567   0.995  33.560  1.00  0.00     0.048 A 
HETATM    7  C3  UNK     1      17.582   1.622  35.813  1.00  0.00     0.196 C 
HETATM    8  C4  UNK     1      18.280   2.037  34.560  1.00  0.00     0.044 C 
HETATM    9  C5  UNK     1      18.638  -0.327  34.020  1.00  0.00     0.084 A 
HETATM   10  C6  UNK     1      17.681  -0.193  37.515  1.00  0.00     0.055 C 
HETATM   11  C7  UNK     1      16.033  -0.334  35.637  1.00  0.00     0.055 C 
HETATM   12  C8  UNK     1      18.759   1.207  32.184  1.00  0.00     0.103 A 
HETATM   13  C9  UNK     1      19.079   0.164  31.309  1.00  0.00    -0.001 A 
HETATM   14  C10 UNK     1      18.982  -1.376  33.162  1.00  0.00     0.039 A 
HETATM   15  C12 UNK     1      19.205  -1.131  31.809  1.00  0.00     0.017 A 
HETATM   16  C13 UNK     1      19.273   0.451  29.896  1.00  0.00     0.020 A 
HETATM   17  C14 UNK     1      19.126   1.691  29.427  1.00  0.00     0.083 A 
HETATM   18  C16 UNK     1      18.763   2.812  30.308  1.00  0.00     0.288 A 
ENDROOT
BRANCH   8  19
HETATM   19  C11 UNK     1      18.701   3.309  34.496  1.00  0.00     0.104 C 
HETATM   20  N1  UNK     1      17.982   4.401  34.151  1.00  0.00    -0.363 N 
HETATM   21  H11 UNK     1      16.991   4.259  34.003  1.00  0.00     0.165 HD
BRANCH  20  22
HETATM   22  C15 UNK     1      18.399   5.743  34.076  1.00  0.00     0.058 A 
HETATM   23  C17 UNK     1      17.581   6.781  34.532  1.00  0.00     0.052 A 
HETATM   24  C19 UNK     1      18.012   8.104  34.446  1.00  0.00     0.031 A 
HETATM   25  C21 UNK     1      19.263   8.396  33.903  1.00  0.00     0.002 A 
HETATM   26  C20 UNK     1      20.083   7.364  33.445  1.00  0.00     0.002 A 
HETATM   27  C18 UNK     1      19.652   6.040  33.532  1.00  0.00     0.032 A 
BRANCH  23  28
HETATM   28  N2  UNK     1      16.309   6.508  35.084  1.00  0.00    -0.397 N 
HETATM   29  H17 UNK     1      16.244   6.049  35.984  1.00  0.00     0.156 HD
HETATM   30  H18 UNK     1      15.467   6.679  34.554  1.00  0.00     0.156 HD
ENDBRANCH  23  28
ENDBRANCH  20  22
ENDBRANCH   8  19
TORSDOF 3
ENDMDL
MODEL 5
REMARK VINA RESULT:      -8.9     12.411     14.629
REMARK  3 active torsions:
REMARK  status: ('A' for Active; 'I' for Inactive)
REMARK    1  A    between atoms: C15_21  and  N1_5 
REMARK    2  A    between atoms: C17_23  and  N2_6 
REMARK    3  A    between atoms: C11_17  and  C4_10 
ROOT
HETATM    1  O1  UNK     1      27.381  -6.588  38.950  1.00  0.00    -0.332 OA
HETATM    2  O2  UNK     1      30.568  -5.878  35.340  1.00  0.00    -0.274 OA
HETATM    3  O3  UNK     1      26.688  -9.101  36.451  1.00  0.00    -0.289 OA
HETATM    4  O4  UNK     1      32.142  -5.553  33.707  1.00  0.00    -0.260 OA
HETATM    5  C1  UNK     1      27.126  -7.927  38.524  1.00  0.00     0.125 C 
HETATM    6  C2  UNK     1      28.882  -6.225  37.061  1.00  0.00     0.048 A 
HETATM    7  C3  UNK     1      27.231  -8.151  37.012  1.00  0.00     0.196 C 
HETATM    8  C4  UNK     1      28.069  -7.162  36.270  1.00  0.00     0.044 C 
HETATM    9  C5  UNK     1      28.465  -5.973  38.376  1.00  0.00     0.084 A 
HETATM   10  C6  UNK     1      25.685  -8.225  38.963  1.00  0.00     0.055 C 
HETATM   11  C7  UNK     1      28.081  -8.888  39.245  1.00  0.00     0.055 C 
HETATM   12  C8  UNK     1      30.047  -5.574  36.622  1.00  0.00     0.103 A 
HETATM   13  C9  UNK     1      30.733  -4.656  37.424  1.00  0.00    -0.001 A 
HETATM   14  C10 UNK     1      29.126  -5.039  39.180  1.00  0.00     0.039 A 
HETATM   15  C12 UNK     1      30.257  -4.379  38.704  1.00  0.00     0.017 A 
HETATM   16  C13 UNK     1      31.930  -4.009  36.907  1.00  0.00     0.020 A 
HETATM   17  C14 UNK     1      32.389  -4.302  35.689  1.00  0.00     0.083 A 
HETATM   18  C16 UNK     1      31.713  -5.281  34.823  1.00  0.00     0.288 A 
ENDROOT
BRANCH   8  19
HETATM   19  C11 UNK     1      27.922  -7.126  34.937  1.00  0.00     0.104 C 
HETATM   20  N1  UNK     1      28.429  -7.988  34.026  1.00  0.00    -0.363 N 
HETATM   21  H11 UNK     1      28.904  -8.802  34.393  1.00  0.00     0.165 HD
BRANCH  20  22
HETATM   22  C15 UNK     1      28.290  -7.971  32.625  1.00  0.00     0.058 A 
HETATM   23  C17 UNK     1      28.625  -9.087  31.853  1.00  0.00     0.052 A 
HETATM   24  C19 UNK     1      28.483  -9.049  30.467  1.00  0.00     0.031 A 
HETATM   25  C21 UNK     1      28.006  -7.895  29.846  1.00  0.00     0.002 A 
HETATM   26  C20 UNK     1      27.671  -6.779  30.612  1.00  0.00     0.002 A 
HETATM   27  C18 UNK     1      27.813  -6.817  31.999  1.00  0.00     0.032 A 
BRANCH  23  28
HETATM   28  N2  UNK     1      29.112 -10.267  32.461  1.00  0.00    -0.397 N 
HETATM   29  H17 UNK     1      28.479 -11.036  32.636  1.00  0.00     0.156 HD
HETATM   30  H18 UNK     1      30.059 -10.317  32.807  1.00  0.00     0.156 HD
ENDBRANCH  23  28
ENDBRANCH  20  22
ENDBRANCH   8  19
TORSDOF 3
ENDMDL
MODEL 6
REMARK VINA RESULT:      -8.6     24.200     25.920
REMARK  3 active torsions:
REMARK  status: ('A' for Active; 'I' for Inactive)
REMARK    1  A    between atoms: C15_21  and  N1_5 
REMARK    2  A    between atoms: C17_23  and  N2_6 
REMARK    3  A    between atoms: C11_17  and  C4_10 
ROOT
HETATM    1  O1  UNK     1       8.793   9.787  11.122  1.00  0.00    -0.332 OA
HETATM    2  O2  UNK     1      11.102   7.513   7.491  1.00  0.00    -0.274 OA
HETATM    3  O3  UNK     1      12.012  11.388  10.782  1.00  0.00    -0.289 OA
HETATM    4  O4  UNK     1      12.112   6.464   5.723  1.00  0.00    -0.260 OA
HETATM    5  C1  UNK     1       9.645  10.929  11.012  1.00  0.00     0.125 C 
HETATM    6  C2  UNK     1      10.046   8.626   9.381  1.00  0.00     0.048 A 
HETATM    7  C3  UNK     1      11.078  10.620  10.565  1.00  0.00     0.196 C 
HETATM    8  C4  UNK     1      11.257   9.341   9.813  1.00  0.00     0.044 C 
HETATM    9  C5  UNK     1       8.866   8.883  10.093  1.00  0.00     0.084 A 
HETATM   10  C6  UNK     1       9.694  11.537  12.421  1.00  0.00     0.055 C 
HETATM   11  C7  UNK     1       9.022  11.945  10.046  1.00  0.00     0.055 C 
HETATM   12  C8  UNK     1       9.964   7.723   8.307  1.00  0.00     0.103 A 
HETATM   13  C9  UNK     1       8.781   7.046   7.994  1.00  0.00    -0.001 A 
HETATM   14  C10 UNK     1       7.682   8.195   9.808  1.00  0.00     0.039 A 
HETATM   15  C12 UNK     1       7.640   7.276   8.762  1.00  0.00     0.017 A 
HETATM   16  C13 UNK     1       8.763   6.118   6.875  1.00  0.00     0.020 A 
HETATM   17  C14 UNK     1       9.856   5.926   6.133  1.00  0.00     0.083 A 
HETATM   18  C16 UNK     1      11.113   6.638   6.411  1.00  0.00     0.288 A 
ENDROOT
BRANCH   8  19
HETATM   19  C11 UNK     1      12.513   8.882   9.696  1.00  0.00     0.104 C 
HETATM   20  N1  UNK     1      13.008   7.707  10.148  1.00  0.00    -0.363 N 
HETATM   21  H11 UNK     1      12.340   7.060  10.546  1.00  0.00     0.165 HD
BRANCH  20  22
HETATM   22  C15 UNK     1      14.318   7.204  10.038  1.00  0.00     0.058 A 
HETATM   23  C17 UNK     1      14.553   5.845   9.810  1.00  0.00     0.052 A 
HETATM   24  C19 UNK     1      15.858   5.366   9.707  1.00  0.00     0.031 A 
HETATM   25  C21 UNK     1      16.935   6.243   9.834  1.00  0.00     0.002 A 
HETATM   26  C20 UNK     1      16.706   7.600  10.063  1.00  0.00     0.002 A 
HETATM   27  C18 UNK     1      15.400   8.079  10.165  1.00  0.00     0.032 A 
BRANCH  23  28
HETATM   28  N2  UNK     1      13.476   4.938   9.680  1.00  0.00    -0.397 N 
HETATM   29  H17 UNK     1      12.534   5.251   9.873  1.00  0.00     0.156 HD
HETATM   30  H18 UNK     1      13.644   3.961   9.488  1.00  0.00     0.156 HD
ENDBRANCH  23  28
ENDBRANCH  20  22
ENDBRANCH   8  19
TORSDOF 3
ENDMDL
MODEL 7
REMARK VINA RESULT:      -8.6     12.639     15.539
REMARK  3 active torsions:
REMARK  status: ('A' for Active; 'I' for Inactive)
REMARK    1  A    between atoms: C15_21  and  N1_5 
REMARK    2  A    between atoms: C17_23  and  N2_6 
REMARK    3  A    between atoms: C11_17  and  C4_10 
ROOT
HETATM    1  O1  UNK     1      32.247  -4.499  36.912  1.00  0.00    -0.332 OA
HETATM    2  O2  UNK     1      32.574  -7.230  32.897  1.00  0.00    -0.274 OA
HETATM    3  O3  UNK     1      29.043  -6.113  36.498  1.00  0.00    -0.289 OA
HETATM    4  O4  UNK     1      32.806  -8.561  31.047  1.00  0.00    -0.260 OA
HETATM    5  C1  UNK     1      31.123  -5.244  37.384  1.00  0.00     0.125 C 
HETATM    6  C2  UNK     1      32.309  -5.808  34.856  1.00  0.00     0.048 A 
HETATM    7  C3  UNK     1      30.212  -5.798  36.284  1.00  0.00     0.196 C 
HETATM    8  C4  UNK     1      30.849  -5.966  34.943  1.00  0.00     0.044 C 
HETATM    9  C5  UNK     1      32.929  -5.048  35.857  1.00  0.00     0.084 A 
HETATM   10  C6  UNK     1      30.313  -4.259  38.239  1.00  0.00     0.055 C 
HETATM   11  C7  UNK     1      31.606  -6.400  38.270  1.00  0.00     0.055 C 
HETATM   12  C8  UNK     1      33.138  -6.366  33.868  1.00  0.00     0.103 A 
HETATM   13  C9  UNK     1      34.516  -6.124  33.829  1.00  0.00    -0.001 A 
HETATM   14  C10 UNK     1      34.301  -4.777  35.817  1.00  0.00     0.039 A 
HETATM   15  C12 UNK     1      35.092  -5.311  34.803  1.00  0.00     0.017 A 
HETATM   16  C13 UNK     1      35.318  -6.725  32.775  1.00  0.00     0.020 A 
HETATM   17  C14 UNK     1      34.756  -7.521  31.863  1.00  0.00     0.083 A 
HETATM   18  C16 UNK     1      33.317  -7.824  31.883  1.00  0.00     0.288 A 
ENDROOT
BRANCH   8  19
HETATM   19  C11 UNK     1      30.022  -6.129  33.899  1.00  0.00     0.104 C 
HETATM   20  N1  UNK     1      29.545  -7.290  33.396  1.00  0.00    -0.363 N 
HETATM   21  H11 UNK     1      29.766  -8.130  33.915  1.00  0.00     0.165 HD
BRANCH  20  22
HETATM   22  C15 UNK     1      28.680  -7.487  32.304  1.00  0.00     0.058 A 
HETATM   23  C17 UNK     1      28.832  -8.584  31.450  1.00  0.00     0.052 A 
HETATM   24  C19 UNK     1      27.966  -8.759  30.372  1.00  0.00     0.031 A 
HETATM   25  C21 UNK     1      26.944  -7.837  30.141  1.00  0.00     0.002 A 
HETATM   26  C20 UNK     1      26.789  -6.741  30.988  1.00  0.00     0.002 A 
HETATM   27  C18 UNK     1      27.656  -6.566  32.068  1.00  0.00     0.032 A 
BRANCH  23  28
HETATM   28  N2  UNK     1      29.861  -9.529  31.665  1.00  0.00    -0.397 N 
HETATM   29  H17 UNK     1      30.818  -9.213  31.750  1.00  0.00     0.156 HD
HETATM   30  H18 UNK     1      29.666 -10.519  31.642  1.00  0.00     0.156 HD
ENDBRANCH  23  28
ENDBRANCH  20  22
ENDBRANCH   8  19
TORSDOF 3
ENDMDL
MODEL 8
REMARK VINA RESULT:      -8.4      2.199      7.592
REMARK  3 active torsions:
REMARK  status: ('A' for Active; 'I' for Inactive)
REMARK    1  A    between atoms: C15_21  and  N1_5 
REMARK    2  A    between atoms: C17_23  and  N2_6 
REMARK    3  A    between atoms: C11_17  and  C4_10 
ROOT
HETATM    1  O1  UNK     1      18.875  -3.413  36.824  1.00  0.00    -0.332 OA
HETATM    2  O2  UNK     1      18.690   0.958  34.691  1.00  0.00    -0.274 OA
HETATM    3  O3  UNK     1      20.802  -3.667  33.780  1.00  0.00    -0.289 OA
HETATM    4  O4  UNK     1      18.639   3.055  33.770  1.00  0.00    -0.260 OA
HETATM    5  C1  UNK     1      20.035  -3.782  36.074  1.00  0.00     0.125 C 
HETATM    6  C2  UNK     1      18.740  -1.279  35.651  1.00  0.00     0.048 A 
HETATM    7  C3  UNK     1      20.110  -3.175  34.669  1.00  0.00     0.196 C 
HETATM    8  C4  UNK     1      19.319  -1.925  34.463  1.00  0.00     0.044 C 
HETATM    9  C5  UNK     1      18.528  -2.087  36.777  1.00  0.00     0.084 A 
HETATM   10  C6  UNK     1      19.965  -5.310  35.944  1.00  0.00     0.055 C 
HETATM   11  C7  UNK     1      21.297  -3.401  36.859  1.00  0.00     0.055 C 
HETATM   12  C8  UNK     1      18.396   0.079  35.762  1.00  0.00     0.103 A 
HETATM   13  C9  UNK     1      17.801   0.604  36.915  1.00  0.00    -0.001 A 
HETATM   14  C10 UNK     1      17.911  -1.583  37.926  1.00  0.00     0.039 A 
HETATM   15  C12 UNK     1      17.545  -0.241  37.994  1.00  0.00     0.017 A 
HETATM   16  C13 UNK     1      17.462   2.017  36.964  1.00  0.00     0.020 A 
HETATM   17  C14 UNK     1      17.734   2.819  35.932  1.00  0.00     0.083 A 
HETATM   18  C16 UNK     1      18.384   2.314  34.713  1.00  0.00     0.288 A 
ENDROOT
BRANCH   8  19
HETATM   19  C11 UNK     1      19.097  -1.555  33.193  1.00  0.00     0.104 C 
HETATM   20  N1  UNK     1      19.949  -0.922  32.355  1.00  0.00    -0.363 N 
HETATM   21  H11 UNK     1      20.893  -0.785  32.692  1.00  0.00     0.165 HD
BRANCH  20  22
HETATM   22  C15 UNK     1      19.739  -0.523  31.021  1.00  0.00     0.058 A 
HETATM   23  C17 UNK     1      20.071  -1.364  29.955  1.00  0.00     0.052 A 
HETATM   24  C19 UNK     1      19.858  -0.949  28.641  1.00  0.00     0.031 A 
HETATM   25  C21 UNK     1      19.313   0.309  28.388  1.00  0.00     0.002 A 
HETATM   26  C20 UNK     1      18.981   1.153  29.448  1.00  0.00     0.002 A 
HETATM   27  C18 UNK     1      19.193   0.737  30.762  1.00  0.00     0.032 A 
BRANCH  23  28
HETATM   28  N2  UNK     1      20.626  -2.643  30.190  1.00  0.00    -0.397 N 
HETATM   29  H17 UNK     1      21.629  -2.767  30.145  1.00  0.00     0.156 HD
HETATM   30  H18 UNK     1      20.032  -3.450  30.309  1.00  0.00     0.156 HD
ENDBRANCH  23  28
ENDBRANCH  20  22
ENDBRANCH   8  19
TORSDOF 3
ENDMDL
MODEL 9
REMARK VINA RESULT:      -8.4      1.753      2.639
REMARK  3 active torsions:
REMARK  status: ('A' for Active; 'I' for Inactive)
REMARK    1  A    between atoms: C15_21  and  N1_5 
REMARK    2  A    between atoms: C17_23  and  N2_6 
REMARK    3  A    between atoms: C11_17  and  C4_10 
ROOT
HETATM    1  O1  UNK     1      18.931   6.904  32.103  1.00  0.00    -0.332 OA
HETATM    2  O2  UNK     1      18.749   2.062  31.640  1.00  0.00    -0.274 OA
HETATM    3  O3  UNK     1      19.814   5.525  35.321  1.00  0.00    -0.289 OA
HETATM    4  O4  UNK     1      18.727  -0.210  31.347  1.00  0.00    -0.260 OA
HETATM    5  C1  UNK     1      19.751   6.808  33.268  1.00  0.00     0.125 C 
HETATM    6  C2  UNK     1      18.761   4.474  31.968  1.00  0.00     0.048 A 
HETATM    7  C3  UNK     1      19.494   5.572  34.136  1.00  0.00     0.196 C 
HETATM    8  C4  UNK     1      18.864   4.413  33.435  1.00  0.00     0.044 C 
HETATM    9  C5  UNK     1      18.778   5.747  31.381  1.00  0.00     0.084 A 
HETATM   10  C6  UNK     1      19.429   8.061  34.096  1.00  0.00     0.055 C 
HETATM   11  C7  UNK     1      21.230   6.841  32.861  1.00  0.00     0.055 C 
HETATM   12  C8  UNK     1      18.663   3.370  31.104  1.00  0.00     0.103 A 
HETATM   13  C9  UNK     1      18.516   3.520  29.721  1.00  0.00    -0.001 A 
HETATM   14  C10 UNK     1      18.608   5.913  30.003  1.00  0.00     0.039 A 
HETATM   15  C12 UNK     1      18.474   4.801  29.174  1.00  0.00     0.017 A 
HETATM   16  C13 UNK     1      18.413   2.336  28.881  1.00  0.00     0.020 A 
HETATM   17  C14 UNK     1      18.479   1.115  29.415  1.00  0.00     0.083 A 
HETATM   18  C16 UNK     1      18.660   0.913  30.861  1.00  0.00     0.288 A 
ENDROOT
BRANCH   8  19
HETATM   19  C11 UNK     1      18.330   3.456  34.210  1.00  0.00     0.104 C 
HETATM   20  N1  UNK     1      18.983   2.572  34.998  1.00  0.00    -0.363 N 
HETATM   21  H11 UNK     1      19.983   2.696  35.081  1.00  0.00     0.165 HD
BRANCH  20  22
HETATM   22  C15 UNK     1      18.447   1.561  35.818  1.00  0.00     0.058 A 
HETATM   23  C17 UNK     1      18.430   0.227  35.401  1.00  0.00     0.052 A 
HETATM   24  C19 UNK     1      17.892  -0.759  36.228  1.00  0.00     0.031 A 
HETATM   25  C21 UNK     1      17.368  -0.415  37.474  1.00  0.00     0.002 A 
HETATM   26  C20 UNK     1      17.382   0.914  37.894  1.00  0.00     0.002 A 
HETATM   27  C18 UNK     1      17.921   1.901  37.067  1.00  0.00     0.032 A 
BRANCH  23  28
HETATM   28  N2  UNK     1      18.954  -0.144  34.142  1.00  0.00    -0.397 N 
HETATM   29  H17 UNK     1      19.734   0.372  33.755  1.00  0.00     0.156 HD
HETATM   30  H18 UNK     1      18.504  -0.854  33.583  1.00  0.00     0.156 HD
ENDBRANCH  23  28
ENDBRANCH  20  22
ENDBRANCH   8  19
TORSDOF 3
ENDMDL
MODEL 10
REMARK VINA RESULT:      -8.4     23.891     26.524
REMARK  3 active torsions:
REMARK  status: ('A' for Active; 'I' for Inactive)
REMARK    1  A    between atoms: C15_21  and  N1_5 
REMARK    2  A    between atoms: C17_23  and  N2_6 
REMARK    3  A    between atoms: C11_17  and  C4_10 
ROOT
HETATM    1  O1  UNK     1      14.366   7.465   8.319  1.00  0.00    -0.332 OA
HETATM    2  O2  UNK     1       9.537   7.670   8.885  1.00  0.00    -0.274 OA
HETATM    3  O3  UNK     1      13.769   8.829  11.608  1.00  0.00    -0.289 OA
HETATM    4  O4  UNK     1       7.259   7.670   9.131  1.00  0.00    -0.260 OA
HETATM    5  C1  UNK     1      14.582   7.535   9.729  1.00  0.00     0.125 C 
HETATM    6  C2  UNK     1      11.958   7.690   8.629  1.00  0.00     0.048 A 
HETATM    7  C3  UNK     1      13.540   8.355  10.498  1.00  0.00     0.196 C 
HETATM    8  C4  UNK     1      12.215   8.507   9.825  1.00  0.00     0.044 C 
HETATM    9  C5  UNK     1      13.075   7.227   7.921  1.00  0.00     0.084 A 
HETATM   10  C6  UNK     1      15.953   8.205   9.898  1.00  0.00     0.055 C 
HETATM   11  C7  UNK     1      14.639   6.117  10.313  1.00  0.00     0.055 C 
HETATM   12  C8  UNK     1      10.692   7.318   8.144  1.00  0.00     0.103 A 
HETATM   13  C9  UNK     1      10.534   6.579   6.967  1.00  0.00    -0.001 A 
HETATM   14  C10 UNK     1      12.933   6.509   6.729  1.00  0.00     0.039 A 
HETATM   15  C12 UNK     1      11.664   6.188   6.251  1.00  0.00     0.017 A 
HETATM   16  C13 UNK     1       9.195   6.234   6.514  1.00  0.00     0.020 A 
HETATM   17  C14 UNK     1       8.123   6.594   7.223  1.00  0.00     0.083 A 
HETATM   18  C16 UNK     1       8.246   7.347   8.480  1.00  0.00     0.288 A 
ENDROOT
BRANCH   8  19
HETATM   19  C11 UNK     1      11.407   9.469  10.296  1.00  0.00     0.104 C 
HETATM   20  N1  UNK     1      10.603  10.294   9.587  1.00  0.00    -0.363 N 
HETATM   21  H11 UNK     1      10.537  10.113   8.593  1.00  0.00     0.165 HD
BRANCH  20  22
HETATM   22  C15 UNK     1       9.749  11.309  10.056  1.00  0.00     0.058 A 
HETATM   23  C17 UNK     1       8.621  11.005  10.824  1.00  0.00     0.052 A 
HETATM   24  C19 UNK     1       7.786  12.026  11.277  1.00  0.00     0.031 A 
HETATM   25  C21 UNK     1       8.073  13.354  10.964  1.00  0.00     0.002 A 
HETATM   26  C20 UNK     1       9.197  13.662  10.197  1.00  0.00     0.002 A 
HETATM   27  C18 UNK     1      10.033  12.641   9.744  1.00  0.00     0.032 A 
BRANCH  23  28
HETATM   28  N2  UNK     1       8.310   9.666  11.153  1.00  0.00    -0.397 N 
HETATM   29  H17 UNK     1       7.372   9.320  11.000  1.00  0.00     0.156 HD
HETATM   30  H18 UNK     1       8.983   9.080  11.623  1.00  0.00     0.156 HD
ENDBRANCH  23  28
ENDBRANCH  20  22
ENDBRANCH   8  19
TORSDOF 3
ENDMDL
