MODEL 1
REMARK VINA RESULT:      -8.6      0.000      0.000
REMARK  4 active torsions:
REMARK  status: ('A' for Active; 'I' for Inactive)
REMARK    1  A    between atoms: C10_16  and  O2_2 
REMARK    2  A    between atoms: C13_19  and  O3_3 
REMARK    3  A    between atoms: C1_7  and  N1_6 
REMARK       I    between atoms: C8_14  and  N1_6 
REMARK    4  A    between atoms: C5_11  and  C8_14 
ROOT
HETATM    1  O4  UNK     1      19.317   5.153  33.346  1.00  0.00    -0.267 OA
HETATM    2  N1  UNK     1      17.721   4.081  31.993  1.00  0.00    -0.323 N 
HETATM    3  C8  UNK     1      18.273   5.155  32.703  1.00  0.00     0.256 C 
HETATM    4  H3  UNK     1      16.868   4.241  31.465  1.00  0.00     0.169 HD
ENDROOT
BRANCH   2   5
HETATM    5  C1  UNK     1      18.227   2.787  31.862  1.00  0.00     0.035 A 
HETATM    6  C4  UNK     1      18.734   2.360  30.631  1.00  0.00     0.043 A 
HETATM    7  C2  UNK     1      19.243   1.066  30.497  1.00  0.00     0.000 A 
HETATM    8  C11 UNK     1      19.782   0.570  29.242  1.00  0.00     0.020 A 
HETATM    9  C3  UNK     1      19.233   0.221  31.604  1.00  0.00     0.089 A 
HETATM   10  C15 UNK     1      20.257  -0.675  29.160  1.00  0.00     0.083 A 
HETATM   11  C16 UNK     1      20.257  -1.588  30.317  1.00  0.00     0.288 A 
HETATM   12  O1  UNK     1      19.735  -1.093  31.509  1.00  0.00    -0.275 OA
HETATM   13  O5  UNK     1      20.696  -2.729  30.227  1.00  0.00    -0.260 OA
HETATM   14  C7  UNK     1      18.729   0.633  32.837  1.00  0.00     0.040 A 
HETATM   15  C6  UNK     1      18.225   1.925  32.962  1.00  0.00     0.032 A 
ENDBRANCH   2   5
BRANCH   3  16
HETATM   16  C5  UNK     1      17.477   6.410  32.678  1.00  0.00     0.035 A 
HETATM   17  C12 UNK     1      16.158   6.354  32.278  1.00  0.00     0.020 A 
HETATM   18  C14 UNK     1      15.411   7.532  32.256  1.00  0.00     0.040 A 
HETATM   19  C13 UNK     1      16.001   8.739  32.634  1.00  0.00     0.101 A 
HETATM   20  C10 UNK     1      17.336   8.768  33.033  1.00  0.00     0.102 A 
HETATM   21  C9  UNK     1      18.083   7.590  33.056  1.00  0.00     0.056 A 
BRANCH  19  22
HETATM   22  O3  UNK     1      15.261   9.882  32.607  1.00  0.00    -0.353 OA
HETATM   23  C18 UNK     1      14.120   9.938  33.460  1.00  0.00     0.210 C 
ENDBRANCH  19  22
BRANCH  20  24
HETATM   24  O2  UNK     1      17.922   9.939  33.406  1.00  0.00    -0.353 OA
HETATM   25  C17 UNK     1      19.125   9.850  34.165  1.00  0.00     0.210 C 
ENDBRANCH  20  24
ENDBRANCH   3  16
TORSDOF 4
ENDMDL
MODEL 2
REMARK VINA RESULT:      -8.5      7.870     10.467
REMARK  4 active torsions:
REMARK  status: ('A' for Active; 'I' for Inactive)
REMARK    1  A    between atoms: C10_16  and  O2_2 
REMARK    2  A    between atoms: C13_19  and  O3_3 
REMARK    3  A    between atoms: C1_7  and  N1_6 
REMARK       I    between atoms: C8_14  and  N1_6 
REMARK    4  A    between atoms: C5_11  and  C8_14 
ROOT
HETATM    1  O4  UNK     1      20.562  -3.843  36.107  1.00  0.00    -0.267 OA
HETATM    2  N1  UNK     1      18.445  -4.571  36.824  1.00  0.00    -0.323 N 
HETATM    3  C8  UNK     1      19.403  -3.623  36.442  1.00  0.00     0.256 C 
HETATM    4  H3  UNK     1      17.505  -4.247  37.034  1.00  0.00     0.169 HD
ENDROOT
BRANCH   2   5
HETATM    5  C1  UNK     1      18.593  -5.956  36.908  1.00  0.00     0.035 A 
HETATM    6  C4  UNK     1      19.124  -6.530  38.066  1.00  0.00     0.043 A 
HETATM    7  C2  UNK     1      19.272  -7.917  38.153  1.00  0.00     0.000 A 
HETATM    8  C11 UNK     1      19.818  -8.566  39.333  1.00  0.00     0.020 A 
HETATM    9  C3  UNK     1      18.883  -8.704  37.073  1.00  0.00     0.089 A 
HETATM   10  C15 UNK     1      19.941  -9.895  39.371  1.00  0.00     0.083 A 
HETATM   11  C16 UNK     1      19.537 -10.750  38.240  1.00  0.00     0.288 A 
HETATM   12  O1  UNK     1      19.018 -10.106  37.121  1.00  0.00    -0.275 OA
HETATM   13  O5  UNK     1      19.658 -11.968  38.290  1.00  0.00    -0.260 OA
HETATM   14  C7  UNK     1      18.353  -8.145  35.911  1.00  0.00     0.040 A 
HETATM   15  C6  UNK     1      18.208  -6.762  35.833  1.00  0.00     0.032 A 
ENDBRANCH   2   5
BRANCH   3  16
HETATM   16  C5  UNK     1      18.950  -2.208  36.480  1.00  0.00     0.035 A 
HETATM   17  C12 UNK     1      18.341  -1.736  37.624  1.00  0.00     0.020 A 
HETATM   18  C14 UNK     1      17.916  -0.407  37.661  1.00  0.00     0.040 A 
HETATM   19  C13 UNK     1      18.109   0.417  36.552  1.00  0.00     0.101 A 
HETATM   20  C10 UNK     1      18.726  -0.086  35.408  1.00  0.00     0.102 A 
HETATM   21  C9  UNK     1      19.151  -1.414  35.371  1.00  0.00     0.056 A 
BRANCH  19  22
HETATM   22  O3  UNK     1      17.688   1.712  36.599  1.00  0.00    -0.353 OA
HETATM   23  C18 UNK     1      16.478   1.976  37.305  1.00  0.00     0.210 C 
ENDBRANCH  19  22
BRANCH  20  24
HETATM   24  O2  UNK     1      18.921   0.709  34.319  1.00  0.00    -0.353 OA
HETATM   25  C17 UNK     1      18.671   0.132  33.040  1.00  0.00     0.210 C 
ENDBRANCH  20  24
ENDBRANCH   3  16
TORSDOF 4
ENDMDL
MODEL 3
REMARK VINA RESULT:      -8.5      2.153      9.171
REMARK  4 active torsions:
REMARK  status: ('A' for Active; 'I' for Inactive)
REMARK    1  A    between atoms: C10_16  and  O2_2 
REMARK    2  A    between atoms: C13_19  and  O3_3 
REMARK    3  A    between atoms: C1_7  and  N1_6 
REMARK       I    between atoms: C8_14  and  N1_6 
REMARK    4  A    between atoms: C5_11  and  C8_14 
ROOT
HETATM    1  O4  UNK     1      17.915   3.739  32.211  1.00  0.00    -0.267 OA
HETATM    2  N1  UNK     1      18.260   4.682  34.337  1.00  0.00    -0.323 N 
HETATM    3  C8  UNK     1      18.146   3.637  33.411  1.00  0.00     0.256 C 
HETATM    4  H3  UNK     1      18.501   4.451  35.296  1.00  0.00     0.169 HD
ENDROOT
BRANCH   2   5
HETATM    5  C1  UNK     1      18.137   6.053  34.104  1.00  0.00     0.035 A 
HETATM    6  C4  UNK     1      19.183   6.914  34.449  1.00  0.00     0.043 A 
HETATM    7  C2  UNK     1      19.063   8.286  34.217  1.00  0.00     0.000 A 
HETATM    8  C11 UNK     1      20.119   9.225  34.556  1.00  0.00     0.020 A 
HETATM    9  C3  UNK     1      17.892   8.771  33.641  1.00  0.00     0.089 A 
HETATM   10  C15 UNK     1      19.960  10.529  34.316  1.00  0.00     0.083 A 
HETATM   11  C16 UNK     1      18.729  11.067  33.708  1.00  0.00     0.288 A 
HETATM   12  O1  UNK     1      17.732  10.149  33.392  1.00  0.00    -0.275 OA
HETATM   13  O5  UNK     1      18.598  12.267  33.494  1.00  0.00    -0.260 OA
HETATM   14  C7  UNK     1      16.840   7.925  33.293  1.00  0.00     0.040 A 
HETATM   15  C6  UNK     1      16.969   6.558  33.527  1.00  0.00     0.032 A 
ENDBRANCH   2   5
BRANCH   3  16
HETATM   16  C5  UNK     1      18.301   2.270  33.972  1.00  0.00     0.035 A 
HETATM   17  C12 UNK     1      18.526   2.128  35.326  1.00  0.00     0.020 A 
HETATM   18  C14 UNK     1      18.670   0.845  35.854  1.00  0.00     0.040 A 
HETATM   19  C13 UNK     1      18.587  -0.267  35.015  1.00  0.00     0.101 A 
HETATM   20  C10 UNK     1      18.361  -0.096  33.650  1.00  0.00     0.102 A 
HETATM   21  C9  UNK     1      18.216   1.187  33.122  1.00  0.00     0.056 A 
BRANCH  19  22
HETATM   22  O3  UNK     1      18.731  -1.515  35.542  1.00  0.00    -0.353 OA
HETATM   23  C18 UNK     1      20.060  -1.962  35.800  1.00  0.00     0.210 C 
ENDBRANCH  19  22
BRANCH  20  24
HETATM   24  O2  UNK     1      18.277  -1.173  32.822  1.00  0.00    -0.353 OA
HETATM   25  C17 UNK     1      19.409  -1.450  32.000  1.00  0.00     0.210 C 
ENDBRANCH  20  24
ENDBRANCH   3  16
TORSDOF 4
ENDMDL
MODEL 4
REMARK VINA RESULT:      -8.4      2.689      8.981
REMARK  4 active torsions:
REMARK  status: ('A' for Active; 'I' for Inactive)
REMARK    1  A    between atoms: C10_16  and  O2_2 
REMARK    2  A    between atoms: C13_19  and  O3_3 
REMARK    3  A    between atoms: C1_7  and  N1_6 
REMARK       I    between atoms: C8_14  and  N1_6 
REMARK    4  A    between atoms: C5_11  and  C8_14 
ROOT
HETATM    1  O4  UNK     1      17.882   3.635  32.182  1.00  0.00    -0.267 OA
HETATM    2  N1  UNK     1      18.277   4.590  34.294  1.00  0.00    -0.323 N 
HETATM    3  C8  UNK     1      18.133   3.539  33.378  1.00  0.00     0.256 C 
HETATM    4  H3  UNK     1      18.531   4.362  35.251  1.00  0.00     0.169 HD
ENDROOT
BRANCH   2   5
HETATM    5  C1  UNK     1      18.169   5.960  34.052  1.00  0.00     0.035 A 
HETATM    6  C4  UNK     1      19.203   6.818  34.438  1.00  0.00     0.043 A 
HETATM    7  C2  UNK     1      19.099   8.190  34.197  1.00  0.00     0.000 A 
HETATM    8  C11 UNK     1      20.143   9.126  34.576  1.00  0.00     0.020 A 
HETATM    9  C3  UNK     1      17.954   8.678  33.572  1.00  0.00     0.089 A 
HETATM   10  C15 UNK     1      20.000  10.430  34.325  1.00  0.00     0.083 A 
HETATM   11  C16 UNK     1      18.797  10.971  33.666  1.00  0.00     0.288 A 
HETATM   12  O1  UNK     1      17.810  10.056  33.313  1.00  0.00    -0.275 OA
HETATM   13  O5  UNK     1      18.680  12.170  33.444  1.00  0.00    -0.260 OA
HETATM   14  C7  UNK     1      16.914   7.835  33.183  1.00  0.00     0.040 A 
HETATM   15  C6  UNK     1      17.028   6.468  33.427  1.00  0.00     0.032 A 
ENDBRANCH   2   5
BRANCH   3  16
HETATM   16  C5  UNK     1      18.278   2.174  33.948  1.00  0.00     0.035 A 
HETATM   17  C12 UNK     1      18.370   1.100  33.087  1.00  0.00     0.020 A 
HETATM   18  C14 UNK     1      18.507  -0.181  33.622  1.00  0.00     0.040 A 
HETATM   19  C13 UNK     1      18.548  -0.358  35.005  1.00  0.00     0.101 A 
HETATM   20  C10 UNK     1      18.452   0.744  35.853  1.00  0.00     0.102 A 
HETATM   21  C9  UNK     1      18.315   2.025  35.319  1.00  0.00     0.056 A 
BRANCH  19  22
HETATM   22  O3  UNK     1      18.681  -1.615  35.515  1.00  0.00    -0.353 OA
HETATM   23  C18 UNK     1      19.997  -2.164  35.555  1.00  0.00     0.210 C 
ENDBRANCH  19  22
BRANCH  20  24
HETATM   24  O2  UNK     1      18.493   0.583  37.205  1.00  0.00    -0.353 OA
HETATM   25  C17 UNK     1      17.417   1.139  37.957  1.00  0.00     0.210 C 
ENDBRANCH  20  24
ENDBRANCH   3  16
TORSDOF 4
ENDMDL
MODEL 5
REMARK VINA RESULT:      -8.4      6.731      9.259
REMARK  4 active torsions:
REMARK  status: ('A' for Active; 'I' for Inactive)
REMARK    1  A    between atoms: C10_16  and  O2_2 
REMARK    2  A    between atoms: C13_19  and  O3_3 
REMARK    3  A    between atoms: C1_7  and  N1_6 
REMARK       I    between atoms: C8_14  and  N1_6 
REMARK    4  A    between atoms: C5_11  and  C8_14 
ROOT
HETATM    1  O4  UNK     1      18.434  -1.775  37.762  1.00  0.00    -0.267 OA
HETATM    2  N1  UNK     1      19.465  -3.019  36.055  1.00  0.00    -0.323 N 
HETATM    3  C8  UNK     1      18.818  -1.905  36.605  1.00  0.00     0.256 C 
HETATM    4  H3  UNK     1      19.768  -2.969  35.086  1.00  0.00     0.169 HD
ENDROOT
BRANCH   2   5
HETATM    5  C1  UNK     1      19.813  -4.212  36.691  1.00  0.00     0.035 A 
HETATM    6  C4  UNK     1      19.023  -5.351  36.514  1.00  0.00     0.043 A 
HETATM    7  C2  UNK     1      19.370  -6.546  37.148  1.00  0.00     0.000 A 
HETATM    8  C11 UNK     1      18.585  -7.760  36.999  1.00  0.00     0.020 A 
HETATM    9  C3  UNK     1      20.507  -6.576  37.952  1.00  0.00     0.089 A 
HETATM   10  C15 UNK     1      18.955  -8.880  37.625  1.00  0.00     0.083 A 
HETATM   11  C16 UNK     1      20.153  -8.937  38.482  1.00  0.00     0.288 A 
HETATM   12  O1  UNK     1      20.889  -7.762  38.611  1.00  0.00    -0.275 OA
HETATM   13  O5  UNK     1      20.479  -9.972  39.051  1.00  0.00    -0.260 OA
HETATM   14  C7  UNK     1      21.303  -5.447  38.139  1.00  0.00     0.040 A 
HETATM   15  C6  UNK     1      20.950  -4.260  37.501  1.00  0.00     0.032 A 
ENDBRANCH   2   5
BRANCH   3  16
HETATM   16  C5  UNK     1      18.557  -0.789  35.659  1.00  0.00     0.035 A 
HETATM   17  C12 UNK     1      18.137   0.425  36.163  1.00  0.00     0.020 A 
HETATM   18  C14 UNK     1      17.894   1.474  35.275  1.00  0.00     0.040 A 
HETATM   19  C13 UNK     1      18.075   1.283  33.905  1.00  0.00     0.101 A 
HETATM   20  C10 UNK     1      18.499   0.046  33.422  1.00  0.00     0.102 A 
HETATM   21  C9  UNK     1      18.743  -1.002  34.309  1.00  0.00     0.056 A 
BRANCH  19  22
HETATM   22  O3  UNK     1      17.833   2.315  33.048  1.00  0.00    -0.353 OA
HETATM   23  C18 UNK     1      18.183   3.623  33.492  1.00  0.00     0.210 C 
ENDBRANCH  19  22
BRANCH  20  24
HETATM   24  O2  UNK     1      18.681  -0.151  32.087  1.00  0.00    -0.353 OA
HETATM   25  C17 UNK     1      19.470  -1.273  31.699  1.00  0.00     0.210 C 
ENDBRANCH  20  24
ENDBRANCH   3  16
TORSDOF 4
ENDMDL
MODEL 6
REMARK VINA RESULT:      -8.3     14.570     17.381
REMARK  4 active torsions:
REMARK  status: ('A' for Active; 'I' for Inactive)
REMARK    1  A    between atoms: C10_16  and  O2_2 
REMARK    2  A    between atoms: C13_19  and  O3_3 
REMARK    3  A    between atoms: C1_7  and  N1_6 
REMARK       I    between atoms: C8_14  and  N1_6 
REMARK    4  A    between atoms: C5_11  and  C8_14 
ROOT
HETATM    1  O4  UNK     1      19.305   0.800  15.255  1.00  0.00    -0.267 OA
HETATM    2  N1  UNK     1      18.790  -1.302  16.174  1.00  0.00    -0.323 N 
HETATM    3  C8  UNK     1      19.037   0.077  16.209  1.00  0.00     0.256 C 
HETATM    4  H3  UNK     1      18.534  -1.766  17.041  1.00  0.00     0.169 HD
ENDROOT
BRANCH   2   5
HETATM    5  C1  UNK     1      18.793  -2.148  15.064  1.00  0.00     0.035 A 
HETATM    6  C4  UNK     1      19.169  -1.651  13.813  1.00  0.00     0.043 A 
HETATM    7  C2  UNK     1      19.174  -2.496  12.700  1.00  0.00     0.000 A 
HETATM    8  C11 UNK     1      19.556  -2.034  11.376  1.00  0.00     0.020 A 
HETATM    9  C3  UNK     1      18.801  -3.828  12.864  1.00  0.00     0.089 A 
HETATM   10  C15 UNK     1      19.546  -2.877  10.341  1.00  0.00     0.083 A 
HETATM   11  C16 UNK     1      19.154  -4.291  10.489  1.00  0.00     0.288 A 
HETATM   12  O1  UNK     1      18.792  -4.711  11.766  1.00  0.00    -0.275 OA
HETATM   13  O5  UNK     1      19.148  -5.052   9.530  1.00  0.00    -0.260 OA
HETATM   14  C7  UNK     1      18.423  -4.336  14.106  1.00  0.00     0.040 A 
HETATM   15  C6  UNK     1      18.421  -3.487  15.210  1.00  0.00     0.032 A 
ENDBRANCH   2   5
BRANCH   3  16
HETATM   16  C5  UNK     1      18.989   0.699  17.557  1.00  0.00     0.035 A 
HETATM   17  C12 UNK     1      18.577  -0.067  18.628  1.00  0.00     0.020 A 
HETATM   18  C14 UNK     1      18.532   0.516  19.895  1.00  0.00     0.040 A 
HETATM   19  C13 UNK     1      18.900   1.852  20.061  1.00  0.00     0.101 A 
HETATM   20  C10 UNK     1      19.311   2.604  18.961  1.00  0.00     0.102 A 
HETATM   21  C9  UNK     1      19.356   2.021  17.695  1.00  0.00     0.056 A 
BRANCH  19  22
HETATM   22  O3  UNK     1      18.851   2.410  21.302  1.00  0.00    -0.353 OA
HETATM   23  C18 UNK     1      20.007   2.269  22.124  1.00  0.00     0.210 C 
ENDBRANCH  19  22
BRANCH  20  24
HETATM   24  O2  UNK     1      19.674   3.908  19.111  1.00  0.00    -0.353 OA
HETATM   25  C17 UNK     1      20.832   4.344  18.404  1.00  0.00     0.210 C 
ENDBRANCH  20  24
ENDBRANCH   3  16
TORSDOF 4
ENDMDL
MODEL 7
REMARK VINA RESULT:      -8.3      1.546      8.987
REMARK  4 active torsions:
REMARK  status: ('A' for Active; 'I' for Inactive)
REMARK    1  A    between atoms: C10_16  and  O2_2 
REMARK    2  A    between atoms: C13_19  and  O3_3 
REMARK    3  A    between atoms: C1_7  and  N1_6 
REMARK       I    between atoms: C8_14  and  N1_6 
REMARK    4  A    between atoms: C5_11  and  C8_14 
ROOT
HETATM    1  O4  UNK     1      17.840   3.302  33.298  1.00  0.00    -0.267 OA
HETATM    2  N1  UNK     1      18.134   4.994  31.693  1.00  0.00    -0.323 N 
HETATM    3  C8  UNK     1      18.134   3.677  32.168  1.00  0.00     0.256 C 
HETATM    4  H3  UNK     1      18.358   5.152  30.715  1.00  0.00     0.169 HD
ENDROOT
BRANCH   2   5
HETATM    5  C1  UNK     1      17.805   6.159  32.389  1.00  0.00     0.035 A 
HETATM    6  C4  UNK     1      16.467   6.440  32.679  1.00  0.00     0.043 A 
HETATM    7  C2  UNK     1      16.134   7.605  33.376  1.00  0.00     0.000 A 
HETATM    8  C11 UNK     1      14.761   7.946  33.706  1.00  0.00     0.020 A 
HETATM    9  C3  UNK     1      17.154   8.468  33.770  1.00  0.00     0.089 A 
HETATM   10  C15 UNK     1      14.490   9.070  34.373  1.00  0.00     0.083 A 
HETATM   11  C16 UNK     1      15.551  10.000  34.800  1.00  0.00     0.288 A 
HETATM   12  O1  UNK     1      16.859   9.653  34.473  1.00  0.00    -0.275 OA
HETATM   13  O5  UNK     1      15.287  11.029  35.411  1.00  0.00    -0.260 OA
HETATM   14  C7  UNK     1      18.492   8.200  33.485  1.00  0.00     0.040 A 
HETATM   15  C6  UNK     1      18.814   7.036  32.791  1.00  0.00     0.032 A 
ENDBRANCH   2   5
BRANCH   3  16
HETATM   16  C5  UNK     1      18.564   2.646  31.188  1.00  0.00     0.035 A 
HETATM   17  C12 UNK     1      18.291   2.846  29.850  1.00  0.00     0.020 A 
HETATM   18  C14 UNK     1      18.696   1.879  28.929  1.00  0.00     0.040 A 
HETATM   19  C13 UNK     1      19.363   0.735  29.367  1.00  0.00     0.101 A 
HETATM   20  C10 UNK     1      19.625   0.557  30.725  1.00  0.00     0.102 A 
HETATM   21  C9  UNK     1      19.221   1.523  31.646  1.00  0.00     0.056 A 
BRANCH  19  22
HETATM   22  O3  UNK     1      19.751  -0.202  28.458  1.00  0.00    -0.353 OA
HETATM   23  C18 UNK     1      18.767  -0.655  27.531  1.00  0.00     0.210 C 
ENDBRANCH  19  22
BRANCH  20  24
HETATM   24  O2  UNK     1      20.276  -0.555  31.164  1.00  0.00    -0.353 OA
HETATM   25  C17 UNK     1      19.536  -1.462  31.978  1.00  0.00     0.210 C 
ENDBRANCH  20  24
ENDBRANCH   3  16
TORSDOF 4
ENDMDL
MODEL 8
REMARK VINA RESULT:      -8.2      1.431      2.561
REMARK  4 active torsions:
REMARK  status: ('A' for Active; 'I' for Inactive)
REMARK    1  A    between atoms: C10_16  and  O2_2 
REMARK    2  A    between atoms: C13_19  and  O3_3 
REMARK    3  A    between atoms: C1_7  and  N1_6 
REMARK       I    between atoms: C8_14  and  N1_6 
REMARK    4  A    between atoms: C5_11  and  C8_14 
ROOT
HETATM    1  O4  UNK     1      19.684   5.775  31.888  1.00  0.00    -0.267 OA
HETATM    2  N1  UNK     1      17.888   4.279  32.137  1.00  0.00    -0.323 N 
HETATM    3  C8  UNK     1      18.563   5.495  32.299  1.00  0.00     0.256 C 
HETATM    4  H3  UNK     1      16.940   4.203  32.494  1.00  0.00     0.169 HD
ENDROOT
BRANCH   2   5
HETATM    5  C1  UNK     1      18.333   3.130  31.481  1.00  0.00     0.035 A 
HETATM    6  C4  UNK     1      18.587   1.966  32.212  1.00  0.00     0.043 A 
HETATM    7  C2  UNK     1      19.033   0.814  31.558  1.00  0.00     0.000 A 
HETATM    8  C11 UNK     1      19.311  -0.423  32.268  1.00  0.00     0.020 A 
HETATM    9  C3  UNK     1      19.215   0.852  30.178  1.00  0.00     0.089 A 
HETATM   10  C15 UNK     1      19.735  -1.499  31.601  1.00  0.00     0.083 A 
HETATM   11  C16 UNK     1      19.937  -1.484  30.141  1.00  0.00     0.288 A 
HETATM   12  O1  UNK     1      19.665  -0.288  29.482  1.00  0.00    -0.275 OA
HETATM   13  O5  UNK     1      20.328  -2.479  29.543  1.00  0.00    -0.260 OA
HETATM   14  C7  UNK     1      18.967   2.006  29.437  1.00  0.00     0.040 A 
HETATM   15  C6  UNK     1      18.523   3.149  30.097  1.00  0.00     0.032 A 
ENDBRANCH   2   5
BRANCH   3  16
HETATM   16  C5  UNK     1      17.832   6.530  33.077  1.00  0.00     0.035 A 
HETATM   17  C12 UNK     1      18.556   7.425  33.837  1.00  0.00     0.020 A 
HETATM   18  C14 UNK     1      17.870   8.396  34.567  1.00  0.00     0.040 A 
HETATM   19  C13 UNK     1      16.477   8.450  34.519  1.00  0.00     0.101 A 
HETATM   20  C10 UNK     1      15.770   7.532  33.744  1.00  0.00     0.102 A 
HETATM   21  C9  UNK     1      16.455   6.561  33.014  1.00  0.00     0.056 A 
BRANCH  19  22
HETATM   22  O3  UNK     1      15.819   9.402  35.237  1.00  0.00    -0.353 OA
HETATM   23  C18 UNK     1      15.694  10.692  34.643  1.00  0.00     0.210 C 
ENDBRANCH  19  22
BRANCH  20  24
HETATM   24  O2  UNK     1      14.410   7.575  33.689  1.00  0.00    -0.353 OA
HETATM   25  C17 UNK     1      13.803   7.299  32.428  1.00  0.00     0.210 C 
ENDBRANCH  20  24
ENDBRANCH   3  16
TORSDOF 4
ENDMDL
MODEL 9
REMARK VINA RESULT:      -8.1      5.986     11.188
REMARK  4 active torsions:
REMARK  status: ('A' for Active; 'I' for Inactive)
REMARK    1  A    between atoms: C10_16  and  O2_2 
REMARK    2  A    between atoms: C13_19  and  O3_3 
REMARK    3  A    between atoms: C1_7  and  N1_6 
REMARK       I    between atoms: C8_14  and  N1_6 
REMARK    4  A    between atoms: C5_11  and  C8_14 
ROOT
HETATM    1  O4  UNK     1      21.335  -2.420  35.776  1.00  0.00    -0.267 OA
HETATM    2  N1  UNK     1      19.011  -2.453  35.421  1.00  0.00    -0.323 N 
HETATM    3  C8  UNK     1      20.230  -2.935  35.914  1.00  0.00     0.256 C 
HETATM    4  H3  UNK     1      18.163  -2.963  35.652  1.00  0.00     0.169 HD
ENDROOT
BRANCH   2   5
HETATM    5  C1  UNK     1      18.783  -1.296  34.674  1.00  0.00     0.035 A 
HETATM    6  C4  UNK     1      19.177  -1.245  33.334  1.00  0.00     0.043 A 
HETATM    7  C2  UNK     1      18.950  -0.089  32.583  1.00  0.00     0.000 A 
HETATM    8  C11 UNK     1      19.338   0.018  31.187  1.00  0.00     0.020 A 
HETATM    9  C3  UNK     1      18.329   0.998  33.193  1.00  0.00     0.089 A 
HETATM   10  C15 UNK     1      19.101   1.143  30.508  1.00  0.00     0.083 A 
HETATM   11  C16 UNK     1      18.446   2.308  31.132  1.00  0.00     0.288 A 
HETATM   12  O1  UNK     1      18.083   2.182  32.470  1.00  0.00    -0.275 OA
HETATM   13  O5  UNK     1      18.235   3.334  30.496  1.00  0.00    -0.260 OA
HETATM   14  C7  UNK     1      17.932   0.961  34.528  1.00  0.00     0.040 A 
HETATM   15  C6  UNK     1      18.161  -0.196  35.269  1.00  0.00     0.032 A 
ENDBRANCH   2   5
BRANCH   3  16
HETATM   16  C5  UNK     1      20.154  -4.220  36.657  1.00  0.00     0.035 A 
HETATM   17  C12 UNK     1      21.125  -4.506  37.593  1.00  0.00     0.020 A 
HETATM   18  C14 UNK     1      21.053  -5.712  38.291  1.00  0.00     0.040 A 
HETATM   19  C13 UNK     1      20.011  -6.604  38.035  1.00  0.00     0.101 A 
HETATM   20  C10 UNK     1      19.043  -6.291  37.082  1.00  0.00     0.102 A 
HETATM   21  C9  UNK     1      19.115  -5.085  36.385  1.00  0.00     0.056 A 
BRANCH  19  22
HETATM   22  O3  UNK     1      19.952  -7.779  38.722  1.00  0.00    -0.353 OA
HETATM   23  C18 UNK     1      20.799  -8.836  38.275  1.00  0.00     0.210 C 
ENDBRANCH  19  22
BRANCH  20  24
HETATM   24  O2  UNK     1      18.021  -7.153  36.825  1.00  0.00    -0.353 OA
HETATM   25  C17 UNK     1      17.674  -7.359  35.457  1.00  0.00     0.210 C 
ENDBRANCH  20  24
ENDBRANCH   3  16
TORSDOF 4
ENDMDL
MODEL 10
REMARK VINA RESULT:      -8.1      7.260      9.843
REMARK  4 active torsions:
REMARK  status: ('A' for Active; 'I' for Inactive)
REMARK    1  A    between atoms: C10_16  and  O2_2 
REMARK    2  A    between atoms: C13_19  and  O3_3 
REMARK    3  A    between atoms: C1_7  and  N1_6 
REMARK       I    between atoms: C8_14  and  N1_6 
REMARK    4  A    between atoms: C5_11  and  C8_14 
ROOT
HETATM    1  O4  UNK     1      21.027  -2.899  36.116  1.00  0.00    -0.267 OA
HETATM    2  N1  UNK     1      19.352  -4.306  36.977  1.00  0.00    -0.323 N 
HETATM    3  C8  UNK     1      19.885  -3.095  36.518  1.00  0.00     0.256 C 
HETATM    4  H3  UNK     1      18.371  -4.331  37.238  1.00  0.00     0.169 HD
ENDROOT
BRANCH   2   5
HETATM    5  C1  UNK     1      19.992  -5.542  37.079  1.00  0.00     0.035 A 
HETATM    6  C4  UNK     1      20.170  -6.330  35.939  1.00  0.00     0.043 A 
HETATM    7  C2  UNK     1      20.811  -7.567  36.038  1.00  0.00     0.000 A 
HETATM    8  C11 UNK     1      21.024  -8.426  34.885  1.00  0.00     0.020 A 
HETATM    9  C3  UNK     1      21.262  -7.994  37.285  1.00  0.00     0.089 A 
HETATM   10  C15 UNK     1      21.641  -9.601  35.028  1.00  0.00     0.083 A 
HETATM   11  C16 UNK     1      22.127 -10.074  36.337  1.00  0.00     0.288 A 
HETATM   12  O1  UNK     1      21.912  -9.236  37.426  1.00  0.00    -0.275 OA
HETATM   13  O5  UNK     1      22.691 -11.156  36.452  1.00  0.00    -0.260 OA
HETATM   14  C7  UNK     1      21.090  -7.219  38.431  1.00  0.00     0.040 A 
HETATM   15  C6  UNK     1      20.451  -5.986  38.322  1.00  0.00     0.032 A 
ENDBRANCH   2   5
BRANCH   3  16
HETATM   16  C5  UNK     1      18.956  -1.935  36.555  1.00  0.00     0.035 A 
HETATM   17  C12 UNK     1      18.470  -1.512  37.775  1.00  0.00     0.020 A 
HETATM   18  C14 UNK     1      17.598  -0.423  37.810  1.00  0.00     0.040 A 
HETATM   19  C13 UNK     1      17.233   0.216  36.625  1.00  0.00     0.101 A 
HETATM   20  C10 UNK     1      17.738  -0.233  35.406  1.00  0.00     0.102 A 
HETATM   21  C9  UNK     1      18.609  -1.321  35.370  1.00  0.00     0.056 A 
BRANCH  19  22
HETATM   22  O3  UNK     1      16.380   1.277  36.673  1.00  0.00    -0.353 OA
HETATM   23  C18 UNK     1      14.985   0.988  36.731  1.00  0.00     0.210 C 
ENDBRANCH  19  22
BRANCH  20  24
HETATM   24  O2  UNK     1      17.389   0.384  34.243  1.00  0.00    -0.353 OA
HETATM   25  C17 UNK     1      18.255   1.414  33.770  1.00  0.00     0.210 C 
ENDBRANCH  20  24
ENDBRANCH   3  16
TORSDOF 4
ENDMDL
