MODEL 1
REMARK VINA RESULT:      -9.6      0.000      0.000
REMARK  3 active torsions:
REMARK  status: ('A' for Active; 'I' for Inactive)
REMARK    1  A    between atoms: C7_12  and  O2_2 
REMARK    2  A    between atoms: C1_6  and  N1_5 
REMARK       I    between atoms: C9_14  and  N1_5 
REMARK    3  A    between atoms: C3_8  and  C9_14 
ROOT
HETATM    1  O3  UNK     1      20.284  -5.116  35.288  1.00  0.00    -0.267 OA
HETATM    2  N1  UNK     1      19.649  -4.884  37.544  1.00  0.00    -0.320 N 
HETATM    3  C9  UNK     1      19.879  -4.456  36.243  1.00  0.00     0.262 C 
HETATM    4  H3  UNK     1      19.287  -4.213  38.218  1.00  0.00     0.169 HD
ENDROOT
BRANCH   3   5
HETATM    5  C3  UNK     1      19.579  -3.029  36.068  1.00  0.00     0.108 A 
HETATM    6  C12 UNK     1      20.050  -2.267  34.890  1.00  0.00     0.304 A 
HETATM    7  O1  UNK     1      19.700  -0.920  34.838  1.00  0.00    -0.274 OA
HETATM    8  O4  UNK     1      20.713  -2.790  34.001  1.00  0.00    -0.259 OA
HETATM    9  C4  UNK     1      18.938  -0.309  35.853  1.00  0.00     0.089 A 
HETATM   10  C14 UNK     1      18.638   1.044  35.713  1.00  0.00     0.038 A 
HETATM   11  C2  UNK     1      18.507  -1.046  36.952  1.00  0.00    -0.001 A 
HETATM   12  C17 UNK     1      17.886   1.675  36.701  1.00  0.00     0.003 A 
HETATM   13  C16 UNK     1      17.444   0.952  37.812  1.00  0.00     0.001 A 
HETATM   14  C13 UNK     1      17.753  -0.404  37.939  1.00  0.00     0.014 A 
HETATM   15  C5  UNK     1      18.855  -2.455  37.036  1.00  0.00     0.037 A 
ENDBRANCH   3   5
BRANCH   2  16
HETATM   16  C1  UNK     1      19.827  -6.187  38.069  1.00  0.00     0.069 A 
HETATM   17  C7  UNK     1      18.841  -7.144  37.894  1.00  0.00     0.095 A 
HETATM   18  C11 UNK     1      19.030  -8.423  38.417  1.00  0.00     0.039 A 
HETATM   19  C10 UNK     1      20.204  -8.727  39.108  1.00  0.00     0.009 A 
HETATM   20  C6  UNK     1      21.187  -7.752  39.275  1.00  0.00    -0.060 A 
HETATM   21  C15 UNK     1      22.442  -8.078  40.013  1.00  0.00     0.048 C 
HETATM   22  C8  UNK     1      20.998  -6.473  38.752  1.00  0.00     0.039 A 
BRANCH  17  23
HETATM   23  O2  UNK     1      17.689  -6.867  37.220  1.00  0.00    -0.354 OA
HETATM   24  C18 UNK     1      17.590  -7.348  35.881  1.00  0.00     0.210 C 
ENDBRANCH  17  23
ENDBRANCH   2  16
TORSDOF 3
ENDMDL
MODEL 2
REMARK VINA RESULT:      -9.4      7.973     11.910
REMARK  3 active torsions:
REMARK  status: ('A' for Active; 'I' for Inactive)
REMARK    1  A    between atoms: C7_12  and  O2_2 
REMARK    2  A    between atoms: C1_6  and  N1_5 
REMARK       I    between atoms: C9_14  and  N1_5 
REMARK    3  A    between atoms: C3_8  and  C9_14 
ROOT
HETATM    1  O3  UNK     1      17.582   3.249  32.863  1.00  0.00    -0.267 OA
HETATM    2  N1  UNK     1      18.701   4.753  31.438  1.00  0.00    -0.320 N 
HETATM    3  C9  UNK     1      18.264   3.509  31.874  1.00  0.00     0.262 C 
HETATM    4  H3  UNK     1      19.243   4.803  30.578  1.00  0.00     0.169 HD
ENDROOT
BRANCH   3   5
HETATM    5  C3  UNK     1      18.712   2.425  30.991  1.00  0.00     0.108 A 
HETATM    6  C12 UNK     1      18.719   2.564  29.518  1.00  0.00     0.304 A 
HETATM    7  O1  UNK     1      19.168   1.465  28.789  1.00  0.00    -0.274 OA
HETATM    8  O4  UNK     1      18.352   3.592  28.961  1.00  0.00    -0.259 OA
HETATM    9  C4  UNK     1      19.594   0.279  29.419  1.00  0.00     0.089 A 
HETATM   10  C14 UNK     1      20.026  -0.767  28.606  1.00  0.00     0.038 A 
HETATM   11  C2  UNK     1      19.578   0.171  30.806  1.00  0.00    -0.001 A 
HETATM   12  C17 UNK     1      20.453  -1.952  29.200  1.00  0.00     0.003 A 
HETATM   13  C16 UNK     1      20.444  -2.080  30.590  1.00  0.00     0.001 A 
HETATM   14  C13 UNK     1      20.008  -1.022  31.393  1.00  0.00     0.014 A 
HETATM   15  C5  UNK     1      19.116   1.301  31.596  1.00  0.00     0.037 A 
ENDBRANCH   3   5
BRANCH   2  16
HETATM   16  C1  UNK     1      18.459   6.013  32.037  1.00  0.00     0.069 A 
HETATM   17  C7  UNK     1      19.402   6.567  32.888  1.00  0.00     0.095 A 
HETATM   18  C11 UNK     1      19.149   7.809  33.471  1.00  0.00     0.039 A 
HETATM   19  C10 UNK     1      17.956   8.479  33.194  1.00  0.00     0.009 A 
HETATM   20  C6  UNK     1      17.018   7.908  32.336  1.00  0.00    -0.060 A 
HETATM   21  C15 UNK     1      15.744   8.626  32.040  1.00  0.00     0.048 C 
HETATM   22  C8  UNK     1      17.271   6.666  31.753  1.00  0.00     0.039 A 
BRANCH  17  23
HETATM   23  O2  UNK     1      20.573   5.929  33.168  1.00  0.00    -0.354 OA
HETATM   24  C18 UNK     1      21.712   6.296  32.393  1.00  0.00     0.210 C 
ENDBRANCH  17  23
ENDBRANCH   2  16
TORSDOF 3
ENDMDL
MODEL 3
REMARK VINA RESULT:      -9.2      7.102     11.700
REMARK  3 active torsions:
REMARK  status: ('A' for Active; 'I' for Inactive)
REMARK    1  A    between atoms: C7_12  and  O2_2 
REMARK    2  A    between atoms: C1_6  and  N1_5 
REMARK       I    between atoms: C9_14  and  N1_5 
REMARK    3  A    between atoms: C3_8  and  C9_14 
ROOT
HETATM    1  O3  UNK     1      18.613   4.464  30.240  1.00  0.00    -0.267 OA
HETATM    2  N1  UNK     1      18.017   4.429  32.518  1.00  0.00    -0.320 N 
HETATM    3  C9  UNK     1      18.451   3.889  31.314  1.00  0.00     0.262 C 
HETATM    4  H3  UNK     1      17.958   3.819  33.330  1.00  0.00     0.169 HD
ENDROOT
BRANCH   3   5
HETATM    5  C3  UNK     1      18.729   2.451  31.421  1.00  0.00     0.108 A 
HETATM    6  C12 UNK     1      18.338   1.663  32.611  1.00  0.00     0.304 A 
HETATM    7  O1  UNK     1      18.656   0.307  32.593  1.00  0.00    -0.274 OA
HETATM    8  O4  UNK     1      17.762   2.171  33.566  1.00  0.00    -0.259 OA
HETATM    9  C4  UNK     1      19.318  -0.288  31.501  1.00  0.00     0.089 A 
HETATM   10  C14 UNK     1      19.594  -1.651  31.575  1.00  0.00     0.038 A 
HETATM   11  C2  UNK     1      19.676   0.474  30.393  1.00  0.00    -0.001 A 
HETATM   12  C17 UNK     1      20.246  -2.267  30.510  1.00  0.00     0.003 A 
HETATM   13  C16 UNK     1      20.615  -1.520  29.389  1.00  0.00     0.001 A 
HETATM   14  C13 UNK     1      20.331  -0.153  29.329  1.00  0.00     0.014 A 
HETATM   15  C5  UNK     1      19.357   1.892  30.380  1.00  0.00     0.037 A 
ENDBRANCH   3   5
BRANCH   2  16
HETATM   16  C1  UNK     1      17.661   5.774  32.783  1.00  0.00     0.069 A 
HETATM   17  C7  UNK     1      18.571   6.623  33.391  1.00  0.00     0.095 A 
HETATM   18  C11 UNK     1      18.206   7.945  33.647  1.00  0.00     0.039 A 
HETATM   19  C10 UNK     1      16.936   8.399  33.289  1.00  0.00     0.009 A 
HETATM   20  C6  UNK     1      16.032   7.532  32.676  1.00  0.00    -0.060 A 
HETATM   21  C15 UNK     1      14.675   8.019  32.293  1.00  0.00     0.048 C 
HETATM   22  C8  UNK     1      16.397   6.210  32.421  1.00  0.00     0.039 A 
BRANCH  17  23
HETATM   23  O2  UNK     1      19.816   6.198  33.747  1.00  0.00    -0.354 OA
HETATM   24  C18 UNK     1      20.886   6.513  32.857  1.00  0.00     0.210 C 
ENDBRANCH  17  23
ENDBRANCH   2  16
TORSDOF 3
ENDMDL
MODEL 4
REMARK VINA RESULT:      -9.1      1.527      7.295
REMARK  3 active torsions:
REMARK  status: ('A' for Active; 'I' for Inactive)
REMARK    1  A    between atoms: C7_12  and  O2_2 
REMARK    2  A    between atoms: C1_6  and  N1_5 
REMARK       I    between atoms: C9_14  and  N1_5 
REMARK    3  A    between atoms: C3_8  and  C9_14 
ROOT
HETATM    1  O3  UNK     1      20.943  -3.109  37.700  1.00  0.00    -0.267 OA
HETATM    2  N1  UNK     1      19.073  -3.139  36.269  1.00  0.00    -0.320 N 
HETATM    3  C9  UNK     1      20.096  -3.693  37.027  1.00  0.00     0.262 C 
HETATM    4  H3  UNK     1      18.434  -3.766  35.785  1.00  0.00     0.169 HD
ENDROOT
BRANCH   3   5
HETATM    5  C3  UNK     1      20.099  -5.160  36.965  1.00  0.00     0.108 A 
HETATM    6  C12 UNK     1      20.173  -5.892  35.681  1.00  0.00     0.304 A 
HETATM    7  O1  UNK     1      20.170  -7.282  35.753  1.00  0.00    -0.274 OA
HETATM    8  O4  UNK     1      20.237  -5.308  34.605  1.00  0.00    -0.259 OA
HETATM    9  C4  UNK     1      20.098  -7.963  36.985  1.00  0.00     0.089 A 
HETATM   10  C14 UNK     1      20.099  -9.355  36.956  1.00  0.00     0.038 A 
HETATM   11  C2  UNK     1      20.028  -7.254  38.180  1.00  0.00    -0.001 A 
HETATM   12  C17 UNK     1      20.030 -10.056  38.158  1.00  0.00     0.003 A 
HETATM   13  C16 UNK     1      19.959  -9.362  39.368  1.00  0.00     0.001 A 
HETATM   14  C13 UNK     1      19.958  -7.965  39.381  1.00  0.00     0.014 A 
HETATM   15  C5  UNK     1      20.031  -5.800  38.139  1.00  0.00     0.037 A 
ENDBRANCH   3   5
BRANCH   2  16
HETATM   16  C1  UNK     1      18.770  -1.767  36.098  1.00  0.00     0.069 A 
HETATM   17  C7  UNK     1      18.995  -1.155  34.875  1.00  0.00     0.095 A 
HETATM   18  C11 UNK     1      18.691   0.198  34.723  1.00  0.00     0.039 A 
HETATM   19  C10 UNK     1      18.166   0.920  35.795  1.00  0.00     0.009 A 
HETATM   20  C6  UNK     1      17.945   0.290  37.019  1.00  0.00    -0.060 A 
HETATM   21  C15 UNK     1      17.383   1.063  38.164  1.00  0.00     0.048 C 
HETATM   22  C8  UNK     1      18.248  -1.063  37.172  1.00  0.00     0.039 A 
BRANCH  17  23
HETATM   23  O2  UNK     1      19.504  -1.844  33.816  1.00  0.00    -0.354 OA
HETATM   24  C18 UNK     1      19.111  -1.415  32.514  1.00  0.00     0.210 C 
ENDBRANCH  17  23
ENDBRANCH   2  16
TORSDOF 3
ENDMDL
MODEL 5
REMARK VINA RESULT:      -9.1      7.282     11.728
REMARK  3 active torsions:
REMARK  status: ('A' for Active; 'I' for Inactive)
REMARK    1  A    between atoms: C7_12  and  O2_2 
REMARK    2  A    between atoms: C1_6  and  N1_5 
REMARK       I    between atoms: C9_14  and  N1_5 
REMARK    3  A    between atoms: C3_8  and  C9_14 
ROOT
HETATM    1  O3  UNK     1      18.313   4.842  30.395  1.00  0.00    -0.267 OA
HETATM    2  N1  UNK     1      18.464   4.880  32.745  1.00  0.00    -0.320 N 
HETATM    3  C9  UNK     1      18.473   4.296  31.485  1.00  0.00     0.262 C 
HETATM    4  H3  UNK     1      18.638   4.289  33.554  1.00  0.00     0.169 HD
ENDROOT
BRANCH   3   5
HETATM    5  C3  UNK     1      18.708   2.848  31.547  1.00  0.00     0.108 A 
HETATM    6  C12 UNK     1      18.372   2.050  32.747  1.00  0.00     0.304 A 
HETATM    7  O1  UNK     1      18.641   0.685  32.684  1.00  0.00    -0.274 OA
HETATM    8  O4  UNK     1      17.880   2.558  33.748  1.00  0.00    -0.259 OA
HETATM    9  C4  UNK     1      19.205   0.090  31.538  1.00  0.00     0.089 A 
HETATM   10  C14 UNK     1      19.438  -1.283  31.570  1.00  0.00     0.038 A 
HETATM   11  C2  UNK     1      19.513   0.861  30.422  1.00  0.00    -0.001 A 
HETATM   12  C17 UNK     1      19.995  -1.899  30.452  1.00  0.00     0.003 A 
HETATM   13  C16 UNK     1      20.311  -1.143  29.321  1.00  0.00     0.001 A 
HETATM   14  C13 UNK     1      20.072   0.234  29.305  1.00  0.00     0.014 A 
HETATM   15  C5  UNK     1      19.244   2.289  30.456  1.00  0.00     0.037 A 
ENDBRANCH   3   5
BRANCH   2  16
HETATM   16  C1  UNK     1      18.269   6.246  33.063  1.00  0.00     0.069 A 
HETATM   17  C7  UNK     1      17.035   6.837  32.848  1.00  0.00     0.095 A 
HETATM   18  C11 UNK     1      16.858   8.184  33.165  1.00  0.00     0.039 A 
HETATM   19  C10 UNK     1      17.918   8.920  33.695  1.00  0.00     0.009 A 
HETATM   20  C6  UNK     1      19.155   8.310  33.906  1.00  0.00    -0.060 A 
HETATM   21  C15 UNK     1      20.287   9.099  34.473  1.00  0.00     0.048 C 
HETATM   22  C8  UNK     1      19.332   6.964  33.588  1.00  0.00     0.039 A 
BRANCH  17  23
HETATM   23  O2  UNK     1      15.987   6.134  32.334  1.00  0.00    -0.354 OA
HETATM   24  C18 UNK     1      14.806   6.869  32.020  1.00  0.00     0.210 C 
ENDBRANCH  17  23
ENDBRANCH   2  16
TORSDOF 3
ENDMDL
MODEL 6
REMARK VINA RESULT:      -9.0      1.191      2.384
REMARK  3 active torsions:
REMARK  status: ('A' for Active; 'I' for Inactive)
REMARK    1  A    between atoms: C7_12  and  O2_2 
REMARK    2  A    between atoms: C1_6  and  N1_5 
REMARK       I    between atoms: C9_14  and  N1_5 
REMARK    3  A    between atoms: C3_8  and  C9_14 
ROOT
HETATM    1  O3  UNK     1      20.125  -5.331  35.264  1.00  0.00    -0.267 OA
HETATM    2  N1  UNK     1      20.244  -4.908  37.578  1.00  0.00    -0.320 N 
HETATM    3  C9  UNK     1      20.044  -4.589  36.241  1.00  0.00     0.262 C 
HETATM    4  H3  UNK     1      20.114  -4.178  38.275  1.00  0.00     0.169 HD
ENDROOT
BRANCH   3   5
HETATM    5  C3  UNK     1      19.695  -3.175  36.056  1.00  0.00     0.108 A 
HETATM    6  C12 UNK     1      20.136  -2.407  34.870  1.00  0.00     0.304 A 
HETATM    7  O1  UNK     1      19.740  -1.073  34.807  1.00  0.00    -0.274 OA
HETATM    8  O4  UNK     1      20.813  -2.914  33.983  1.00  0.00    -0.259 OA
HETATM    9  C4  UNK     1      18.961  -0.480  35.820  1.00  0.00     0.089 A 
HETATM   10  C14 UNK     1      18.615   0.861  35.670  1.00  0.00     0.038 A 
HETATM   11  C2  UNK     1      18.559  -1.221  36.927  1.00  0.00    -0.001 A 
HETATM   12  C17 UNK     1      17.845   1.474  36.655  1.00  0.00     0.003 A 
HETATM   13  C16 UNK     1      17.431   0.747  37.773  1.00  0.00     0.001 A 
HETATM   14  C13 UNK     1      17.787  -0.597  37.910  1.00  0.00     0.014 A 
HETATM   15  C5  UNK     1      18.955  -2.617  37.021  1.00  0.00     0.037 A 
ENDBRANCH   3   5
BRANCH   2  16
HETATM   16  C1  UNK     1      20.589  -6.168  38.123  1.00  0.00     0.069 A 
HETATM   17  C7  UNK     1      21.872  -6.389  38.598  1.00  0.00     0.095 A 
HETATM   18  C11 UNK     1      22.197  -7.636  39.132  1.00  0.00     0.039 A 
HETATM   19  C10 UNK     1      21.234  -8.644  39.184  1.00  0.00     0.009 A 
HETATM   20  C6  UNK     1      19.948  -8.406  38.703  1.00  0.00    -0.060 A 
HETATM   21  C15 UNK     1      18.919  -9.485  38.761  1.00  0.00     0.048 C 
HETATM   22  C8  UNK     1      19.622  -7.159  38.169  1.00  0.00     0.039 A 
BRANCH  17  23
HETATM   23  O2  UNK     1      22.825  -5.416  38.557  1.00  0.00    -0.354 OA
HETATM   24  C18 UNK     1      24.085  -5.718  39.153  1.00  0.00     0.210 C 
ENDBRANCH  17  23
ENDBRANCH   2  16
TORSDOF 3
ENDMDL
MODEL 7
REMARK VINA RESULT:      -8.8      2.202      3.485
REMARK  3 active torsions:
REMARK  status: ('A' for Active; 'I' for Inactive)
REMARK    1  A    between atoms: C7_12  and  O2_2 
REMARK    2  A    between atoms: C1_6  and  N1_5 
REMARK       I    between atoms: C9_14  and  N1_5 
REMARK    3  A    between atoms: C3_8  and  C9_14 
ROOT
HETATM    1  O3  UNK     1      20.525  -2.770  37.281  1.00  0.00    -0.267 OA
HETATM    2  N1  UNK     1      19.633  -4.587  36.077  1.00  0.00    -0.320 N 
HETATM    3  C9  UNK     1      20.025  -3.270  36.275  1.00  0.00     0.262 C 
HETATM    4  H3  UNK     1      19.255  -4.849  35.169  1.00  0.00     0.169 HD
ENDROOT
BRANCH   3   5
HETATM    5  C3  UNK     1      19.782  -2.436  35.091  1.00  0.00     0.108 A 
HETATM    6  C12 UNK     1      18.947  -1.215  35.149  1.00  0.00     0.304 A 
HETATM    7  O1  UNK     1      18.792  -0.508  33.960  1.00  0.00    -0.274 OA
HETATM    8  O4  UNK     1      18.418  -0.839  36.190  1.00  0.00    -0.259 OA
HETATM    9  C4  UNK     1      19.396  -0.930  32.759  1.00  0.00     0.089 A 
HETATM   10  C14 UNK     1      19.182  -0.157  31.620  1.00  0.00     0.038 A 
HETATM   11  C2  UNK     1      20.176  -2.081  32.728  1.00  0.00    -0.001 A 
HETATM   12  C17 UNK     1      19.766  -0.549  30.418  1.00  0.00     0.003 A 
HETATM   13  C16 UNK     1      20.553  -1.702  30.367  1.00  0.00     0.001 A 
HETATM   14  C13 UNK     1      20.758  -2.467  31.518  1.00  0.00     0.014 A 
HETATM   15  C5  UNK     1      20.358  -2.842  33.954  1.00  0.00     0.037 A 
ENDBRANCH   3   5
BRANCH   2  16
HETATM   16  C1  UNK     1      19.720  -5.662  36.995  1.00  0.00     0.069 A 
HETATM   17  C7  UNK     1      18.668  -6.555  37.116  1.00  0.00     0.095 A 
HETATM   18  C11 UNK     1      18.768  -7.608  38.025  1.00  0.00     0.039 A 
HETATM   19  C10 UNK     1      19.919  -7.754  38.799  1.00  0.00     0.009 A 
HETATM   20  C6  UNK     1      20.969  -6.847  38.665  1.00  0.00    -0.060 A 
HETATM   21  C15 UNK     1      22.200  -7.004  39.493  1.00  0.00     0.048 C 
HETATM   22  C8  UNK     1      20.870  -5.793  37.756  1.00  0.00     0.039 A 
BRANCH  17  23
HETATM   23  O2  UNK     1      17.536  -6.430  36.367  1.00  0.00    -0.354 OA
HETATM   24  C18 UNK     1      17.330  -7.397  35.339  1.00  0.00     0.210 C 
ENDBRANCH  17  23
ENDBRANCH   2  16
TORSDOF 3
ENDMDL
MODEL 8
REMARK VINA RESULT:      -8.8      5.723     11.250
REMARK  3 active torsions:
REMARK  status: ('A' for Active; 'I' for Inactive)
REMARK    1  A    between atoms: C7_12  and  O2_2 
REMARK    2  A    between atoms: C1_6  and  N1_5 
REMARK       I    between atoms: C9_14  and  N1_5 
REMARK    3  A    between atoms: C3_8  and  C9_14 
ROOT
HETATM    1  O3  UNK     1      18.694   4.633  32.081  1.00  0.00    -0.267 OA
HETATM    2  N1  UNK     1      18.117   5.410  34.228  1.00  0.00    -0.320 N 
HETATM    3  C9  UNK     1      18.378   4.454  33.255  1.00  0.00     0.262 C 
HETATM    4  H3  UNK     1      17.889   5.096  35.168  1.00  0.00     0.169 HD
ENDROOT
BRANCH   3   5
HETATM    5  C3  UNK     1      18.237   3.086  33.772  1.00  0.00     0.108 A 
HETATM    6  C12 UNK     1      18.194   1.909  32.876  1.00  0.00     0.304 A 
HETATM    7  O1  UNK     1      18.060   0.665  33.487  1.00  0.00    -0.274 OA
HETATM    8  O4  UNK     1      18.274   2.018  31.658  1.00  0.00    -0.259 OA
HETATM    9  C4  UNK     1      17.968   0.529  34.886  1.00  0.00     0.089 A 
HETATM   10  C14 UNK     1      17.835  -0.757  35.404  1.00  0.00     0.038 A 
HETATM   11  C2  UNK     1      18.011   1.650  35.709  1.00  0.00    -0.001 A 
HETATM   12  C17 UNK     1      17.743  -0.924  36.784  1.00  0.00     0.003 A 
HETATM   13  C16 UNK     1      17.783   0.189  37.626  1.00  0.00     0.001 A 
HETATM   14  C13 UNK     1      17.916   1.474  37.092  1.00  0.00     0.014 A 
HETATM   15  C5  UNK     1      18.151   2.964  35.102  1.00  0.00     0.037 A 
ENDBRANCH   3   5
BRANCH   2  16
HETATM   16  C1  UNK     1      18.157   6.819  34.087  1.00  0.00     0.069 A 
HETATM   17  C7  UNK     1      17.033   7.503  33.655  1.00  0.00     0.095 A 
HETATM   18  C11 UNK     1      17.088   8.891  33.521  1.00  0.00     0.039 A 
HETATM   19  C10 UNK     1      18.267   9.574  33.822  1.00  0.00     0.009 A 
HETATM   20  C6  UNK     1      19.390   8.870  34.255  1.00  0.00    -0.060 A 
HETATM   21  C15 UNK     1      20.650   9.602  34.577  1.00  0.00     0.048 C 
HETATM   22  C8  UNK     1      19.335   7.483  34.390  1.00  0.00     0.039 A 
BRANCH  17  23
HETATM   23  O2  UNK     1      15.872   6.854  33.359  1.00  0.00    -0.354 OA
HETATM   24  C18 UNK     1      15.259   7.162  32.109  1.00  0.00     0.210 C 
ENDBRANCH  17  23
ENDBRANCH   2  16
TORSDOF 3
ENDMDL
MODEL 9
REMARK VINA RESULT:      -8.8      4.210      6.962
REMARK  3 active torsions:
REMARK  status: ('A' for Active; 'I' for Inactive)
REMARK    1  A    between atoms: C7_12  and  O2_2 
REMARK    2  A    between atoms: C1_6  and  N1_5 
REMARK       I    between atoms: C9_14  and  N1_5 
REMARK    3  A    between atoms: C3_8  and  C9_14 
ROOT
HETATM    1  O3  UNK     1      16.540   0.856  34.052  1.00  0.00    -0.267 OA
HETATM    2  N1  UNK     1      18.820   0.607  34.587  1.00  0.00    -0.320 N 
HETATM    3  C9  UNK     1      17.732   1.109  33.886  1.00  0.00     0.262 C 
HETATM    4  H3  UNK     1      19.750   0.938  34.340  1.00  0.00     0.169 HD
ENDROOT
BRANCH   3   5
HETATM    5  C3  UNK     1      18.138   2.049  32.833  1.00  0.00     0.108 A 
HETATM    6  C12 UNK     1      18.697   1.588  31.543  1.00  0.00     0.304 A 
HETATM    7  O1  UNK     1      19.043   2.576  30.624  1.00  0.00    -0.274 OA
HETATM    8  O4  UNK     1      18.849   0.399  31.289  1.00  0.00    -0.259 OA
HETATM    9  C4  UNK     1      18.872   3.946  30.905  1.00  0.00     0.089 A 
HETATM   10  C14 UNK     1      19.248   4.860  29.924  1.00  0.00     0.038 A 
HETATM   11  C2  UNK     1      18.344   4.356  32.125  1.00  0.00    -0.001 A 
HETATM   12  C17 UNK     1      19.090   6.222  30.172  1.00  0.00     0.003 A 
HETATM   13  C16 UNK     1      18.562   6.653  31.392  1.00  0.00     0.001 A 
HETATM   14  C13 UNK     1      18.190   5.724  32.367  1.00  0.00     0.014 A 
HETATM   15  C5  UNK     1      17.972   3.349  33.106  1.00  0.00     0.037 A 
ENDBRANCH   3   5
BRANCH   2  16
HETATM   16  C1  UNK     1      18.805  -0.314  35.663  1.00  0.00     0.069 A 
HETATM   17  C7  UNK     1      18.308   0.072  36.897  1.00  0.00     0.095 A 
HETATM   18  C11 UNK     1      18.300  -0.846  37.947  1.00  0.00     0.039 A 
HETATM   19  C10 UNK     1      18.788  -2.139  37.747  1.00  0.00     0.009 A 
HETATM   20  C6  UNK     1      19.284  -2.511  36.498  1.00  0.00    -0.060 A 
HETATM   21  C15 UNK     1      19.804  -3.893  36.285  1.00  0.00     0.048 C 
HETATM   22  C8  UNK     1      19.292  -1.593  35.448  1.00  0.00     0.039 A 
BRANCH  17  23
HETATM   23  O2  UNK     1      17.826   1.328  37.111  1.00  0.00    -0.354 OA
HETATM   24  C18 UNK     1      16.441   1.444  37.431  1.00  0.00     0.210 C 
ENDBRANCH  17  23
ENDBRANCH   2  16
TORSDOF 3
ENDMDL
MODEL 10
REMARK VINA RESULT:      -8.7     19.206     21.453
REMARK  3 active torsions:
REMARK  status: ('A' for Active; 'I' for Inactive)
REMARK    1  A    between atoms: C7_12  and  O2_2 
REMARK    2  A    between atoms: C1_6  and  N1_5 
REMARK       I    between atoms: C9_14  and  N1_5 
REMARK    3  A    between atoms: C3_8  and  C9_14 
ROOT
HETATM    1  O3  UNK     1      17.452  -2.199  16.191  1.00  0.00    -0.267 OA
HETATM    2  N1  UNK     1      19.620  -2.024  15.288  1.00  0.00    -0.320 N 
HETATM    3  C9  UNK     1      18.558  -1.669  16.111  1.00  0.00     0.262 C 
HETATM    4  H3  UNK     1      20.486  -1.495  15.360  1.00  0.00     0.169 HD
ENDROOT
BRANCH   3   5
HETATM    5  C3  UNK     1      18.877  -0.512  16.957  1.00  0.00     0.108 A 
HETATM    6  C12 UNK     1      19.172   0.820  16.385  1.00  0.00     0.304 A 
HETATM    7  O1  UNK     1      19.458   1.839  17.291  1.00  0.00    -0.274 OA
HETATM    8  O4  UNK     1      19.165   1.024  15.176  1.00  0.00    -0.259 OA
HETATM    9  C4  UNK     1      19.467   1.616  18.682  1.00  0.00     0.089 A 
HETATM   10  C14 UNK     1      19.765   2.697  19.509  1.00  0.00     0.038 A 
HETATM   11  C2  UNK     1      19.187   0.354  19.197  1.00  0.00    -0.001 A 
HETATM   12  C17 UNK     1      19.782   2.507  20.889  1.00  0.00     0.003 A 
HETATM   13  C16 UNK     1      19.504   1.248  21.425  1.00  0.00     0.001 A 
HETATM   14  C13 UNK     1      19.207   0.173  20.583  1.00  0.00     0.014 A 
HETATM   15  C5  UNK     1      18.884  -0.731  18.277  1.00  0.00     0.037 A 
ENDBRANCH   3   5
BRANCH   2  16
HETATM   16  C1  UNK     1      19.669  -3.083  14.350  1.00  0.00     0.069 A 
HETATM   17  C7  UNK     1      19.165  -2.900  13.073  1.00  0.00     0.095 A 
HETATM   18  C11 UNK     1      19.220  -3.953  12.159  1.00  0.00     0.039 A 
HETATM   19  C10 UNK     1      19.780  -5.174  12.536  1.00  0.00     0.009 A 
HETATM   20  C6  UNK     1      20.283  -5.342  13.826  1.00  0.00    -0.060 A 
HETATM   21  C15 UNK     1      20.882  -6.648  14.227  1.00  0.00     0.048 C 
HETATM   22  C8  UNK     1      20.228  -4.289  14.739  1.00  0.00     0.039 A 
BRANCH  17  23
HETATM   23  O2  UNK     1      18.617  -1.714  12.685  1.00  0.00    -0.354 OA
HETATM   24  C18 UNK     1      19.141  -1.114  11.502  1.00  0.00     0.210 C 
ENDBRANCH  17  23
ENDBRANCH   2  16
TORSDOF 3
ENDMDL
