MODEL 1
REMARK VINA RESULT:      -8.9      0.000      0.000
REMARK  5 active torsions:
REMARK  status: ('A' for Active; 'I' for Inactive)
REMARK    1  A    between atoms: C10_15  and  N1_4 
REMARK    2  A    between atoms: C8_13  and  N1_4 
REMARK    3  A    between atoms: C10_15  and  N2_5 
REMARK    4  A    between atoms: C11_16  and  N2_5 
REMARK    5  A    between atoms: C3_8  and  C8_13 
ROOT
HETATM    1  N2  UNK     1      17.649   4.131  31.956  1.00  0.00    -0.333 N 
HETATM    2  H17 UNK     1      16.648   4.027  32.088  1.00  0.00     0.168 HD
ENDROOT
BRANCH   1   3
HETATM    3  C10 UNK     1      18.096   5.448  31.940  1.00  0.00     0.172 C 
HETATM    4  S1  UNK     1      18.723   6.321  30.649  1.00  0.00    -0.041 SA
BRANCH   3   5
HETATM    5  N1  UNK     1      17.959   6.118  33.153  1.00  0.00    -0.362 N 
HETATM    6  H16 UNK     1      17.754   5.535  33.959  1.00  0.00     0.162 HD
BRANCH   5   7
HETATM    7  C8  UNK     1      18.140   7.529  33.399  1.00  0.00     0.084 C 
HETATM    8  C9  UNK     1      19.369   7.757  34.273  1.00  0.00     0.032 C 
BRANCH   7   9
HETATM    9  C3  UNK     1      16.894   8.129  34.028  1.00  0.00     0.012 C 
HETATM   10  C1  UNK     1      16.057   9.055  33.114  1.00  0.00    -0.008 C 
HETATM   11  C4  UNK     1      14.731   9.092  33.880  1.00  0.00     0.010 C 
HETATM   12  C6  UNK     1      15.629   8.342  31.820  1.00  0.00     0.005 C 
HETATM   13  C2  UNK     1      14.556   7.574  33.830  1.00  0.00    -0.014 C 
HETATM   14  C5  UNK     1      15.861   7.074  34.477  1.00  0.00     0.011 C 
HETATM   15  C7  UNK     1      14.619   7.299  32.318  1.00  0.00     0.005 C 
ENDBRANCH   7   9
ENDBRANCH   5   7
ENDBRANCH   3   5
ENDBRANCH   1   3
BRANCH   1  16
HETATM   16  C11 UNK     1      18.232   2.926  31.489  1.00  0.00     0.036 A 
HETATM   17  C13 UNK     1      18.556   2.807  30.151  1.00  0.00     0.030 A 
HETATM   18  C16 UNK     1      19.132   1.620  29.683  1.00  0.00     0.017 A 
HETATM   19  C15 UNK     1      19.383   0.553  30.557  1.00  0.00     0.004 A 
HETATM   20  C14 UNK     1      19.039   0.722  31.900  1.00  0.00     0.092 A 
HETATM   21  C17 UNK     1      19.984  -0.720  30.139  1.00  0.00    -0.043 A 
HETATM   22  C12 UNK     1      18.465   1.899  32.381  1.00  0.00     0.067 A 
HETATM   23  O1  UNK     1      19.260  -0.302  32.842  1.00  0.00    -0.275 OA
HETATM   24  C20 UNK     1      19.824  -1.515  32.476  1.00  0.00     0.288 A 
HETATM   25  C18 UNK     1      20.182  -1.676  31.056  1.00  0.00     0.090 A 
HETATM   26  O2  UNK     1      20.021  -2.413  33.288  1.00  0.00    -0.260 OA
HETATM   27  C19 UNK     1      20.364  -0.932  28.703  1.00  0.00     0.049 C 
ENDBRANCH   1  16
TORSDOF 5
ENDMDL
MODEL 2
REMARK VINA RESULT:      -8.9      7.494     12.606
REMARK  5 active torsions:
REMARK  status: ('A' for Active; 'I' for Inactive)
REMARK    1  A    between atoms: C10_15  and  N1_4 
REMARK    2  A    between atoms: C8_13  and  N1_4 
REMARK    3  A    between atoms: C10_15  and  N2_5 
REMARK    4  A    between atoms: C11_16  and  N2_5 
REMARK    5  A    between atoms: C3_8  and  C8_13 
ROOT
HETATM    1  N2  UNK     1      20.445  -4.205  36.459  1.00  0.00    -0.333 N 
HETATM    2  H17 UNK     1      20.599  -4.555  35.519  1.00  0.00     0.168 HD
ENDROOT
BRANCH   1   3
HETATM    3  C10 UNK     1      20.650  -5.142  37.466  1.00  0.00     0.172 C 
HETATM    4  S1  UNK     1      22.066  -5.481  38.302  1.00  0.00    -0.041 SA
BRANCH   3   5
HETATM    5  N1  UNK     1      19.508  -5.848  37.837  1.00  0.00    -0.362 N 
HETATM    6  H16 UNK     1      19.069  -5.554  38.705  1.00  0.00     0.162 HD
BRANCH   5   7
HETATM    7  C8  UNK     1      18.849  -6.898  37.097  1.00  0.00     0.084 C 
HETATM    8  C9  UNK     1      17.485  -6.421  36.610  1.00  0.00     0.032 C 
BRANCH   7   9
HETATM    9  C3  UNK     1      18.727  -8.155  37.942  1.00  0.00     0.012 C 
HETATM   10  C1  UNK     1      19.100  -9.480  37.234  1.00  0.00    -0.008 C 
HETATM   11  C4  UNK     1      19.294 -10.404  38.440  1.00  0.00     0.010 C 
HETATM   12  C6  UNK     1      20.528  -9.439  36.663  1.00  0.00     0.005 C 
HETATM   13  C2  UNK     1      20.372  -9.516  39.061  1.00  0.00    -0.014 C 
HETATM   14  C5  UNK     1      19.651  -8.160  39.176  1.00  0.00     0.011 C 
HETATM   15  C7  UNK     1      21.404  -9.430  37.923  1.00  0.00     0.005 C 
ENDBRANCH   7   9
ENDBRANCH   5   7
ENDBRANCH   3   5
ENDBRANCH   1   3
BRANCH   1  16
HETATM   16  C11 UNK     1      19.739  -2.974  36.439  1.00  0.00     0.036 A 
HETATM   17  C13 UNK     1      19.128  -2.528  37.595  1.00  0.00     0.030 A 
HETATM   18  C16 UNK     1      18.430  -1.315  37.582  1.00  0.00     0.017 A 
HETATM   19  C15 UNK     1      18.345  -0.550  36.410  1.00  0.00     0.004 A 
HETATM   20  C14 UNK     1      18.980  -1.043  35.268  1.00  0.00     0.092 A 
HETATM   21  C17 UNK     1      17.632   0.731  36.321  1.00  0.00    -0.043 A 
HETATM   22  C12 UNK     1      19.680  -2.250  35.266  1.00  0.00     0.067 A 
HETATM   23  O1  UNK     1      18.943  -0.334  34.051  1.00  0.00    -0.275 OA
HETATM   24  C20 UNK     1      18.277   0.876  33.937  1.00  0.00     0.288 A 
HETATM   25  C18 UNK     1      17.612   1.383  35.150  1.00  0.00     0.090 A 
HETATM   26  O2  UNK     1      18.238   1.502  32.882  1.00  0.00    -0.260 OA
HETATM   27  C19 UNK     1      16.939   1.287  37.530  1.00  0.00     0.049 C 
ENDBRANCH   1  16
TORSDOF 5
ENDMDL
MODEL 3
REMARK VINA RESULT:      -8.9      7.540     10.083
REMARK  5 active torsions:
REMARK  status: ('A' for Active; 'I' for Inactive)
REMARK    1  A    between atoms: C10_15  and  N1_4 
REMARK    2  A    between atoms: C8_13  and  N1_4 
REMARK    3  A    between atoms: C10_15  and  N2_5 
REMARK    4  A    between atoms: C11_16  and  N2_5 
REMARK    5  A    between atoms: C3_8  and  C8_13 
ROOT
HETATM    1  N2  UNK     1      18.547  -5.022  36.439  1.00  0.00    -0.333 N 
HETATM    2  H17 UNK     1      17.697  -4.969  35.887  1.00  0.00     0.168 HD
ENDROOT
BRANCH   1   3
HETATM    3  C10 UNK     1      19.051  -3.791  36.844  1.00  0.00     0.172 C 
HETATM    4  S1  UNK     1      20.518  -3.460  37.594  1.00  0.00    -0.041 SA
BRANCH   3   5
HETATM    5  N1  UNK     1      18.232  -2.706  36.542  1.00  0.00    -0.362 N 
HETATM    6  H16 UNK     1      17.411  -2.595  37.131  1.00  0.00     0.162 HD
BRANCH   5   7
HETATM    7  C8  UNK     1      18.455  -1.694  35.538  1.00  0.00     0.084 C 
HETATM    8  C9  UNK     1      19.713  -2.014  34.737  1.00  0.00     0.032 C 
BRANCH   7   9
HETATM    9  C3  UNK     1      18.539  -0.315  36.173  1.00  0.00     0.012 C 
HETATM   10  C1  UNK     1      17.882   0.835  35.374  1.00  0.00    -0.008 C 
HETATM   11  C4  UNK     1      17.760   1.906  36.462  1.00  0.00     0.010 C 
HETATM   12  C6  UNK     1      16.400   0.548  35.077  1.00  0.00     0.005 C 
HETATM   13  C2  UNK     1      16.925   1.010  37.377  1.00  0.00    -0.014 C 
HETATM   14  C5  UNK     1      17.833  -0.224  37.541  1.00  0.00     0.011 C 
HETATM   15  C7  UNK     1      15.746   0.636  36.463  1.00  0.00     0.005 C 
ENDBRANCH   7   9
ENDBRANCH   5   7
ENDBRANCH   3   5
ENDBRANCH   1   3
BRANCH   1  16
HETATM   16  C11 UNK     1      19.145  -6.305  36.339  1.00  0.00     0.036 A 
HETATM   17  C13 UNK     1      20.066  -6.543  35.337  1.00  0.00     0.030 A 
HETATM   18  C16 UNK     1      20.660  -7.806  35.231  1.00  0.00     0.017 A 
HETATM   19  C15 UNK     1      20.330  -8.830  36.131  1.00  0.00     0.004 A 
HETATM   20  C14 UNK     1      19.395  -8.540  37.126  1.00  0.00     0.092 A 
HETATM   21  C17 UNK     1      20.911 -10.178  36.082  1.00  0.00    -0.043 A 
HETATM   22  C12 UNK     1      18.795  -7.285  37.243  1.00  0.00     0.067 A 
HETATM   23  O1  UNK     1      19.010  -9.513  38.069  1.00  0.00    -0.275 OA
HETATM   24  C20 UNK     1      19.540 -10.794  38.047  1.00  0.00     0.288 A 
HETATM   25  C18 UNK     1      20.526 -11.083  36.991  1.00  0.00     0.090 A 
HETATM   26  O2  UNK     1      19.212 -11.649  38.863  1.00  0.00    -0.260 OA
HETATM   27  C19 UNK     1      21.919 -10.520  35.024  1.00  0.00     0.049 C 
ENDBRANCH   1  16
TORSDOF 5
ENDMDL
MODEL 4
REMARK VINA RESULT:      -8.8      1.346      2.043
REMARK  5 active torsions:
REMARK  status: ('A' for Active; 'I' for Inactive)
REMARK    1  A    between atoms: C10_15  and  N1_4 
REMARK    2  A    between atoms: C8_13  and  N1_4 
REMARK    3  A    between atoms: C10_15  and  N2_5 
REMARK    4  A    between atoms: C11_16  and  N2_5 
REMARK    5  A    between atoms: C3_8  and  C8_13 
ROOT
HETATM    1  N2  UNK     1      17.584   4.335  32.201  1.00  0.00    -0.333 N 
HETATM    2  H17 UNK     1      16.580   4.351  32.054  1.00  0.00     0.168 HD
ENDROOT
BRANCH   1   3
HETATM    3  C10 UNK     1      18.195   5.583  32.155  1.00  0.00     0.172 C 
HETATM    4  S1  UNK     1      18.985   6.311  30.864  1.00  0.00    -0.041 SA
BRANCH   3   5
HETATM    5  N1  UNK     1      18.088   6.320  33.332  1.00  0.00    -0.362 N 
HETATM    6  H16 UNK     1      17.999   5.777  34.187  1.00  0.00     0.162 HD
BRANCH   5   7
HETATM    7  C8  UNK     1      18.158   7.755  33.477  1.00  0.00     0.084 C 
HETATM    8  C9  UNK     1      19.347   8.139  34.350  1.00  0.00     0.032 C 
BRANCH   7   9
HETATM    9  C3  UNK     1      16.856   8.301  34.041  1.00  0.00     0.012 C 
HETATM   10  C1  UNK     1      15.986   9.119  33.057  1.00  0.00    -0.008 C 
HETATM   11  C4  UNK     1      14.640   9.106  33.786  1.00  0.00     0.010 C 
HETATM   12  C6  UNK     1      15.643   8.310  31.793  1.00  0.00     0.005 C 
HETATM   13  C2  UNK     1      14.567   7.579  33.816  1.00  0.00    -0.014 C 
HETATM   14  C5  UNK     1      15.884   7.204  34.521  1.00  0.00     0.011 C 
HETATM   15  C7  UNK     1      14.691   7.229  32.323  1.00  0.00     0.005 C 
ENDBRANCH   7   9
ENDBRANCH   5   7
ENDBRANCH   3   5
ENDBRANCH   1   3
BRANCH   1  16
HETATM   16  C11 UNK     1      18.101   3.021  32.066  1.00  0.00     0.036 A 
HETATM   17  C13 UNK     1      18.111   2.184  33.165  1.00  0.00     0.030 A 
HETATM   18  C16 UNK     1      18.621   0.886  33.040  1.00  0.00     0.017 A 
HETATM   19  C15 UNK     1      19.120   0.429  31.813  1.00  0.00     0.004 A 
HETATM   20  C14 UNK     1      19.089   1.312  30.732  1.00  0.00     0.092 A 
HETATM   21  C17 UNK     1      19.670  -0.918  31.605  1.00  0.00    -0.043 A 
HETATM   22  C12 UNK     1      18.583   2.608  30.842  1.00  0.00     0.067 A 
HETATM   23  O1  UNK     1      19.571   0.929  29.464  1.00  0.00    -0.275 OA
HETATM   24  C20 UNK     1      20.096  -0.334  29.239  1.00  0.00     0.288 A 
HETATM   25  C18 UNK     1      20.122  -1.254  30.390  1.00  0.00     0.090 A 
HETATM   26  O2  UNK     1      20.519  -0.678  28.140  1.00  0.00    -0.260 OA
HETATM   27  C19 UNK     1      19.718  -1.890  32.748  1.00  0.00     0.049 C 
ENDBRANCH   1  16
TORSDOF 5
ENDMDL
MODEL 5
REMARK VINA RESULT:      -8.8      7.519     10.186
REMARK  5 active torsions:
REMARK  status: ('A' for Active; 'I' for Inactive)
REMARK    1  A    between atoms: C10_15  and  N1_4 
REMARK    2  A    between atoms: C8_13  and  N1_4 
REMARK    3  A    between atoms: C10_15  and  N2_5 
REMARK    4  A    between atoms: C11_16  and  N2_5 
REMARK    5  A    between atoms: C3_8  and  C8_13 
ROOT
HETATM    1  N2  UNK     1      18.673  -5.002  36.397  1.00  0.00    -0.333 N 
HETATM    2  H17 UNK     1      18.076  -4.918  35.580  1.00  0.00     0.168 HD
ENDROOT
BRANCH   1   3
HETATM    3  C10 UNK     1      19.234  -3.805  36.829  1.00  0.00     0.172 C 
HETATM    4  S1  UNK     1      20.769  -3.540  37.457  1.00  0.00    -0.041 SA
BRANCH   3   5
HETATM    5  N1  UNK     1      18.410  -2.693  36.673  1.00  0.00    -0.362 N 
HETATM    6  H16 UNK     1      17.719  -2.550  37.404  1.00  0.00     0.162 HD
BRANCH   5   7
HETATM    7  C8  UNK     1      18.473  -1.695  35.632  1.00  0.00     0.084 C 
HETATM    8  C9  UNK     1      19.667  -1.960  34.721  1.00  0.00     0.032 C 
BRANCH   7   9
HETATM    9  C3  UNK     1      18.531  -0.299  36.229  1.00  0.00     0.012 C 
HETATM   10  C1  UNK     1      17.888   0.824  35.380  1.00  0.00    -0.008 C 
HETATM   11  C4  UNK     1      17.730   1.925  36.434  1.00  0.00     0.010 C 
HETATM   12  C6  UNK     1      16.416   0.518  35.053  1.00  0.00     0.005 C 
HETATM   13  C2  UNK     1      16.878   1.049  37.352  1.00  0.00    -0.014 C 
HETATM   14  C5  UNK     1      17.789  -0.173  37.575  1.00  0.00     0.011 C 
HETATM   15  C7  UNK     1      15.726   0.640  36.418  1.00  0.00     0.005 C 
ENDBRANCH   7   9
ENDBRANCH   5   7
ENDBRANCH   3   5
ENDBRANCH   1   3
BRANCH   1  16
HETATM   16  C11 UNK     1      19.024  -6.355  36.638  1.00  0.00     0.036 A 
HETATM   17  C13 UNK     1      18.471  -7.013  37.720  1.00  0.00     0.030 A 
HETATM   18  C16 UNK     1      18.813  -8.348  37.965  1.00  0.00     0.017 A 
HETATM   19  C15 UNK     1      19.709  -9.023  37.124  1.00  0.00     0.004 A 
HETATM   20  C14 UNK     1      20.240  -8.316  36.044  1.00  0.00     0.092 A 
HETATM   21  C17 UNK     1      20.114 -10.421  37.318  1.00  0.00    -0.043 A 
HETATM   22  C12 UNK     1      19.908  -6.984  35.787  1.00  0.00     0.067 A 
HETATM   23  O1  UNK     1      21.147  -8.922  35.152  1.00  0.00    -0.275 OA
HETATM   24  C20 UNK     1      21.548 -10.239  35.310  1.00  0.00     0.288 A 
HETATM   25  C18 UNK     1      20.978 -10.972  36.454  1.00  0.00     0.090 A 
HETATM   26  O2  UNK     1      22.337 -10.777  34.540  1.00  0.00    -0.260 OA
HETATM   27  C19 UNK     1      19.561 -11.208  38.470  1.00  0.00     0.049 C 
ENDBRANCH   1  16
TORSDOF 5
ENDMDL
MODEL 6
REMARK VINA RESULT:      -8.6      1.374      2.302
REMARK  5 active torsions:
REMARK  status: ('A' for Active; 'I' for Inactive)
REMARK    1  A    between atoms: C10_15  and  N1_4 
REMARK    2  A    between atoms: C8_13  and  N1_4 
REMARK    3  A    between atoms: C10_15  and  N2_5 
REMARK    4  A    between atoms: C11_16  and  N2_5 
REMARK    5  A    between atoms: C3_8  and  C8_13 
ROOT
HETATM    1  N2  UNK     1      18.495   3.498  29.970  1.00  0.00    -0.333 N 
HETATM    2  H17 UNK     1      18.150   3.565  29.017  1.00  0.00     0.168 HD
ENDROOT
BRANCH   1   3
HETATM    3  C10 UNK     1      18.782   4.720  30.567  1.00  0.00     0.172 C 
HETATM    4  S1  UNK     1      20.000   5.810  30.181  1.00  0.00    -0.041 SA
BRANCH   3   5
HETATM    5  N1  UNK     1      17.908   5.081  31.589  1.00  0.00    -0.362 N 
HETATM    6  H16 UNK     1      16.921   4.929  31.401  1.00  0.00     0.162 HD
BRANCH   5   7
HETATM    7  C8  UNK     1      18.250   5.581  32.899  1.00  0.00     0.084 C 
HETATM    8  C9  UNK     1      18.345   4.430  33.894  1.00  0.00     0.032 C 
BRANCH   7   9
HETATM    9  C3  UNK     1      17.245   6.626  33.355  1.00  0.00     0.012 C 
HETATM   10  C1  UNK     1      17.476   7.210  34.770  1.00  0.00    -0.008 C 
HETATM   11  C4  UNK     1      16.613   8.474  34.702  1.00  0.00     0.010 C 
HETATM   12  C6  UNK     1      18.881   7.822  34.911  1.00  0.00     0.005 C 
HETATM   13  C2  UNK     1      17.363   9.030  33.491  1.00  0.00    -0.014 C 
HETATM   14  C5  UNK     1      17.223   7.888  32.468  1.00  0.00     0.011 C 
HETATM   15  C7  UNK     1      18.813   9.058  34.004  1.00  0.00     0.005 C 
ENDBRANCH   7   9
ENDBRANCH   5   7
ENDBRANCH   3   5
ENDBRANCH   1   3
BRANCH   1  16
HETATM   16  C11 UNK     1      18.902   2.174  30.276  1.00  0.00     0.036 A 
HETATM   17  C13 UNK     1      19.434   1.383  29.276  1.00  0.00     0.030 A 
HETATM   18  C16 UNK     1      19.837   0.075  29.572  1.00  0.00     0.017 A 
HETATM   19  C15 UNK     1      19.707  -0.438  30.870  1.00  0.00     0.004 A 
HETATM   20  C14 UNK     1      19.164   0.401  31.846  1.00  0.00     0.092 A 
HETATM   21  C17 UNK     1      20.107  -1.798  31.254  1.00  0.00    -0.043 A 
HETATM   22  C12 UNK     1      18.758   1.706  31.566  1.00  0.00     0.067 A 
HETATM   23  O1  UNK     1      19.000  -0.039  33.174  1.00  0.00    -0.275 OA
HETATM   24  C20 UNK     1      19.368  -1.317  33.566  1.00  0.00     0.288 A 
HETATM   25  C18 UNK     1      19.939  -2.189  32.525  1.00  0.00     0.090 A 
HETATM   26  O2  UNK     1      19.230  -1.710  34.719  1.00  0.00    -0.260 OA
HETATM   27  C19 UNK     1      20.693  -2.723  30.228  1.00  0.00     0.049 C 
ENDBRANCH   1  16
TORSDOF 5
ENDMDL
MODEL 7
REMARK VINA RESULT:      -8.4     13.152     15.417
REMARK  5 active torsions:
REMARK  status: ('A' for Active; 'I' for Inactive)
REMARK    1  A    between atoms: C10_15  and  N1_4 
REMARK    2  A    between atoms: C8_13  and  N1_4 
REMARK    3  A    between atoms: C10_15  and  N2_5 
REMARK    4  A    between atoms: C11_16  and  N2_5 
REMARK    5  A    between atoms: C3_8  and  C8_13 
ROOT
HETATM    1  N2  UNK     1      24.856  -8.733  38.202  1.00  0.00    -0.333 N 
HETATM    2  H17 UNK     1      24.949  -9.732  38.051  1.00  0.00     0.168 HD
ENDROOT
BRANCH   1   3
HETATM    3  C10 UNK     1      23.544  -8.279  38.279  1.00  0.00     0.172 C 
HETATM    4  S1  UNK     1      22.784  -7.496  39.556  1.00  0.00    -0.041 SA
BRANCH   3   5
HETATM    5  N1  UNK     1      22.798  -8.476  37.120  1.00  0.00    -0.362 N 
HETATM    6  H16 UNK     1      23.013  -7.855  36.344  1.00  0.00     0.162 HD
BRANCH   5   7
HETATM    7  C8  UNK     1      21.808  -9.498  36.879  1.00  0.00     0.084 C 
HETATM    8  C9  UNK     1      22.420 -10.647  36.085  1.00  0.00     0.032 C 
BRANCH   7   9
HETATM    9  C3  UNK     1      20.597  -8.917  36.168  1.00  0.00     0.012 C 
HETATM   10  C1  UNK     1      19.232  -9.156  36.857  1.00  0.00    -0.008 C 
HETATM   11  C4  UNK     1      18.368  -8.104  36.155  1.00  0.00     0.010 C 
HETATM   12  C6  UNK     1      19.223  -8.626  38.301  1.00  0.00     0.005 C 
HETATM   13  C2  UNK     1      19.271  -6.946  36.582  1.00  0.00    -0.014 C 
HETATM   14  C5  UNK     1      20.642  -7.382  36.030  1.00  0.00     0.011 C 
HETATM   15  C7  UNK     1      19.283  -7.104  38.112  1.00  0.00     0.005 C 
ENDBRANCH   7   9
ENDBRANCH   5   7
ENDBRANCH   3   5
ENDBRANCH   1   3
BRANCH   1  16
HETATM   16  C11 UNK     1      26.079  -8.060  37.947  1.00  0.00     0.036 A 
HETATM   17  C13 UNK     1      26.858  -8.458  36.878  1.00  0.00     0.030 A 
HETATM   18  C16 UNK     1      28.065  -7.799  36.620  1.00  0.00     0.017 A 
HETATM   19  C15 UNK     1      28.491  -6.741  37.435  1.00  0.00     0.004 A 
HETATM   20  C14 UNK     1      27.669  -6.375  38.503  1.00  0.00     0.092 A 
HETATM   21  C17 UNK     1      29.744  -6.004  37.227  1.00  0.00    -0.043 A 
HETATM   22  C12 UNK     1      26.463  -7.023  38.772  1.00  0.00     0.067 A 
HETATM   23  O1  UNK     1      28.026  -5.322  39.368  1.00  0.00    -0.275 OA
HETATM   24  C20 UNK     1      29.202  -4.609  39.197  1.00  0.00     0.288 A 
HETATM   25  C18 UNK     1      30.058  -5.007  38.066  1.00  0.00     0.090 A 
HETATM   26  O2  UNK     1      29.522  -3.690  39.944  1.00  0.00    -0.260 OA
HETATM   27  C19 UNK     1      30.649  -6.373  36.088  1.00  0.00     0.049 C 
ENDBRANCH   1  16
TORSDOF 5
ENDMDL
MODEL 8
REMARK VINA RESULT:      -8.4      7.441     12.535
REMARK  5 active torsions:
REMARK  status: ('A' for Active; 'I' for Inactive)
REMARK    1  A    between atoms: C10_15  and  N1_4 
REMARK    2  A    between atoms: C8_13  and  N1_4 
REMARK    3  A    between atoms: C10_15  and  N2_5 
REMARK    4  A    between atoms: C11_16  and  N2_5 
REMARK    5  A    between atoms: C3_8  and  C8_13 
ROOT
HETATM    1  N2  UNK     1      20.241  -3.906  37.878  1.00  0.00    -0.333 N 
HETATM    2  H17 UNK     1      20.512  -3.431  38.734  1.00  0.00     0.168 HD
ENDROOT
BRANCH   1   3
HETATM    3  C10 UNK     1      20.754  -5.191  37.742  1.00  0.00     0.172 C 
HETATM    4  S1  UNK     1      22.185  -5.814  38.364  1.00  0.00    -0.041 SA
BRANCH   3   5
HETATM    5  N1  UNK     1      19.939  -6.065  37.028  1.00  0.00    -0.362 N 
HETATM    6  H16 UNK     1      18.939  -5.909  37.117  1.00  0.00     0.162 HD
BRANCH   5   7
HETATM    7  C8  UNK     1      20.355  -7.115  36.130  1.00  0.00     0.084 C 
HETATM    8  C9  UNK     1      20.158  -6.680  34.682  1.00  0.00     0.032 C 
BRANCH   7   9
HETATM    9  C3  UNK     1      19.608  -8.405  36.428  1.00  0.00     0.012 C 
HETATM   10  C1  UNK     1      20.489  -9.653  36.671  1.00  0.00    -0.008 C 
HETATM   11  C4  UNK     1      19.483 -10.586  37.353  1.00  0.00     0.010 C 
HETATM   12  C6  UNK     1      21.498  -9.426  37.809  1.00  0.00     0.005 C 
HETATM   13  C2  UNK     1      19.196  -9.596  38.483  1.00  0.00    -0.014 C 
HETATM   14  C5  UNK     1      18.754  -8.339  37.711  1.00  0.00     0.011 C 
HETATM   15  C7  UNK     1      20.604  -9.354  39.055  1.00  0.00     0.005 C 
ENDBRANCH   7   9
ENDBRANCH   5   7
ENDBRANCH   3   5
ENDBRANCH   1   3
BRANCH   1  16
HETATM   16  C11 UNK     1      19.707  -2.993  36.933  1.00  0.00     0.036 A 
HETATM   17  C13 UNK     1      20.366  -2.801  35.734  1.00  0.00     0.030 A 
HETATM   18  C16 UNK     1      19.845  -1.902  34.796  1.00  0.00     0.017 A 
HETATM   19  C15 UNK     1      18.664  -1.196  35.061  1.00  0.00     0.004 A 
HETATM   20  C14 UNK     1      18.034  -1.424  36.286  1.00  0.00     0.092 A 
HETATM   21  C17 UNK     1      18.059  -0.238  34.127  1.00  0.00    -0.043 A 
HETATM   22  C12 UNK     1      18.542  -2.318  37.230  1.00  0.00     0.067 A 
HETATM   23  O1  UNK     1      16.843  -0.755  36.628  1.00  0.00    -0.275 OA
HETATM   24  C20 UNK     1      16.249   0.155  35.768  1.00  0.00     0.288 A 
HETATM   25  C18 UNK     1      16.925   0.385  34.479  1.00  0.00     0.090 A 
HETATM   26  O2  UNK     1      15.212   0.743  36.055  1.00  0.00    -0.260 OA
HETATM   27  C19 UNK     1      18.711   0.030  32.802  1.00  0.00     0.049 C 
ENDBRANCH   1  16
TORSDOF 5
ENDMDL
MODEL 9
REMARK VINA RESULT:      -8.4      5.796     10.908
REMARK  5 active torsions:
REMARK  status: ('A' for Active; 'I' for Inactive)
REMARK    1  A    between atoms: C10_15  and  N1_4 
REMARK    2  A    between atoms: C8_13  and  N1_4 
REMARK    3  A    between atoms: C10_15  and  N2_5 
REMARK    4  A    between atoms: C11_16  and  N2_5 
REMARK    5  A    between atoms: C3_8  and  C8_13 
ROOT
HETATM    1  N2  UNK     1      20.055  -3.106  34.960  1.00  0.00    -0.333 N 
HETATM    2  H17 UNK     1      20.595  -3.957  34.836  1.00  0.00     0.168 HD
ENDROOT
BRANCH   1   3
HETATM    3  C10 UNK     1      19.261  -3.087  36.101  1.00  0.00     0.172 C 
HETATM    4  S1  UNK     1      18.655  -1.757  36.929  1.00  0.00    -0.041 SA
BRANCH   3   5
HETATM    5  N1  UNK     1      18.903  -4.347  36.576  1.00  0.00    -0.362 N 
HETATM    6  H16 UNK     1      17.962  -4.654  36.348  1.00  0.00     0.162 HD
BRANCH   5   7
HETATM    7  C8  UNK     1      19.738  -5.282  37.291  1.00  0.00     0.084 C 
HETATM    8  C9  UNK     1      21.070  -4.633  37.648  1.00  0.00     0.032 C 
BRANCH   7   9
HETATM    9  C3  UNK     1      19.940  -6.552  36.480  1.00  0.00     0.012 C 
HETATM   10  C1  UNK     1      20.812  -7.644  37.145  1.00  0.00    -0.008 C 
HETATM   11  C4  UNK     1      20.431  -8.866  36.303  1.00  0.00     0.010 C 
HETATM   12  C6  UNK     1      20.260  -8.053  38.522  1.00  0.00     0.005 C 
HETATM   13  C2  UNK     1      18.943  -8.742  36.631  1.00  0.00    -0.014 C 
HETATM   14  C5  UNK     1      18.628  -7.304  36.178  1.00  0.00     0.011 C 
HETATM   15  C7  UNK     1      18.956  -8.781  38.169  1.00  0.00     0.005 C 
ENDBRANCH   7   9
ENDBRANCH   5   7
ENDBRANCH   3   5
ENDBRANCH   1   3
BRANCH   1  16
HETATM   16  C11 UNK     1      20.014  -2.345  33.764  1.00  0.00     0.036 A 
HETATM   17  C13 UNK     1      20.717  -2.786  32.659  1.00  0.00     0.030 A 
HETATM   18  C16 UNK     1      20.681  -2.040  31.475  1.00  0.00     0.017 A 
HETATM   19  C15 UNK     1      19.941  -0.852  31.400  1.00  0.00     0.004 A 
HETATM   20  C14 UNK     1      19.248  -0.448  32.543  1.00  0.00     0.092 A 
HETATM   21  C17 UNK     1      19.856  -0.018  30.194  1.00  0.00    -0.043 A 
HETATM   22  C12 UNK     1      19.274  -1.182  33.730  1.00  0.00     0.067 A 
HETATM   23  O1  UNK     1      18.480   0.734  32.549  1.00  0.00    -0.275 OA
HETATM   24  C20 UNK     1      18.383   1.541  31.427  1.00  0.00     0.288 A 
HETATM   25  C18 UNK     1      19.120   1.101  30.229  1.00  0.00     0.090 A 
HETATM   26  O2  UNK     1      17.718   2.572  31.421  1.00  0.00    -0.260 OA
HETATM   27  C19 UNK     1      20.590  -0.425  28.950  1.00  0.00     0.049 C 
ENDBRANCH   1  16
TORSDOF 5
ENDMDL
MODEL 10
REMARK VINA RESULT:      -8.3      7.547     12.760
REMARK  5 active torsions:
REMARK  status: ('A' for Active; 'I' for Inactive)
REMARK    1  A    between atoms: C10_15  and  N1_4 
REMARK    2  A    between atoms: C8_13  and  N1_4 
REMARK    3  A    between atoms: C10_15  and  N2_5 
REMARK    4  A    between atoms: C11_16  and  N2_5 
REMARK    5  A    between atoms: C3_8  and  C8_13 
ROOT
HETATM    1  N2  UNK     1      20.422  -3.930  37.151  1.00  0.00    -0.333 N 
HETATM    2  H17 UNK     1      21.417  -3.726  37.172  1.00  0.00     0.168 HD
ENDROOT
BRANCH   1   3
HETATM    3  C10 UNK     1      20.111  -5.280  37.034  1.00  0.00     0.172 C 
HETATM    4  S1  UNK     1      18.633  -5.982  36.656  1.00  0.00    -0.041 SA
BRANCH   3   5
HETATM    5  N1  UNK     1      21.192  -6.139  37.221  1.00  0.00    -0.362 N 
HETATM    6  H16 UNK     1      21.945  -6.056  36.544  1.00  0.00     0.162 HD
BRANCH   5   7
HETATM    7  C8  UNK     1      21.388  -7.077  38.300  1.00  0.00     0.084 C 
HETATM    8  C9  UNK     1      22.542  -6.625  39.189  1.00  0.00     0.032 C 
BRANCH   7   9
HETATM    9  C3  UNK     1      21.623  -8.478  37.758  1.00  0.00     0.012 C 
HETATM   10  C1  UNK     1      20.860  -9.615  38.477  1.00  0.00    -0.008 C 
HETATM   11  C4  UNK     1      20.968 -10.735  37.438  1.00  0.00     0.010 C 
HETATM   12  C6  UNK     1      19.342  -9.367  38.484  1.00  0.00     0.005 C 
HETATM   13  C2  UNK     1      20.294  -9.908  36.344  1.00  0.00    -0.014 C 
HETATM   14  C5  UNK     1      21.184  -8.651  36.290  1.00  0.00     0.011 C 
HETATM   15  C7  UNK     1      18.957  -9.536  37.008  1.00  0.00     0.005 C 
ENDBRANCH   7   9
ENDBRANCH   5   7
ENDBRANCH   3   5
ENDBRANCH   1   3
BRANCH   1  16
HETATM   16  C11 UNK     1      19.664  -2.758  36.901  1.00  0.00     0.036 A 
HETATM   17  C13 UNK     1      18.885  -2.230  37.912  1.00  0.00     0.030 A 
HETATM   18  C16 UNK     1      18.133  -1.073  37.673  1.00  0.00     0.017 A 
HETATM   19  C15 UNK     1      18.163  -0.447  36.419  1.00  0.00     0.004 A 
HETATM   20  C14 UNK     1      18.965  -1.019  35.429  1.00  0.00     0.092 A 
HETATM   21  C17 UNK     1      17.402   0.767  36.094  1.00  0.00    -0.043 A 
HETATM   22  C12 UNK     1      19.720  -2.171  35.654  1.00  0.00     0.067 A 
HETATM   23  O1  UNK     1      19.050  -0.450  34.143  1.00  0.00    -0.275 OA
HETATM   24  C20 UNK     1      18.344   0.694  33.807  1.00  0.00     0.288 A 
HETATM   25  C18 UNK     1      17.502   1.285  34.863  1.00  0.00     0.090 A 
HETATM   26  O2  UNK     1      18.410   1.198  32.691  1.00  0.00    -0.260 OA
HETATM   27  C19 UNK     1      16.531   1.404  37.137  1.00  0.00     0.049 C 
ENDBRANCH   1  16
TORSDOF 5
ENDMDL
