MODEL 1
REMARK VINA RESULT:      -8.3      0.000      0.000
REMARK  3 active torsions:
REMARK  status: ('A' for Active; 'I' for Inactive)
REMARK    1  A    between atoms: C9_13  and  O2_2 
REMARK    2  A    between atoms: C10_14  and  O4_4 
REMARK    3  A    between atoms: C3_7  and  C5_9 
ROOT
HETATM    1  O1  UNK     1      18.769  -0.088  33.226  1.00  0.00    -0.309 OA
HETATM    2  O3  UNK     1      18.633   3.114  30.710  1.00  0.00    -0.287 OA
HETATM    3  C1  UNK     1      19.221   0.849  31.031  1.00  0.00     0.051 A 
HETATM    4  C2  UNK     1      19.239  -0.206  31.943  1.00  0.00     0.093 A 
HETATM    5  C3  UNK     1      18.246   1.133  33.628  1.00  0.00     0.090 A 
HETATM    6  C4  UNK     1      18.675   2.146  31.456  1.00  0.00     0.187 A 
HETATM    7  C6  UNK     1      18.180   2.221  32.846  1.00  0.00     0.093 A 
HETATM    8  C7  UNK     1      19.713   0.670  29.736  1.00  0.00     0.057 A 
HETATM    9  C8  UNK     1      19.752  -1.446  31.564  1.00  0.00     0.077 A 
HETATM   10  C9  UNK     1      20.225  -0.571  29.360  1.00  0.00     0.099 A 
HETATM   11  C10 UNK     1      20.245  -1.628  30.271  1.00  0.00     0.101 A 
ENDROOT
BRANCH   5  12
HETATM   12  C5  UNK     1      17.775   1.151  35.028  1.00  0.00    -0.002 A 
HETATM   13  C11 UNK     1      16.543   0.583  35.360  1.00  0.00     0.014 A 
HETATM   14  C13 UNK     1      16.099   0.600  36.682  1.00  0.00     0.001 A 
HETATM   15  C15 UNK     1      16.884   1.185  37.676  1.00  0.00     0.000 A 
HETATM   16  C14 UNK     1      18.116   1.752  37.347  1.00  0.00     0.001 A 
HETATM   17  C12 UNK     1      18.560   1.736  36.025  1.00  0.00     0.014 A 
ENDBRANCH   5  12
BRANCH  11  18
HETATM   18  O4  UNK     1      20.744  -2.844  29.912  1.00  0.00    -0.358 OA
HETATM   19  H10 UNK     1      21.635  -2.945  30.288  1.00  0.00     0.217 HD
ENDBRANCH  11  18
BRANCH  10  20
HETATM   20  O2  UNK     1      20.706  -0.742  28.095  1.00  0.00    -0.358 OA
HETATM   21  H9  UNK     1      21.525  -0.225  28.007  1.00  0.00     0.217 HD
ENDBRANCH  10  20
TORSDOF 3
ENDMDL
MODEL 2
REMARK VINA RESULT:      -7.9     12.695     16.905
REMARK  3 active torsions:
REMARK  status: ('A' for Active; 'I' for Inactive)
REMARK    1  A    between atoms: C9_13  and  O2_2 
REMARK    2  A    between atoms: C10_14  and  O4_4 
REMARK    3  A    between atoms: C3_7  and  C5_9 
ROOT
HETATM    1  O1  UNK     1      19.237  -0.833  17.099  1.00  0.00    -0.309 OA
HETATM    2  O3  UNK     1      19.257   3.185  16.424  1.00  0.00    -0.287 OA
HETATM    3  C1  UNK     1      19.313   1.423  17.996  1.00  0.00     0.051 A 
HETATM    4  C2  UNK     1      19.301   0.038  18.157  1.00  0.00     0.093 A 
HETATM    5  C3  UNK     1      19.190  -0.310  15.815  1.00  0.00     0.090 A 
HETATM    6  C4  UNK     1      19.255   1.980  16.637  1.00  0.00     0.187 A 
HETATM    7  C6  UNK     1      19.189   1.002  15.533  1.00  0.00     0.093 A 
HETATM    8  C7  UNK     1      19.380   2.261  19.112  1.00  0.00     0.057 A 
HETATM    9  C8  UNK     1      19.355  -0.516  19.435  1.00  0.00     0.077 A 
HETATM   10  C9  UNK     1      19.434   1.705  20.389  1.00  0.00     0.099 A 
HETATM   11  C10 UNK     1      19.421   0.318  20.552  1.00  0.00     0.101 A 
ENDROOT
BRANCH   5  12
HETATM   12  C5  UNK     1      19.116  -1.334  14.753  1.00  0.00    -0.002 A 
HETATM   13  C11 UNK     1      18.662  -2.622  15.051  1.00  0.00     0.014 A 
HETATM   14  C13 UNK     1      18.593  -3.588  14.048  1.00  0.00     0.001 A 
HETATM   15  C15 UNK     1      18.976  -3.272  12.745  1.00  0.00     0.000 A 
HETATM   16  C14 UNK     1      19.430  -1.987  12.444  1.00  0.00     0.001 A 
HETATM   17  C12 UNK     1      19.500  -1.020  13.447  1.00  0.00     0.014 A 
ENDBRANCH   5  12
BRANCH  11  18
HETATM   18  O4  UNK     1      19.473  -0.233  21.796  1.00  0.00    -0.358 OA
HETATM   19  H10 UNK     1      19.796  -1.147  21.726  1.00  0.00     0.217 HD
ENDBRANCH  11  18
BRANCH  10  20
HETATM   20  O2  UNK     1      19.498   2.526  21.475  1.00  0.00    -0.358 OA
HETATM   21  H9  UNK     1      18.719   2.358  22.032  1.00  0.00     0.217 HD
ENDBRANCH  10  20
TORSDOF 3
ENDMDL
MODEL 3
REMARK VINA RESULT:      -7.9     13.464     16.293
REMARK  3 active torsions:
REMARK  status: ('A' for Active; 'I' for Inactive)
REMARK    1  A    between atoms: C9_13  and  O2_2 
REMARK    2  A    between atoms: C10_14  and  O4_4 
REMARK    3  A    between atoms: C3_7  and  C5_9 
ROOT
HETATM    1  O1  UNK     1      20.501  -1.932  17.507  1.00  0.00    -0.309 OA
HETATM    2  O3  UNK     1      17.814  -3.210  14.723  1.00  0.00    -0.287 OA
HETATM    3  C1  UNK     1      19.877  -3.563  15.819  1.00  0.00     0.051 A 
HETATM    4  C2  UNK     1      20.754  -3.070  16.784  1.00  0.00     0.093 A 
HETATM    5  C3  UNK     1      19.317  -1.249  17.270  1.00  0.00     0.090 A 
HETATM    6  C4  UNK     1      18.626  -2.836  15.559  1.00  0.00     0.187 A 
HETATM    7  C6  UNK     1      18.399  -1.619  16.364  1.00  0.00     0.093 A 
HETATM    8  C7  UNK     1      20.188  -4.728  15.113  1.00  0.00     0.057 A 
HETATM    9  C8  UNK     1      21.948  -3.740  17.049  1.00  0.00     0.077 A 
HETATM   10  C9  UNK     1      21.382  -5.396  15.379  1.00  0.00     0.099 A 
HETATM   11  C10 UNK     1      22.262  -4.904  16.345  1.00  0.00     0.101 A 
ENDROOT
BRANCH   5  12
HETATM   12  C5  UNK     1      19.149  -0.036  18.097  1.00  0.00    -0.002 A 
HETATM   13  C11 UNK     1      19.092   1.222  17.493  1.00  0.00     0.014 A 
HETATM   14  C13 UNK     1      18.932   2.366  18.274  1.00  0.00     0.001 A 
HETATM   15  C15 UNK     1      18.830   2.256  19.661  1.00  0.00     0.000 A 
HETATM   16  C14 UNK     1      18.887   1.001  20.267  1.00  0.00     0.001 A 
HETATM   17  C12 UNK     1      19.046  -0.143  19.486  1.00  0.00     0.014 A 
ENDBRANCH   5  12
BRANCH  11  18
HETATM   18  O4  UNK     1      23.431  -5.551  16.611  1.00  0.00    -0.358 OA
HETATM   19  H10 UNK     1      24.155  -5.104  16.139  1.00  0.00     0.217 HD
ENDBRANCH  11  18
BRANCH  10  20
HETATM   20  O2  UNK     1      21.683  -6.532  14.689  1.00  0.00    -0.358 OA
HETATM   21  H9  UNK     1      21.206  -7.275  15.099  1.00  0.00     0.217 HD
ENDBRANCH  10  20
TORSDOF 3
ENDMDL
MODEL 4
REMARK VINA RESULT:      -7.9     23.900     25.866
REMARK  3 active torsions:
REMARK  status: ('A' for Active; 'I' for Inactive)
REMARK    1  A    between atoms: C9_13  and  O2_2 
REMARK    2  A    between atoms: C10_14  and  O4_4 
REMARK    3  A    between atoms: C3_7  and  C5_9 
ROOT
HETATM    1  O1  UNK     1      12.808   6.546   8.521  1.00  0.00    -0.309 OA
HETATM    2  O3  UNK     1      13.801  10.179  10.074  1.00  0.00    -0.287 OA
HETATM    3  C1  UNK     1      14.475   7.974   9.560  1.00  0.00     0.051 A 
HETATM    4  C2  UNK     1      14.069   6.756   9.016  1.00  0.00     0.093 A 
HETATM    5  C3  UNK     1      11.901   7.596   8.556  1.00  0.00     0.090 A 
HETATM    6  C4  UNK     1      13.514   9.086   9.607  1.00  0.00     0.187 A 
HETATM    7  C6  UNK     1      12.170   8.810   9.058  1.00  0.00     0.093 A 
HETATM    8  C7  UNK     1      15.774   8.131  10.050  1.00  0.00     0.057 A 
HETATM    9  C8  UNK     1      14.962   5.686   8.961  1.00  0.00     0.077 A 
HETATM   10  C9  UNK     1      16.664   7.059   9.993  1.00  0.00     0.099 A 
HETATM   11  C10 UNK     1      16.260   5.838   9.450  1.00  0.00     0.101 A 
ENDROOT
BRANCH   5  12
HETATM   12  C5  UNK     1      10.573   7.259   8.003  1.00  0.00    -0.002 A 
HETATM   13  C11 UNK     1      10.463   6.740   6.711  1.00  0.00     0.014 A 
HETATM   14  C13 UNK     1       9.209   6.422   6.190  1.00  0.00     0.001 A 
HETATM   15  C15 UNK     1       8.062   6.622   6.958  1.00  0.00     0.000 A 
HETATM   16  C14 UNK     1       8.169   7.140   8.249  1.00  0.00     0.001 A 
HETATM   17  C12 UNK     1       9.423   7.458   8.770  1.00  0.00     0.014 A 
ENDBRANCH   5  12
BRANCH  11  18
HETATM   18  O4  UNK     1      17.124   4.786   9.392  1.00  0.00    -0.358 OA
HETATM   19  H10 UNK     1      17.576   4.699  10.248  1.00  0.00     0.217 HD
ENDBRANCH  11  18
BRANCH  10  20
HETATM   20  O2  UNK     1      17.931   7.214  10.473  1.00  0.00    -0.358 OA
HETATM   21  H9  UNK     1      18.132   8.166  10.501  1.00  0.00     0.217 HD
ENDBRANCH  10  20
TORSDOF 3
ENDMDL
MODEL 5
REMARK VINA RESULT:      -7.9      2.167      6.356
REMARK  3 active torsions:
REMARK  status: ('A' for Active; 'I' for Inactive)
REMARK    1  A    between atoms: C9_13  and  O2_2 
REMARK    2  A    between atoms: C10_14  and  O4_4 
REMARK    3  A    between atoms: C3_7  and  C5_9 
ROOT
HETATM    1  O1  UNK     1      18.917  -0.369  33.427  1.00  0.00    -0.309 OA
HETATM    2  O3  UNK     1      17.863   3.513  34.073  1.00  0.00    -0.287 OA
HETATM    3  C1  UNK     1      18.172   1.350  34.972  1.00  0.00     0.051 A 
HETATM    4  C2  UNK     1      18.542   0.038  34.682  1.00  0.00     0.093 A 
HETATM    5  C3  UNK     1      18.934   0.569  32.405  1.00  0.00     0.090 A 
HETATM    6  C4  UNK     1      18.181   2.346  33.890  1.00  0.00     0.187 A 
HETATM    7  C6  UNK     1      18.594   1.859  32.558  1.00  0.00     0.093 A 
HETATM    8  C7  UNK     1      17.800   1.708  36.270  1.00  0.00     0.057 A 
HETATM    9  C8  UNK     1      18.541  -0.926  35.690  1.00  0.00     0.077 A 
HETATM   10  C9  UNK     1      17.800   0.743  37.276  1.00  0.00     0.099 A 
HETATM   11  C10 UNK     1      18.170  -0.572  36.988  1.00  0.00     0.101 A 
ENDROOT
BRANCH   5  12
HETATM   12  C5  UNK     1      19.346   0.023  31.096  1.00  0.00    -0.002 A 
HETATM   13  C11 UNK     1      19.095   0.744  29.925  1.00  0.00     0.014 A 
HETATM   14  C13 UNK     1      19.484   0.228  28.690  1.00  0.00     0.001 A 
HETATM   15  C15 UNK     1      20.125  -1.009  28.620  1.00  0.00     0.000 A 
HETATM   16  C14 UNK     1      20.377  -1.731  29.787  1.00  0.00     0.001 A 
HETATM   17  C12 UNK     1      19.987  -1.215  31.022  1.00  0.00     0.014 A 
ENDBRANCH   5  12
BRANCH  11  18
HETATM   18  O4  UNK     1      18.172  -1.521  37.965  1.00  0.00    -0.358 OA
HETATM   19  H10 UNK     1      17.413  -1.371  38.555  1.00  0.00     0.217 HD
ENDBRANCH  11  18
BRANCH  10  20
HETATM   20  O2  UNK     1      17.436   1.095  38.541  1.00  0.00    -0.358 OA
HETATM   21  H9  UNK     1      16.761   1.793  38.482  1.00  0.00     0.217 HD
ENDBRANCH  10  20
TORSDOF 3
ENDMDL
MODEL 6
REMARK VINA RESULT:      -7.7      2.931      6.485
REMARK  3 active torsions:
REMARK  status: ('A' for Active; 'I' for Inactive)
REMARK    1  A    between atoms: C9_13  and  O2_2 
REMARK    2  A    between atoms: C10_14  and  O4_4 
REMARK    3  A    between atoms: C3_7  and  C5_9 
ROOT
HETATM    1  O1  UNK     1      19.765  -1.597  33.473  1.00  0.00    -0.309 OA
HETATM    2  O3  UNK     1      17.229   1.147  35.099  1.00  0.00    -0.287 OA
HETATM    3  C1  UNK     1      18.607  -0.743  35.430  1.00  0.00     0.051 A 
HETATM    4  C2  UNK     1      19.465  -1.651  34.810  1.00  0.00     0.093 A 
HETATM    5  C3  UNK     1      19.194  -0.589  32.709  1.00  0.00     0.090 A 
HETATM    6  C4  UNK     1      17.994   0.320  34.621  1.00  0.00     0.187 A 
HETATM    7  C6  UNK     1      18.350   0.337  33.188  1.00  0.00     0.093 A 
HETATM    8  C7  UNK     1      18.338  -0.848  36.797  1.00  0.00     0.057 A 
HETATM    9  C8  UNK     1      20.058  -2.670  35.555  1.00  0.00     0.077 A 
HETATM   10  C9  UNK     1      18.933  -1.867  37.540  1.00  0.00     0.099 A 
HETATM   11  C10 UNK     1      19.792  -2.777  36.921  1.00  0.00     0.101 A 
ENDROOT
BRANCH   5  12
HETATM   12  C5  UNK     1      19.579  -0.628  31.283  1.00  0.00    -0.002 A 
HETATM   13  C11 UNK     1      19.410   0.503  30.480  1.00  0.00     0.014 A 
HETATM   14  C13 UNK     1      19.774   0.467  29.135  1.00  0.00     0.001 A 
HETATM   15  C15 UNK     1      20.308  -0.699  28.587  1.00  0.00     0.000 A 
HETATM   16  C14 UNK     1      20.478  -1.831  29.386  1.00  0.00     0.001 A 
HETATM   17  C12 UNK     1      20.114  -1.794  30.731  1.00  0.00     0.014 A 
ENDBRANCH   5  12
BRANCH  11  18
HETATM   18  O4  UNK     1      20.376  -3.776  37.639  1.00  0.00    -0.358 OA
HETATM   19  H10 UNK     1      21.089  -4.172  37.110  1.00  0.00     0.217 HD
ENDBRANCH  11  18
BRANCH  10  20
HETATM   20  O2  UNK     1      18.668  -1.966  38.873  1.00  0.00    -0.358 OA
HETATM   21  H9  UNK     1      18.222  -2.816  39.034  1.00  0.00     0.217 HD
ENDBRANCH  10  20
TORSDOF 3
ENDMDL
MODEL 7
REMARK VINA RESULT:      -7.7      1.689      3.102
REMARK  3 active torsions:
REMARK  status: ('A' for Active; 'I' for Inactive)
REMARK    1  A    between atoms: C9_13  and  O2_2 
REMARK    2  A    between atoms: C10_14  and  O4_4 
REMARK    3  A    between atoms: C3_7  and  C5_9 
ROOT
HETATM    1  O1  UNK     1      18.871  -0.012  33.294  1.00  0.00    -0.309 OA
HETATM    2  O3  UNK     1      21.100  -3.327  32.490  1.00  0.00    -0.287 OA
HETATM    3  C1  UNK     1      20.088  -1.353  31.676  1.00  0.00     0.051 A 
HETATM    4  C2  UNK     1      19.320  -0.241  32.019  1.00  0.00     0.093 A 
HETATM    5  C3  UNK     1      19.203  -0.925  34.285  1.00  0.00     0.090 A 
HETATM    6  C4  UNK     1      20.434  -2.327  32.722  1.00  0.00     0.187 A 
HETATM    7  C6  UNK     1      19.929  -2.034  34.079  1.00  0.00     0.093 A 
HETATM    8  C7  UNK     1      20.518  -1.535  30.359  1.00  0.00     0.057 A 
HETATM    9  C8  UNK     1      18.977   0.696  31.045  1.00  0.00     0.077 A 
HETATM   10  C9  UNK     1      20.173  -0.596  29.387  1.00  0.00     0.099 A 
HETATM   11  C10 UNK     1      19.404   0.518  29.729  1.00  0.00     0.101 A 
ENDROOT
BRANCH   5  12
HETATM   12  C5  UNK     1      18.664  -0.584  35.618  1.00  0.00    -0.002 A 
HETATM   13  C11 UNK     1      18.315   0.735  35.918  1.00  0.00     0.014 A 
HETATM   14  C13 UNK     1      17.805   1.055  37.175  1.00  0.00     0.001 A 
HETATM   15  C15 UNK     1      17.644   0.059  38.138  1.00  0.00     0.000 A 
HETATM   16  C14 UNK     1      17.992  -1.259  37.842  1.00  0.00     0.001 A 
HETATM   17  C12 UNK     1      18.501  -1.580  36.584  1.00  0.00     0.014 A 
ENDBRANCH   5  12
BRANCH  11  18
HETATM   18  O4  UNK     1      19.064   1.439  28.785  1.00  0.00    -0.358 OA
HETATM   19  H10 UNK     1      19.022   2.318  29.199  1.00  0.00     0.217 HD
ENDBRANCH  11  18
BRANCH  10  20
HETATM   20  O2  UNK     1      20.594  -0.777  28.103  1.00  0.00    -0.358 OA
HETATM   21  H9  UNK     1      20.943  -1.681  28.020  1.00  0.00     0.217 HD
ENDBRANCH  10  20
TORSDOF 3
ENDMDL
MODEL 8
REMARK VINA RESULT:      -7.7      2.344      4.549
REMARK  3 active torsions:
REMARK  status: ('A' for Active; 'I' for Inactive)
REMARK    1  A    between atoms: C9_13  and  O2_2 
REMARK    2  A    between atoms: C10_14  and  O4_4 
REMARK    3  A    between atoms: C3_7  and  C5_9 
ROOT
HETATM    1  O1  UNK     1      17.935   3.119  33.717  1.00  0.00    -0.309 OA
HETATM    2  O3  UNK     1      19.214   1.348  30.278  1.00  0.00    -0.287 OA
HETATM    3  C1  UNK     1      18.624   3.342  31.399  1.00  0.00     0.051 A 
HETATM    4  C2  UNK     1      18.183   3.883  32.606  1.00  0.00     0.093 A 
HETATM    5  C3  UNK     1      18.140   1.749  33.636  1.00  0.00     0.090 A 
HETATM    6  C4  UNK     1      18.834   1.889  31.307  1.00  0.00     0.187 A 
HETATM    7  C6  UNK     1      18.555   1.111  32.531  1.00  0.00     0.093 A 
HETATM    8  C7  UNK     1      18.860   4.170  30.299  1.00  0.00     0.057 A 
HETATM    9  C8  UNK     1      17.976   5.257  32.719  1.00  0.00     0.077 A 
HETATM   10  C9  UNK     1      18.652   5.544  30.415  1.00  0.00     0.099 A 
HETATM   11  C10 UNK     1      18.210   6.087  31.622  1.00  0.00     0.101 A 
ENDROOT
BRANCH   5  12
HETATM   12  C5  UNK     1      17.838   1.022  34.886  1.00  0.00    -0.002 A 
HETATM   13  C11 UNK     1      17.547  -0.344  34.851  1.00  0.00     0.014 A 
HETATM   14  C13 UNK     1      17.262  -1.029  36.031  1.00  0.00     0.001 A 
HETATM   15  C15 UNK     1      17.266  -0.352  37.250  1.00  0.00     0.000 A 
HETATM   16  C14 UNK     1      17.556   1.012  37.289  1.00  0.00     0.001 A 
HETATM   17  C12 UNK     1      17.841   1.698  36.109  1.00  0.00     0.014 A 
ENDBRANCH   5  12
BRANCH  11  18
HETATM   18  O4  UNK     1      18.004   7.429  31.743  1.00  0.00    -0.358 OA
HETATM   19  H10 UNK     1      17.381   7.590  32.471  1.00  0.00     0.217 HD
ENDBRANCH  11  18
BRANCH  10  20
HETATM   20  O2  UNK     1      18.883   6.349  29.339  1.00  0.00    -0.358 OA
HETATM   21  H9  UNK     1      19.563   7.000  29.585  1.00  0.00     0.217 HD
ENDBRANCH  10  20
TORSDOF 3
ENDMDL
MODEL 9
REMARK VINA RESULT:      -7.7     23.890     25.950
REMARK  3 active torsions:
REMARK  status: ('A' for Active; 'I' for Inactive)
REMARK    1  A    between atoms: C9_13  and  O2_2 
REMARK    2  A    between atoms: C10_14  and  O4_4 
REMARK    3  A    between atoms: C3_7  and  C5_9 
ROOT
HETATM    1  O1  UNK     1      13.168   7.450   8.447  1.00  0.00    -0.309 OA
HETATM    2  O3  UNK     1      15.220   4.137   9.638  1.00  0.00    -0.287 OA
HETATM    3  C1  UNK     1      15.177   6.489   9.417  1.00  0.00     0.051 A 
HETATM    4  C2  UNK     1      14.422   7.579   8.988  1.00  0.00     0.093 A 
HETATM    5  C3  UNK     1      12.628   6.177   8.331  1.00  0.00     0.090 A 
HETATM    6  C4  UNK     1      14.611   5.138   9.287  1.00  0.00     0.187 A 
HETATM    7  C6  UNK     1      13.258   5.051   8.701  1.00  0.00     0.093 A 
HETATM    8  C7  UNK     1      16.450   6.682   9.960  1.00  0.00     0.057 A 
HETATM    9  C8  UNK     1      14.936   8.871   9.099  1.00  0.00     0.077 A 
HETATM   10  C9  UNK     1      16.961   7.974  10.071  1.00  0.00     0.099 A 
HETATM   11  C10 UNK     1      16.207   9.067   9.641  1.00  0.00     0.101 A 
ENDROOT
BRANCH   5  12
HETATM   12  C5  UNK     1      11.278   6.151   7.731  1.00  0.00    -0.002 A 
HETATM   13  C11 UNK     1      11.127   6.180   6.343  1.00  0.00     0.014 A 
HETATM   14  C13 UNK     1       9.852   6.156   5.777  1.00  0.00     0.001 A 
HETATM   15  C15 UNK     1       8.725   6.102   6.597  1.00  0.00     0.000 A 
HETATM   16  C14 UNK     1       8.873   6.074   7.984  1.00  0.00     0.001 A 
HETATM   17  C12 UNK     1      10.147   6.098   8.549  1.00  0.00     0.014 A 
ENDBRANCH   5  12
BRANCH  11  18
HETATM   18  O4  UNK     1      16.701  10.333   9.746  1.00  0.00    -0.358 OA
HETATM   19  H10 UNK     1      17.362  10.358  10.458  1.00  0.00     0.217 HD
ENDBRANCH  11  18
BRANCH  10  20
HETATM   20  O2  UNK     1      18.204   8.159  10.601  1.00  0.00    -0.358 OA
HETATM   21  H9  UNK     1      18.534   9.027  10.310  1.00  0.00     0.217 HD
ENDBRANCH  10  20
TORSDOF 3
ENDMDL
MODEL 10
REMARK VINA RESULT:      -7.7      2.702      6.261
REMARK  3 active torsions:
REMARK  status: ('A' for Active; 'I' for Inactive)
REMARK    1  A    between atoms: C9_13  and  O2_2 
REMARK    2  A    between atoms: C10_14  and  O4_4 
REMARK    3  A    between atoms: C3_7  and  C5_9 
ROOT
HETATM    1  O1  UNK     1      18.222   2.782  34.358  1.00  0.00    -0.309 OA
HETATM    2  O3  UNK     1      18.373  -0.952  32.735  1.00  0.00    -0.287 OA
HETATM    3  C1  UNK     1      18.196   0.375  34.681  1.00  0.00     0.051 A 
HETATM    4  C2  UNK     1      18.151   1.680  35.171  1.00  0.00     0.093 A 
HETATM    5  C3  UNK     1      18.334   2.587  32.989  1.00  0.00     0.090 A 
HETATM    6  C4  UNK     1      18.324   0.165  33.232  1.00  0.00     0.187 A 
HETATM    7  C6  UNK     1      18.393   1.383  32.399  1.00  0.00     0.093 A 
HETATM    8  C7  UNK     1      18.120  -0.710  35.558  1.00  0.00     0.057 A 
HETATM    9  C8  UNK     1      18.032   1.907  36.542  1.00  0.00     0.077 A 
HETATM   10  C9  UNK     1      18.000  -0.480  36.928  1.00  0.00     0.099 A 
HETATM   11  C10 UNK     1      17.956   0.825  37.420  1.00  0.00     0.101 A 
ENDROOT
BRANCH   5  12
HETATM   12  C5  UNK     1      18.408   3.840  32.209  1.00  0.00    -0.002 A 
HETATM   13  C11 UNK     1      18.903   3.824  30.902  1.00  0.00     0.014 A 
HETATM   14  C13 UNK     1      18.972   5.006  30.166  1.00  0.00     0.001 A 
HETATM   15  C15 UNK     1      18.547   6.208  30.733  1.00  0.00     0.000 A 
HETATM   16  C14 UNK     1      18.053   6.227  32.038  1.00  0.00     0.001 A 
HETATM   17  C12 UNK     1      17.984   5.044  32.774  1.00  0.00     0.014 A 
ENDBRANCH   5  12
BRANCH  11  18
HETATM   18  O4  UNK     1      17.839   1.057  38.757  1.00  0.00    -0.358 OA
HETATM   19  H10 UNK     1      18.727   1.146  39.143  1.00  0.00     0.217 HD
ENDBRANCH  11  18
BRANCH  10  20
HETATM   20  O2  UNK     1      17.927  -1.542  37.780  1.00  0.00    -0.358 OA
HETATM   21  H9  UNK     1      16.996  -1.820  37.844  1.00  0.00     0.217 HD
ENDBRANCH  10  20
TORSDOF 3
ENDMDL
