MODEL 1
REMARK VINA RESULT:      -8.1      0.000      0.000
REMARK  2 active torsions:
REMARK  status: ('A' for Active; 'I' for Inactive)
REMARK    1  A    between atoms: C11_16  and  O3_3 
REMARK       I    between atoms: C5_10  and  N1_5 
REMARK    2  A    between atoms: C5_10  and  C6_11 
ROOT
HETATM    1  O1  UNK     1      19.390   1.158  16.250  1.00  0.00    -0.271 OA
HETATM    2  O4  UNK     1      19.505   0.029  14.267  1.00  0.00    -0.259 OA
HETATM    3  C6  UNK     1      18.859  -1.228  16.169  1.00  0.00     0.108 A 
HETATM    4  C7  UNK     1      18.608  -1.246  17.483  1.00  0.00     0.037 A 
HETATM    5  C8  UNK     1      18.740  -0.029  18.271  1.00  0.00     0.002 A 
HETATM    6  C9  UNK     1      19.274   0.010  15.472  1.00  0.00     0.304 A 
HETATM    7  C10 UNK     1      19.128   1.146  17.635  1.00  0.00     0.123 A 
HETATM    8  C11 UNK     1      19.271   2.344  18.331  1.00  0.00     0.102 A 
HETATM    9  C12 UNK     1      18.488  -0.000  19.645  1.00  0.00     0.014 A 
HETATM   10  C13 UNK     1      19.019   2.364  19.701  1.00  0.00     0.040 A 
HETATM   11  C14 UNK     1      18.629   1.195  20.357  1.00  0.00     0.004 A 
ENDROOT
BRANCH   3  12
HETATM   12  C5  UNK     1      18.698  -2.511  15.457  1.00  0.00     0.259 C 
HETATM   13  O2  UNK     1      17.671  -2.704  14.808  1.00  0.00    -0.267 OA
HETATM   14  N1  UNK     1      19.731  -3.420  15.580  1.00  0.00    -0.348 N 
HETATM   15  C3  UNK     1      20.976  -3.263  16.330  1.00  0.00     0.126 C 
HETATM   16  C4  UNK     1      19.681  -4.723  14.930  1.00  0.00     0.126 C 
HETATM   17  C1  UNK     1      21.830  -4.451  15.910  1.00  0.00     0.021 C 
HETATM   18  C2  UNK     1      20.796  -5.521  15.589  1.00  0.00     0.021 C 
ENDBRANCH   3  12
BRANCH   8  19
HETATM   19  O3  UNK     1      19.651   3.486  17.696  1.00  0.00    -0.353 OA
HETATM   20  C15 UNK     1      20.608   4.312  18.360  1.00  0.00     0.210 C 
ENDBRANCH   8  19
TORSDOF 2
ENDMDL
MODEL 2
REMARK VINA RESULT:      -7.9     12.560     14.594
REMARK  2 active torsions:
REMARK  status: ('A' for Active; 'I' for Inactive)
REMARK    1  A    between atoms: C11_16  and  O3_3 
REMARK       I    between atoms: C5_10  and  N1_5 
REMARK    2  A    between atoms: C5_10  and  C6_11 
ROOT
HETATM    1  O1  UNK     1      11.155   7.529   9.555  1.00  0.00    -0.271 OA
HETATM    2  O4  UNK     1      12.694   8.099  11.145  1.00  0.00    -0.259 OA
HETATM    3  C6  UNK     1      13.543   7.277   9.091  1.00  0.00     0.108 A 
HETATM    4  C7  UNK     1      13.284   6.809   7.864  1.00  0.00     0.037 A 
HETATM    5  C8  UNK     1      11.909   6.672   7.408  1.00  0.00     0.002 A 
HETATM    6  C9  UNK     1      12.459   7.670  10.020  1.00  0.00     0.304 A 
HETATM    7  C10 UNK     1      10.875   7.036   8.266  1.00  0.00     0.123 A 
HETATM    8  C11 UNK     1       9.538   6.930   7.889  1.00  0.00     0.102 A 
HETATM    9  C12 UNK     1      11.591   6.188   6.137  1.00  0.00     0.014 A 
HETATM   10  C13 UNK     1       9.230   6.446   6.620  1.00  0.00     0.040 A 
HETATM   11  C14 UNK     1      10.253   6.075   5.745  1.00  0.00     0.004 A 
ENDROOT
BRANCH   3  12
HETATM   12  C5  UNK     1      14.968   7.379   9.462  1.00  0.00     0.259 C 
HETATM   13  O2  UNK     1      15.547   6.374   9.874  1.00  0.00    -0.267 OA
HETATM   14  N1  UNK     1      15.556   8.621   9.322  1.00  0.00    -0.348 N 
HETATM   15  C3  UNK     1      14.935   9.855   8.842  1.00  0.00     0.126 C 
HETATM   16  C4  UNK     1      16.953   8.846   9.664  1.00  0.00     0.126 C 
HETATM   17  C1  UNK     1      16.095  10.823   8.661  1.00  0.00     0.021 C 
HETATM   18  C2  UNK     1      17.096  10.360   9.710  1.00  0.00     0.021 C 
ENDBRANCH   3  12
BRANCH   8  19
HETATM   19  O3  UNK     1       8.537   7.290   8.737  1.00  0.00    -0.353 OA
HETATM   20  C15 UNK     1       7.825   6.238   9.387  1.00  0.00     0.210 C 
ENDBRANCH   8  19
TORSDOF 2
ENDMDL
MODEL 3
REMARK VINA RESULT:      -7.6     14.019     16.704
REMARK  2 active torsions:
REMARK  status: ('A' for Active; 'I' for Inactive)
REMARK    1  A    between atoms: C11_16  and  O3_3 
REMARK       I    between atoms: C5_10  and  N1_5 
REMARK    2  A    between atoms: C5_10  and  C6_11 
ROOT
HETATM    1  O1  UNK     1      18.550   1.153  31.905  1.00  0.00    -0.271 OA
HETATM    2  O4  UNK     1      17.544   1.715  33.878  1.00  0.00    -0.259 OA
HETATM    3  C6  UNK     1      18.393  -0.491  33.709  1.00  0.00     0.108 A 
HETATM    4  C7  UNK     1      19.021  -1.409  32.965  1.00  0.00     0.037 A 
HETATM    5  C8  UNK     1      19.457  -1.085  31.615  1.00  0.00     0.002 A 
HETATM    6  C9  UNK     1      18.120   0.872  33.198  1.00  0.00     0.304 A 
HETATM    7  C10 UNK     1      19.211   0.190  31.116  1.00  0.00     0.123 A 
HETATM    8  C11 UNK     1      19.604   0.564  29.833  1.00  0.00     0.102 A 
HETATM    9  C12 UNK     1      20.116  -2.011  30.803  1.00  0.00     0.014 A 
HETATM   10  C13 UNK     1      20.259  -0.366  29.029  1.00  0.00     0.040 A 
HETATM   11  C14 UNK     1      20.514  -1.651  29.512  1.00  0.00     0.004 A 
ENDROOT
BRANCH   3  12
HETATM   12  C5  UNK     1      17.990  -0.914  35.065  1.00  0.00     0.259 C 
HETATM   13  O2  UNK     1      16.921  -0.507  35.520  1.00  0.00    -0.267 OA
HETATM   14  N1  UNK     1      18.862  -1.748  35.737  1.00  0.00    -0.348 N 
HETATM   15  C3  UNK     1      20.143  -2.270  35.263  1.00  0.00     0.126 C 
HETATM   16  C4  UNK     1      18.576  -2.225  37.083  1.00  0.00     0.126 C 
HETATM   17  C1  UNK     1      20.538  -3.315  36.297  1.00  0.00     0.021 C 
HETATM   18  C2  UNK     1      19.899  -2.791  37.576  1.00  0.00     0.021 C 
ENDBRANCH   3  12
BRANCH   8  19
HETATM   19  O3  UNK     1      19.357   1.814  29.357  1.00  0.00    -0.353 OA
HETATM   20  C15 UNK     1      18.093   2.036  28.732  1.00  0.00     0.210 C 
ENDBRANCH   8  19
TORSDOF 2
ENDMDL
MODEL 4
REMARK VINA RESULT:      -7.5     17.740     19.565
REMARK  2 active torsions:
REMARK  status: ('A' for Active; 'I' for Inactive)
REMARK    1  A    between atoms: C11_16  and  O3_3 
REMARK       I    between atoms: C5_10  and  N1_5 
REMARK    2  A    between atoms: C5_10  and  C6_11 
ROOT
HETATM    1  O1  UNK     1      19.539  -1.408  34.782  1.00  0.00    -0.271 OA
HETATM    2  O4  UNK     1      20.700  -3.286  34.195  1.00  0.00    -0.259 OA
HETATM    3  C6  UNK     1      19.913  -3.179  36.428  1.00  0.00     0.108 A 
HETATM    4  C7  UNK     1      19.250  -2.488  37.363  1.00  0.00     0.037 A 
HETATM    5  C8  UNK     1      18.684  -1.185  37.048  1.00  0.00     0.002 A 
HETATM    6  C9  UNK     1      20.093  -2.655  35.054  1.00  0.00     0.304 A 
HETATM    7  C10 UNK     1      18.841  -0.675  35.763  1.00  0.00     0.123 A 
HETATM    8  C11 UNK     1      18.322   0.565  35.397  1.00  0.00     0.102 A 
HETATM    9  C12 UNK     1      17.985  -0.429  37.992  1.00  0.00     0.014 A 
HETATM   10  C13 UNK     1      17.627   1.312  36.345  1.00  0.00     0.040 A 
HETATM   11  C14 UNK     1      17.459   0.818  37.640  1.00  0.00     0.004 A 
ENDROOT
BRANCH   3  12
HETATM   12  C5  UNK     1      20.451  -4.489  36.843  1.00  0.00     0.259 C 
HETATM   13  O2  UNK     1      21.626  -4.561  37.202  1.00  0.00    -0.267 OA
HETATM   14  N1  UNK     1      19.580  -5.559  36.793  1.00  0.00    -0.348 N 
HETATM   15  C3  UNK     1      18.177  -5.551  36.379  1.00  0.00     0.126 C 
HETATM   16  C4  UNK     1      19.998  -6.902  37.171  1.00  0.00     0.126 C 
HETATM   17  C1  UNK     1      17.657  -6.930  36.759  1.00  0.00     0.021 C 
HETATM   18  C2  UNK     1      18.896  -7.808  36.645  1.00  0.00     0.021 C 
ENDBRANCH   3  12
BRANCH   8  19
HETATM   19  O3  UNK     1      18.483   1.051  34.137  1.00  0.00    -0.353 OA
HETATM   20  C15 UNK     1      18.152   2.423  33.921  1.00  0.00     0.210 C 
ENDBRANCH   8  19
TORSDOF 2
ENDMDL
MODEL 5
REMARK VINA RESULT:      -7.2     13.497     17.289
REMARK  2 active torsions:
REMARK  status: ('A' for Active; 'I' for Inactive)
REMARK    1  A    between atoms: C11_16  and  O3_3 
REMARK       I    between atoms: C5_10  and  N1_5 
REMARK    2  A    between atoms: C5_10  and  C6_11 
ROOT
HETATM    1  O1  UNK     1      18.756   4.318  30.452  1.00  0.00    -0.271 OA
HETATM    2  O4  UNK     1      18.664   6.570  30.082  1.00  0.00    -0.259 OA
HETATM    3  C6  UNK     1      18.210   5.838  32.288  1.00  0.00     0.108 A 
HETATM    4  C7  UNK     1      18.093   4.811  33.140  1.00  0.00     0.037 A 
HETATM    5  C8  UNK     1      18.306   3.448  32.678  1.00  0.00     0.002 A 
HETATM    6  C9  UNK     1      18.557   5.632  30.864  1.00  0.00     0.304 A 
HETATM    7  C10 UNK     1      18.633   3.233  31.343  1.00  0.00     0.123 A 
HETATM    8  C11 UNK     1      18.851   1.953  30.838  1.00  0.00     0.102 A 
HETATM    9  C12 UNK     1      18.194   2.347  33.530  1.00  0.00     0.014 A 
HETATM   10  C13 UNK     1      18.737   0.861  31.695  1.00  0.00     0.040 A 
HETATM   11  C14 UNK     1      18.409   1.056  33.038  1.00  0.00     0.004 A 
ENDROOT
BRANCH   3  12
HETATM   12  C5  UNK     1      17.975   7.182  32.851  1.00  0.00     0.259 C 
HETATM   13  O2  UNK     1      18.942   7.847  33.221  1.00  0.00    -0.267 OA
HETATM   14  N1  UNK     1      16.660   7.599  32.928  1.00  0.00    -0.348 N 
HETATM   15  C3  UNK     1      15.465   6.867  32.511  1.00  0.00     0.126 C 
HETATM   16  C4  UNK     1      16.304   8.902  33.472  1.00  0.00     0.126 C 
HETATM   17  C1  UNK     1      14.341   7.891  32.592  1.00  0.00     0.021 C 
HETATM   18  C2  UNK     1      14.803   8.821  33.705  1.00  0.00     0.021 C 
ENDBRANCH   3  12
BRANCH   8  19
HETATM   19  O3  UNK     1      19.171   1.757  29.531  1.00  0.00    -0.353 OA
HETATM   20  C15 UNK     1      18.099   1.455  28.637  1.00  0.00     0.210 C 
ENDBRANCH   8  19
TORSDOF 2
ENDMDL
MODEL 6
REMARK VINA RESULT:      -7.2     22.007     23.554
REMARK  2 active torsions:
REMARK  status: ('A' for Active; 'I' for Inactive)
REMARK    1  A    between atoms: C11_16  and  O3_3 
REMARK       I    between atoms: C5_10  and  N1_5 
REMARK    2  A    between atoms: C5_10  and  C6_11 
ROOT
HETATM    1  O1  UNK     1      25.424  -5.651  38.799  1.00  0.00    -0.271 OA
HETATM    2  O4  UNK     1      23.159  -5.354  38.853  1.00  0.00    -0.259 OA
HETATM    3  C6  UNK     1      23.939  -7.588  38.969  1.00  0.00     0.108 A 
HETATM    4  C7  UNK     1      24.986  -8.423  38.988  1.00  0.00     0.037 A 
HETATM    5  C8  UNK     1      26.341  -7.901  38.910  1.00  0.00     0.002 A 
HETATM    6  C9  UNK     1      24.116  -6.121  38.871  1.00  0.00     0.304 A 
HETATM    7  C10 UNK     1      26.529  -6.525  38.817  1.00  0.00     0.123 A 
HETATM    8  C11 UNK     1      27.801  -5.962  38.740  1.00  0.00     0.102 A 
HETATM    9  C12 UNK     1      27.463  -8.734  38.926  1.00  0.00     0.014 A 
HETATM   10  C13 UNK     1      28.913  -6.800  38.756  1.00  0.00     0.040 A 
HETATM   11  C14 UNK     1      28.745  -8.183  38.848  1.00  0.00     0.004 A 
ENDROOT
BRANCH   3  12
HETATM   12  C5  UNK     1      22.605  -8.212  39.053  1.00  0.00     0.259 C 
HETATM   13  O2  UNK     1      22.014  -8.205  40.133  1.00  0.00    -0.267 OA
HETATM   14  N1  UNK     1      22.111  -8.775  37.892  1.00  0.00    -0.348 N 
HETATM   15  C3  UNK     1      22.752  -8.822  36.579  1.00  0.00     0.126 C 
HETATM   16  C4  UNK     1      20.809  -9.427  37.855  1.00  0.00     0.126 C 
HETATM   17  C1  UNK     1      21.665  -9.324  35.639  1.00  0.00     0.021 C 
HETATM   18  C2  UNK     1      20.806 -10.197  36.543  1.00  0.00     0.021 C 
ENDBRANCH   3  12
BRANCH   8  19
HETATM   19  O3  UNK     1      27.970  -4.615  38.650  1.00  0.00    -0.353 OA
HETATM   20  C15 UNK     1      29.277  -4.105  38.910  1.00  0.00     0.210 C 
ENDBRANCH   8  19
TORSDOF 2
ENDMDL
MODEL 7
REMARK VINA RESULT:      -7.2     15.561     19.089
REMARK  2 active torsions:
REMARK  status: ('A' for Active; 'I' for Inactive)
REMARK    1  A    between atoms: C11_16  and  O3_3 
REMARK       I    between atoms: C5_10  and  N1_5 
REMARK    2  A    between atoms: C5_10  and  C6_11 
ROOT
HETATM    1  O1  UNK     1      17.471   5.654  33.817  1.00  0.00    -0.271 OA
HETATM    2  O4  UNK     1      16.776   7.206  35.343  1.00  0.00    -0.259 OA
HETATM    3  C6  UNK     1      17.526   8.033  33.253  1.00  0.00     0.108 A 
HETATM    4  C7  UNK     1      18.014   7.761  32.036  1.00  0.00     0.037 A 
HETATM    5  C8  UNK     1      18.264   6.385  31.638  1.00  0.00     0.002 A 
HETATM    6  C9  UNK     1      17.223   6.960  34.228  1.00  0.00     0.304 A 
HETATM    7  C10 UNK     1      17.986   5.361  32.539  1.00  0.00     0.123 A 
HETATM    8  C11 UNK     1      18.202   4.023  32.219  1.00  0.00     0.102 A 
HETATM    9  C12 UNK     1      18.774   6.054  30.379  1.00  0.00     0.014 A 
HETATM   10  C13 UNK     1      18.711   3.703  30.962  1.00  0.00     0.040 A 
HETATM   11  C14 UNK     1      18.997   4.715  30.044  1.00  0.00     0.004 A 
ENDROOT
BRANCH   3  12
HETATM   12  C5  UNK     1      17.306   9.459  33.564  1.00  0.00     0.259 C 
HETATM   13  O2  UNK     1      18.280  10.169  33.812  1.00  0.00    -0.267 OA
HETATM   14  N1  UNK     1      15.997   9.898  33.558  1.00  0.00    -0.348 N 
HETATM   15  C3  UNK     1      14.793   9.118  33.275  1.00  0.00     0.126 C 
HETATM   16  C4  UNK     1      15.655  11.282  33.858  1.00  0.00     0.126 C 
HETATM   17  C1  UNK     1      13.682  10.152  33.164  1.00  0.00     0.021 C 
HETATM   18  C2  UNK     1      14.153  11.262  34.094  1.00  0.00     0.021 C 
ENDBRANCH   3  12
BRANCH   8  19
HETATM   19  O3  UNK     1      17.926   3.033  33.109  1.00  0.00    -0.353 OA
HETATM   20  C15 UNK     1      18.343   1.712  32.764  1.00  0.00     0.210 C 
ENDBRANCH   8  19
TORSDOF 2
ENDMDL
MODEL 8
REMARK VINA RESULT:      -7.1     19.610     21.958
REMARK  2 active torsions:
REMARK  status: ('A' for Active; 'I' for Inactive)
REMARK    1  A    between atoms: C11_16  and  O3_3 
REMARK       I    between atoms: C5_10  and  N1_5 
REMARK    2  A    between atoms: C5_10  and  C6_11 
ROOT
HETATM    1  O1  UNK     1      19.283  -6.657  37.782  1.00  0.00    -0.271 OA
HETATM    2  O4  UNK     1      17.905  -5.506  36.369  1.00  0.00    -0.259 OA
HETATM    3  C6  UNK     1      20.073  -4.611  36.700  1.00  0.00     0.108 A 
HETATM    4  C7  UNK     1      21.264  -4.719  37.302  1.00  0.00     0.037 A 
HETATM    5  C8  UNK     1      21.532  -5.832  38.201  1.00  0.00     0.002 A 
HETATM    6  C9  UNK     1      18.997  -5.604  36.919  1.00  0.00     0.304 A 
HETATM    7  C10 UNK     1      20.534  -6.777  38.420  1.00  0.00     0.123 A 
HETATM    8  C11 UNK     1      20.728  -7.865  39.267  1.00  0.00     0.102 A 
HETATM    9  C12 UNK     1      22.759  -5.985  38.851  1.00  0.00     0.014 A 
HETATM   10  C13 UNK     1      21.954  -8.010  39.911  1.00  0.00     0.040 A 
HETATM   11  C14 UNK     1      22.967  -7.072  39.705  1.00  0.00     0.004 A 
ENDROOT
BRANCH   3  12
HETATM   12  C5  UNK     1      19.897  -3.448  35.808  1.00  0.00     0.259 C 
HETATM   13  O2  UNK     1      20.359  -3.500  34.669  1.00  0.00    -0.267 OA
HETATM   14  N1  UNK     1      19.218  -2.365  36.331  1.00  0.00    -0.348 N 
HETATM   15  C3  UNK     1      18.643  -2.231  37.669  1.00  0.00     0.126 C 
HETATM   16  C4  UNK     1      18.990  -1.158  35.548  1.00  0.00     0.126 C 
HETATM   17  C1  UNK     1      17.813  -0.957  37.604  1.00  0.00     0.021 C 
HETATM   18  C2  UNK     1      18.550  -0.119  36.568  1.00  0.00     0.021 C 
ENDBRANCH   3  12
BRANCH   8  19
HETATM   19  O3  UNK     1      19.743  -8.782  39.471  1.00  0.00    -0.353 OA
HETATM   20  C15 UNK     1      19.825 -10.001  38.733  1.00  0.00     0.210 C 
ENDBRANCH   8  19
TORSDOF 2
ENDMDL
MODEL 9
REMARK VINA RESULT:      -7.1     15.573     17.915
REMARK  2 active torsions:
REMARK  status: ('A' for Active; 'I' for Inactive)
REMARK    1  A    between atoms: C11_16  and  O3_3 
REMARK       I    between atoms: C5_10  and  N1_5 
REMARK    2  A    between atoms: C5_10  and  C6_11 
ROOT
HETATM    1  O1  UNK     1      18.114   2.123  32.257  1.00  0.00    -0.271 OA
HETATM    2  O4  UNK     1      18.162   3.735  30.639  1.00  0.00    -0.259 OA
HETATM    3  C6  UNK     1      18.442   4.467  32.875  1.00  0.00     0.108 A 
HETATM    4  C7  UNK     1      18.517   4.143  34.172  1.00  0.00     0.037 A 
HETATM    5  C8  UNK     1      18.389   2.755  34.590  1.00  0.00     0.002 A 
HETATM    6  C9  UNK     1      18.231   3.441  31.828  1.00  0.00     0.304 A 
HETATM    7  C10 UNK     1      18.190   1.776  33.621  1.00  0.00     0.123 A 
HETATM    8  C11 UNK     1      18.061   0.430  33.955  1.00  0.00     0.102 A 
HETATM    9  C12 UNK     1      18.460   2.371  35.931  1.00  0.00     0.014 A 
HETATM   10  C13 UNK     1      18.133   0.056  35.294  1.00  0.00     0.040 A 
HETATM   11  C14 UNK     1      18.331   1.024  36.281  1.00  0.00     0.004 A 
ENDROOT
BRANCH   3  12
HETATM   12  C5  UNK     1      18.583   5.900  32.551  1.00  0.00     0.259 C 
HETATM   13  O2  UNK     1      19.713   6.372  32.430  1.00  0.00    -0.267 OA
HETATM   14  N1  UNK     1      17.413   6.620  32.412  1.00  0.00    -0.348 N 
HETATM   15  C3  UNK     1      16.041   6.131  32.541  1.00  0.00     0.126 C 
HETATM   16  C4  UNK     1      17.426   8.043  32.101  1.00  0.00     0.126 C 
HETATM   17  C1  UNK     1      15.175   7.279  32.042  1.00  0.00     0.021 C 
HETATM   18  C2  UNK     1      16.006   8.509  32.384  1.00  0.00     0.021 C 
ENDBRANCH   3  12
BRANCH   8  19
HETATM   19  O3  UNK     1      17.868  -0.517  32.997  1.00  0.00    -0.353 OA
HETATM   20  C15 UNK     1      19.000  -1.300  32.618  1.00  0.00     0.210 C 
ENDBRANCH   8  19
TORSDOF 2
ENDMDL
MODEL 10
REMARK VINA RESULT:      -7.1     15.983     18.415
REMARK  2 active torsions:
REMARK  status: ('A' for Active; 'I' for Inactive)
REMARK    1  A    between atoms: C11_16  and  O3_3 
REMARK       I    between atoms: C5_10  and  N1_5 
REMARK    2  A    between atoms: C5_10  and  C6_11 
ROOT
HETATM    1  O1  UNK     1      18.740  -0.224  34.010  1.00  0.00    -0.271 OA
HETATM    2  O4  UNK     1      18.980   0.411  31.828  1.00  0.00    -0.259 OA
HETATM    3  C6  UNK     1      18.136   2.044  33.323  1.00  0.00     0.108 A 
HETATM    4  C7  UNK     1      17.777   2.357  34.574  1.00  0.00     0.037 A 
HETATM    5  C8  UNK     1      17.881   1.368  35.636  1.00  0.00     0.002 A 
HETATM    6  C9  UNK     1      18.649   0.700  32.974  1.00  0.00     0.304 A 
HETATM    7  C10 UNK     1      18.362   0.099  35.329  1.00  0.00     0.123 A 
HETATM    8  C11 UNK     1      18.488  -0.893  36.299  1.00  0.00     0.102 A 
HETATM    9  C12 UNK     1      17.517   1.650  36.955  1.00  0.00     0.014 A 
HETATM   10  C13 UNK     1      18.122  -0.603  37.612  1.00  0.00     0.040 A 
HETATM   11  C14 UNK     1      17.637   0.664  37.939  1.00  0.00     0.004 A 
ENDROOT
BRANCH   3  12
HETATM   12  C5  UNK     1      17.993   3.114  32.316  1.00  0.00     0.259 C 
HETATM   13  O2  UNK     1      17.459   2.848  31.240  1.00  0.00    -0.267 OA
HETATM   14  N1  UNK     1      18.484   4.358  32.662  1.00  0.00    -0.348 N 
HETATM   15  C3  UNK     1      19.128   4.748  33.916  1.00  0.00     0.126 C 
HETATM   16  C4  UNK     1      18.408   5.489  31.748  1.00  0.00     0.126 C 
HETATM   17  C1  UNK     1      19.230   6.265  33.840  1.00  0.00     0.021 C 
HETATM   18  C2  UNK     1      19.347   6.526  32.344  1.00  0.00     0.021 C 
ENDBRANCH   3  12
BRANCH   8  19
HETATM   19  O3  UNK     1      18.959  -2.129  35.985  1.00  0.00    -0.353 OA
HETATM   20  C15 UNK     1      20.330  -2.397  36.280  1.00  0.00     0.210 C 
ENDBRANCH   8  19
TORSDOF 2
ENDMDL
