MODEL 1
REMARK VINA RESULT:      -8.5      0.000      0.000
REMARK  6 active torsions:
REMARK  status: ('A' for Active; 'I' for Inactive)
REMARK    1  A    between atoms: C16_21  and  O2_4 
REMARK    2  A    between atoms: C2_7  and  N1_5 
REMARK       I    between atoms: C5_10  and  N1_5 
REMARK    3  A    between atoms: C1_6  and  C3_8 
REMARK    4  A    between atoms: C1_6  and  C5_10 
REMARK    5  A    between atoms: C2_7  and  C4_9 
REMARK    6  A    between atoms: C6_11  and  C7_12 
ROOT
HETATM    1  C1  UNK     1      18.403   7.830  33.339  1.00  0.00     0.043 C 
HETATM    2  C6  UNK     1      19.290   6.890  32.950  1.00  0.00     0.029 C 
ENDROOT
BRANCH   1   3
HETATM    3  C3  UNK     1      16.950   7.667  33.137  1.00  0.00    -0.021 A 
HETATM    4  C8  UNK     1      16.130   7.496  34.239  1.00  0.00     0.012 A 
HETATM    5  C19 UNK     1      14.756   7.343  34.049  1.00  0.00     0.001 A 
HETATM    6  C22 UNK     1      14.225   7.363  32.760  1.00  0.00     0.000 A 
HETATM    7  C20 UNK     1      15.067   7.536  31.660  1.00  0.00     0.001 A 
HETATM    8  C9  UNK     1      16.439   7.689  31.851  1.00  0.00     0.012 A 
ENDBRANCH   1   3
BRANCH   1   9
HETATM    9  C5  UNK     1      18.985   9.068  33.973  1.00  0.00     0.252 C 
HETATM   10  O1  UNK     1      20.002   9.023  34.663  1.00  0.00    -0.268 OA
HETATM   11  N1  UNK     1      18.273  10.228  33.714  1.00  0.00    -0.353 N 
HETATM   12  H3  UNK     1      17.443  10.202  33.133  1.00  0.00     0.163 HD
BRANCH  11  13
HETATM   13  C2  UNK     1      18.673  11.512  34.244  1.00  0.00     0.163 C 
BRANCH  13  14
HETATM   14  C4  UNK     1      17.530  12.485  34.278  1.00  0.00    -0.019 A 
HETATM   15  C10 UNK     1      17.586  13.693  33.588  1.00  0.00     0.043 A 
HETATM   16 Cl1  UNK     1      18.969  14.138  32.657  1.00  0.00    -0.084 Cl
HETATM   17  C17 UNK     1      16.504  14.572  33.643  1.00  0.00     0.048 A 
HETATM   18  C21 UNK     1      15.372  14.240  34.387  1.00  0.00     0.035 A 
HETATM   19  C18 UNK     1      15.322  13.027  35.076  1.00  0.00     0.024 A 
HETATM   20 Cl2  UNK     1      14.037  15.323  34.456  1.00  0.00    -0.084 Cl
HETATM   21  C11 UNK     1      16.403  12.149  35.022  1.00  0.00     0.012 A 
ENDBRANCH  13  14
ENDBRANCH  11  13
ENDBRANCH   1   9
BRANCH   2  22
HETATM   22  C7  UNK     1      18.962   5.621  32.283  1.00  0.00    -0.035 A 
HETATM   23  C12 UNK     1      19.275   5.454  30.943  1.00  0.00     0.014 A 
HETATM   24  C14 UNK     1      18.963   4.250  30.311  1.00  0.00     0.037 A 
HETATM   25  C16 UNK     1      18.342   3.227  31.028  1.00  0.00     0.068 A 
HETATM   26  C15 UNK     1      18.033   3.407  32.376  1.00  0.00     0.037 A 
HETATM   27  C13 UNK     1      18.345   4.612  33.007  1.00  0.00     0.014 A 
BRANCH  25  28
HETATM   28  O2  UNK     1      18.038   2.053  30.411  1.00  0.00    -0.356 OA
HETATM   29  C23 UNK     1      17.951   2.071  28.986  1.00  0.00     0.210 C 
ENDBRANCH  25  28
ENDBRANCH   2  22
TORSDOF 6
ENDMDL
MODEL 2
REMARK VINA RESULT:      -8.2      5.085      9.725
REMARK  6 active torsions:
REMARK  status: ('A' for Active; 'I' for Inactive)
REMARK    1  A    between atoms: C16_21  and  O2_4 
REMARK    2  A    between atoms: C2_7  and  N1_5 
REMARK       I    between atoms: C5_10  and  N1_5 
REMARK    3  A    between atoms: C1_6  and  C3_8 
REMARK    4  A    between atoms: C1_6  and  C5_10 
REMARK    5  A    between atoms: C2_7  and  C4_9 
REMARK    6  A    between atoms: C6_11  and  C7_12 
ROOT
HETATM    1  C1  UNK     1      18.750   5.215  33.728  1.00  0.00     0.043 C 
HETATM    2  C6  UNK     1      18.446   6.184  34.618  1.00  0.00     0.029 C 
ENDROOT
BRANCH   1   3
HETATM    3  C3  UNK     1      19.156   5.522  32.343  1.00  0.00    -0.021 A 
HETATM    4  C8  UNK     1      20.504   5.586  32.032  1.00  0.00     0.012 A 
HETATM    5  C19 UNK     1      20.888   5.875  30.722  1.00  0.00     0.001 A 
HETATM    6  C22 UNK     1      19.919   6.097  29.745  1.00  0.00     0.000 A 
HETATM    7  C20 UNK     1      18.565   6.030  30.076  1.00  0.00     0.001 A 
HETATM    8  C9  UNK     1      18.182   5.740  31.385  1.00  0.00     0.012 A 
ENDBRANCH   1   3
BRANCH   1   9
HETATM    9  C5  UNK     1      18.629   3.797  34.226  1.00  0.00     0.252 C 
HETATM   10  O1  UNK     1      19.007   3.474  35.352  1.00  0.00    -0.268 OA
HETATM   11  N1  UNK     1      18.073   2.918  33.312  1.00  0.00    -0.353 N 
HETATM   12  H3  UNK     1      17.776   3.246  32.399  1.00  0.00     0.163 HD
BRANCH  11  13
HETATM   13  C2  UNK     1      17.884   1.516  33.606  1.00  0.00     0.163 C 
BRANCH  13  14
HETATM   14  C4  UNK     1      18.600   0.634  32.623  1.00  0.00    -0.019 A 
HETATM   15  C10 UNK     1      18.901  -0.691  32.923  1.00  0.00     0.043 A 
HETATM   16 Cl1  UNK     1      18.469  -1.394  34.439  1.00  0.00    -0.084 Cl
HETATM   17  C17 UNK     1      19.567  -1.479  31.984  1.00  0.00     0.048 A 
HETATM   18  C21 UNK     1      19.928  -0.939  30.751  1.00  0.00     0.035 A 
HETATM   19  C18 UNK     1      19.624   0.391  30.456  1.00  0.00     0.024 A 
HETATM   20 Cl2  UNK     1      20.750  -1.910  29.591  1.00  0.00    -0.084 Cl
HETATM   21  C11 UNK     1      18.958   1.179  31.394  1.00  0.00     0.012 A 
ENDBRANCH  13  14
ENDBRANCH  11  13
ENDBRANCH   1   9
BRANCH   2  22
HETATM   22  C7  UNK     1      18.460   7.630  34.351  1.00  0.00    -0.035 A 
HETATM   23  C12 UNK     1      19.643   8.339  34.495  1.00  0.00     0.014 A 
HETATM   24  C14 UNK     1      19.656   9.711  34.242  1.00  0.00     0.037 A 
HETATM   25  C16 UNK     1      18.485  10.357  33.847  1.00  0.00     0.068 A 
HETATM   26  C15 UNK     1      17.301   9.633  33.705  1.00  0.00     0.037 A 
HETATM   27  C13 UNK     1      17.289   8.261  33.959  1.00  0.00     0.014 A 
BRANCH  25  28
HETATM   28  O2  UNK     1      18.498  11.695  33.600  1.00  0.00    -0.356 OA
HETATM   29  C23 UNK     1      17.441  12.471  34.165  1.00  0.00     0.210 C 
ENDBRANCH  25  28
ENDBRANCH   2  22
TORSDOF 6
ENDMDL
MODEL 3
REMARK VINA RESULT:      -8.1     10.269     14.041
REMARK  6 active torsions:
REMARK  status: ('A' for Active; 'I' for Inactive)
REMARK    1  A    between atoms: C16_21  and  O2_4 
REMARK    2  A    between atoms: C2_7  and  N1_5 
REMARK       I    between atoms: C5_10  and  N1_5 
REMARK    3  A    between atoms: C1_6  and  C3_8 
REMARK    4  A    between atoms: C1_6  and  C5_10 
REMARK    5  A    between atoms: C2_7  and  C4_9 
REMARK    6  A    between atoms: C6_11  and  C7_12 
ROOT
HETATM    1  C1  UNK     1      19.728  -2.060  34.559  1.00  0.00     0.043 C 
HETATM    2  C6  UNK     1      20.314  -2.281  33.363  1.00  0.00     0.029 C 
ENDROOT
BRANCH   1   3
HETATM    3  C3  UNK     1      18.707  -1.013  34.750  1.00  0.00    -0.021 A 
HETATM    4  C8  UNK     1      17.396  -1.273  34.387  1.00  0.00     0.012 A 
HETATM    5  C19 UNK     1      16.430  -0.283  34.569  1.00  0.00     0.001 A 
HETATM    6  C22 UNK     1      16.789   0.952  35.108  1.00  0.00     0.000 A 
HETATM    7  C20 UNK     1      18.115   1.197  35.467  1.00  0.00     0.001 A 
HETATM    8  C9  UNK     1      19.081   0.207  35.286  1.00  0.00     0.012 A 
ENDBRANCH   1   3
BRANCH   1   9
HETATM    9  C5  UNK     1      20.195  -2.934  35.696  1.00  0.00     0.252 C 
HETATM   10  O1  UNK     1      21.240  -2.701  36.302  1.00  0.00    -0.268 OA
HETATM   11  N1  UNK     1      19.355  -3.999  35.977  1.00  0.00    -0.353 N 
HETATM   12  H3  UNK     1      18.503  -4.136  35.444  1.00  0.00     0.163 HD
BRANCH  11  13
HETATM   13  C2  UNK     1      19.641  -4.950  37.027  1.00  0.00     0.163 C 
BRANCH  13  14
HETATM   14  C4  UNK     1      20.210  -6.230  36.486  1.00  0.00    -0.019 A 
HETATM   15  C10 UNK     1      20.916  -7.111  37.301  1.00  0.00     0.043 A 
HETATM   16 Cl1  UNK     1      21.176  -6.781  38.975  1.00  0.00    -0.084 Cl
HETATM   17  C17 UNK     1      21.430  -8.291  36.762  1.00  0.00     0.048 A 
HETATM   18  C21 UNK     1      21.236  -8.584  35.413  1.00  0.00     0.035 A 
HETATM   19  C18 UNK     1      20.527  -7.697  34.601  1.00  0.00     0.024 A 
HETATM   20 Cl2  UNK     1      21.870 -10.039  34.747  1.00  0.00    -0.084 Cl
HETATM   21  C11 UNK     1      20.013  -6.518  35.139  1.00  0.00     0.012 A 
ENDBRANCH  13  14
ENDBRANCH  11  13
ENDBRANCH   1   9
BRANCH   2  22
HETATM   22  C7  UNK     1      20.046  -1.536  32.124  1.00  0.00    -0.035 A 
HETATM   23  C12 UNK     1      20.334  -2.121  30.901  1.00  0.00     0.014 A 
HETATM   24  C14 UNK     1      20.079  -1.414  29.725  1.00  0.00     0.037 A 
HETATM   25  C16 UNK     1      19.538  -0.129  29.788  1.00  0.00     0.068 A 
HETATM   26  C15 UNK     1      19.251   0.447  31.025  1.00  0.00     0.037 A 
HETATM   27  C13 UNK     1      19.507  -0.260  32.200  1.00  0.00     0.014 A 
BRANCH  25  28
HETATM   28  O2  UNK     1      19.289   0.560  28.642  1.00  0.00    -0.356 OA
HETATM   29  C23 UNK     1      18.178   1.456  28.651  1.00  0.00     0.210 C 
ENDBRANCH  25  28
ENDBRANCH   2  22
TORSDOF 6
ENDMDL
MODEL 4
REMARK VINA RESULT:      -7.9     16.715     19.753
REMARK  6 active torsions:
REMARK  status: ('A' for Active; 'I' for Inactive)
REMARK    1  A    between atoms: C16_21  and  O2_4 
REMARK    2  A    between atoms: C2_7  and  N1_5 
REMARK       I    between atoms: C5_10  and  N1_5 
REMARK    3  A    between atoms: C1_6  and  C3_8 
REMARK    4  A    between atoms: C1_6  and  C5_10 
REMARK    5  A    between atoms: C2_7  and  C4_9 
REMARK    6  A    between atoms: C6_11  and  C7_12 
ROOT
HETATM    1  C1  UNK     1      27.509  -7.738  38.237  1.00  0.00     0.043 C 
HETATM    2  C6  UNK     1      28.241  -6.872  38.970  1.00  0.00     0.029 C 
ENDROOT
BRANCH   1   3
HETATM    3  C3  UNK     1      27.857  -8.073  36.842  1.00  0.00    -0.021 A 
HETATM    4  C8  UNK     1      28.179  -9.381  36.522  1.00  0.00     0.012 A 
HETATM    5  C19 UNK     1      28.507  -9.699  35.204  1.00  0.00     0.001 A 
HETATM    6  C22 UNK     1      28.508  -8.703  34.227  1.00  0.00     0.000 A 
HETATM    7  C20 UNK     1      28.181  -7.390  34.568  1.00  0.00     0.001 A 
HETATM    8  C9  UNK     1      27.853  -7.074  35.886  1.00  0.00     0.012 A 
ENDBRANCH   1   3
BRANCH   1   9
HETATM    9  C5  UNK     1      26.301  -8.327  38.920  1.00  0.00     0.252 C 
HETATM   10  O1  UNK     1      26.393  -9.289  39.680  1.00  0.00    -0.268 OA
HETATM   11  N1  UNK     1      25.107  -7.696  38.608  1.00  0.00    -0.353 N 
HETATM   12  H3  UNK     1      25.095  -6.902  37.977  1.00  0.00     0.163 HD
BRANCH  11  13
HETATM   13  C2  UNK     1      23.842  -8.124  39.159  1.00  0.00     0.163 C 
BRANCH  13  14
HETATM   14  C4  UNK     1      22.678  -7.572  38.388  1.00  0.00    -0.019 A 
HETATM   15  C10 UNK     1      22.237  -8.172  37.212  1.00  0.00     0.043 A 
HETATM   16 Cl1  UNK     1      23.002  -9.583  36.576  1.00  0.00    -0.084 Cl
HETATM   17  C17 UNK     1      21.151  -7.630  36.523  1.00  0.00     0.048 A 
HETATM   18  C21 UNK     1      20.513  -6.491  37.012  1.00  0.00     0.035 A 
HETATM   19  C18 UNK     1      20.960  -5.894  38.191  1.00  0.00     0.024 A 
HETATM   20 Cl2  UNK     1      19.174  -5.821  36.163  1.00  0.00    -0.084 Cl
HETATM   21  C11 UNK     1      22.044  -6.435  38.881  1.00  0.00     0.012 A 
ENDBRANCH  13  14
ENDBRANCH  11  13
ENDBRANCH   1   9
BRANCH   2  22
HETATM   22  C7  UNK     1      29.437  -6.152  38.508  1.00  0.00    -0.035 A 
HETATM   23  C12 UNK     1      30.642  -6.831  38.400  1.00  0.00     0.014 A 
HETATM   24  C14 UNK     1      31.777  -6.147  37.962  1.00  0.00     0.037 A 
HETATM   25  C16 UNK     1      31.692  -4.794  37.635  1.00  0.00     0.068 A 
HETATM   26  C15 UNK     1      30.474  -4.123  37.747  1.00  0.00     0.037 A 
HETATM   27  C13 UNK     1      29.340  -4.807  38.186  1.00  0.00     0.014 A 
BRANCH  25  28
HETATM   28  O2  UNK     1      32.799  -4.128  37.207  1.00  0.00    -0.356 OA
HETATM   29  C23 UNK     1      32.905  -3.878  35.806  1.00  0.00     0.210 C 
ENDBRANCH  25  28
ENDBRANCH   2  22
TORSDOF 6
ENDMDL
MODEL 5
REMARK VINA RESULT:      -7.9     16.808     19.953
REMARK  6 active torsions:
REMARK  status: ('A' for Active; 'I' for Inactive)
REMARK    1  A    between atoms: C16_21  and  O2_4 
REMARK    2  A    between atoms: C2_7  and  N1_5 
REMARK       I    between atoms: C5_10  and  N1_5 
REMARK    3  A    between atoms: C1_6  and  C3_8 
REMARK    4  A    between atoms: C1_6  and  C5_10 
REMARK    5  A    between atoms: C2_7  and  C4_9 
REMARK    6  A    between atoms: C6_11  and  C7_12 
ROOT
HETATM    1  C1  UNK     1      27.206  -6.692  38.434  1.00  0.00     0.043 C 
HETATM    2  C6  UNK     1      28.346  -6.047  38.107  1.00  0.00     0.029 C 
ENDROOT
BRANCH   1   3
HETATM    3  C3  UNK     1      27.095  -8.163  38.385  1.00  0.00    -0.021 A 
HETATM    4  C8  UNK     1      27.413  -8.902  39.511  1.00  0.00     0.012 A 
HETATM    5  C19 UNK     1      27.308 -10.292  39.465  1.00  0.00     0.001 A 
HETATM    6  C22 UNK     1      26.889 -10.921  38.294  1.00  0.00     0.000 A 
HETATM    7  C20 UNK     1      26.573 -10.160  37.167  1.00  0.00     0.001 A 
HETATM    8  C9  UNK     1      26.678  -8.771  37.214  1.00  0.00     0.012 A 
ENDBRANCH   1   3
BRANCH   1   9
HETATM    9  C5  UNK     1      26.043  -5.819  38.832  1.00  0.00     0.252 C 
HETATM   10  O1  UNK     1      26.182  -4.616  39.048  1.00  0.00    -0.268 OA
HETATM   11  N1  UNK     1      24.835  -6.491  38.933  1.00  0.00    -0.353 N 
HETATM   12  H3  UNK     1      24.783  -7.485  38.737  1.00  0.00     0.163 HD
BRANCH  11  13
HETATM   13  C2  UNK     1      23.610  -5.824  39.311  1.00  0.00     0.163 C 
BRANCH  13  14
HETATM   14  C4  UNK     1      22.406  -6.694  39.090  1.00  0.00    -0.019 A 
HETATM   15  C10 UNK     1      21.311  -6.242  38.360  1.00  0.00     0.043 A 
HETATM   16 Cl1  UNK     1      21.275  -4.659  37.672  1.00  0.00    -0.084 Cl
HETATM   17  C17 UNK     1      20.209  -7.078  38.175  1.00  0.00     0.048 A 
HETATM   18  C21 UNK     1      20.210  -8.362  38.720  1.00  0.00     0.035 A 
HETATM   19  C18 UNK     1      21.311  -8.810  39.450  1.00  0.00     0.024 A 
HETATM   20 Cl2  UNK     1      18.852  -9.395  38.492  1.00  0.00    -0.084 Cl
HETATM   21  C11 UNK     1      22.412  -7.974  39.635  1.00  0.00     0.012 A 
ENDBRANCH  13  14
ENDBRANCH  11  13
ENDBRANCH   1   9
BRANCH   2  22
HETATM   22  C7  UNK     1      29.595  -6.682  37.659  1.00  0.00    -0.035 A 
HETATM   23  C12 UNK     1      30.561  -7.021  38.594  1.00  0.00     0.014 A 
HETATM   24  C14 UNK     1      31.745  -7.623  38.169  1.00  0.00     0.037 A 
HETATM   25  C16 UNK     1      31.948  -7.881  36.813  1.00  0.00     0.068 A 
HETATM   26  C15 UNK     1      30.967  -7.537  35.883  1.00  0.00     0.037 A 
HETATM   27  C13 UNK     1      29.784  -6.934  36.308  1.00  0.00     0.014 A 
BRANCH  25  28
HETATM   28  O2  UNK     1      33.103  -8.470  36.399  1.00  0.00    -0.356 OA
HETATM   29  C23 UNK     1      33.615  -8.073  35.127  1.00  0.00     0.210 C 
ENDBRANCH  25  28
ENDBRANCH   2  22
TORSDOF 6
ENDMDL
MODEL 6
REMARK VINA RESULT:      -7.9     12.643     16.942
REMARK  6 active torsions:
REMARK  status: ('A' for Active; 'I' for Inactive)
REMARK    1  A    between atoms: C16_21  and  O2_4 
REMARK    2  A    between atoms: C2_7  and  N1_5 
REMARK       I    between atoms: C5_10  and  N1_5 
REMARK    3  A    between atoms: C1_6  and  C3_8 
REMARK    4  A    between atoms: C1_6  and  C5_10 
REMARK    5  A    between atoms: C2_7  and  C4_9 
REMARK    6  A    between atoms: C6_11  and  C7_12 
ROOT
HETATM    1  C1  UNK     1      20.741  -4.872  37.263  1.00  0.00     0.043 C 
HETATM    2  C6  UNK     1      20.757  -3.526  37.172  1.00  0.00     0.029 C 
ENDROOT
BRANCH   1   3
HETATM    3  C3  UNK     1      19.710  -5.691  36.595  1.00  0.00    -0.021 A 
HETATM    4  C8  UNK     1      20.031  -6.358  35.425  1.00  0.00     0.012 A 
HETATM    5  C19 UNK     1      19.057  -7.133  34.794  1.00  0.00     0.001 A 
HETATM    6  C22 UNK     1      17.778  -7.227  35.342  1.00  0.00     0.000 A 
HETATM    7  C20 UNK     1      17.472  -6.547  36.521  1.00  0.00     0.001 A 
HETATM    8  C9  UNK     1      18.446  -5.773  37.152  1.00  0.00     0.012 A 
ENDBRANCH   1   3
BRANCH   1   9
HETATM    9  C5  UNK     1      21.826  -5.492  38.106  1.00  0.00     0.252 C 
HETATM   10  O1  UNK     1      22.890  -4.912  38.319  1.00  0.00    -0.268 OA
HETATM   11  N1  UNK     1      21.517  -6.750  38.598  1.00  0.00    -0.353 N 
HETATM   12  H3  UNK     1      20.619  -7.176  38.392  1.00  0.00     0.163 HD
BRANCH  11  13
HETATM   13  C2  UNK     1      22.435  -7.505  39.419  1.00  0.00     0.163 C 
BRANCH  13  14
HETATM   14  C4  UNK     1      23.546  -8.108  38.609  1.00  0.00    -0.019 A 
HETATM   15  C10 UNK     1      23.283  -8.903  37.497  1.00  0.00     0.043 A 
HETATM   16 Cl1  UNK     1      21.668  -9.238  36.988  1.00  0.00    -0.084 Cl
HETATM   17  C17 UNK     1      24.342  -9.447  36.769  1.00  0.00     0.048 A 
HETATM   18  C21 UNK     1      25.658  -9.193  37.157  1.00  0.00     0.035 A 
HETATM   19  C18 UNK     1      25.915  -8.396  38.272  1.00  0.00     0.024 A 
HETATM   20 Cl2  UNK     1      26.964  -9.864  36.259  1.00  0.00    -0.084 Cl
HETATM   21  C11 UNK     1      24.857  -7.853  39.000  1.00  0.00     0.012 A 
ENDBRANCH  13  14
ENDBRANCH  11  13
ENDBRANCH   1   9
BRANCH   2  22
HETATM   22  C7  UNK     1      19.786  -2.702  36.436  1.00  0.00    -0.035 A 
HETATM   23  C12 UNK     1      18.642  -2.258  37.081  1.00  0.00     0.014 A 
HETATM   24  C14 UNK     1      17.720  -1.477  36.382  1.00  0.00     0.037 A 
HETATM   25  C16 UNK     1      17.955  -1.149  35.047  1.00  0.00     0.068 A 
HETATM   26  C15 UNK     1      19.111  -1.602  34.410  1.00  0.00     0.037 A 
HETATM   27  C13 UNK     1      20.031  -2.383  35.109  1.00  0.00     0.014 A 
BRANCH  25  28
HETATM   28  O2  UNK     1      17.057  -0.387  34.366  1.00  0.00    -0.356 OA
HETATM   29  C23 UNK     1      15.987   0.185  35.119  1.00  0.00     0.210 C 
ENDBRANCH  25  28
ENDBRANCH   2  22
TORSDOF 6
ENDMDL
MODEL 7
REMARK VINA RESULT:      -7.8      2.293      4.290
REMARK  6 active torsions:
REMARK  status: ('A' for Active; 'I' for Inactive)
REMARK    1  A    between atoms: C16_21  and  O2_4 
REMARK    2  A    between atoms: C2_7  and  N1_5 
REMARK       I    between atoms: C5_10  and  N1_5 
REMARK    3  A    between atoms: C1_6  and  C3_8 
REMARK    4  A    between atoms: C1_6  and  C5_10 
REMARK    5  A    between atoms: C2_7  and  C4_9 
REMARK    6  A    between atoms: C6_11  and  C7_12 
ROOT
HETATM    1  C1  UNK     1      17.905   5.804  31.561  1.00  0.00     0.043 C 
HETATM    2  C6  UNK     1      17.325   4.625  31.251  1.00  0.00     0.029 C 
ENDROOT
BRANCH   1   3
HETATM    3  C3  UNK     1      19.362   5.934  31.756  1.00  0.00    -0.021 A 
HETATM    4  C8  UNK     1      20.206   5.764  30.672  1.00  0.00     0.012 A 
HETATM    5  C19 UNK     1      21.584   5.888  30.855  1.00  0.00     0.001 A 
HETATM    6  C22 UNK     1      22.095   6.178  32.120  1.00  0.00     0.000 A 
HETATM    7  C20 UNK     1      21.229   6.345  33.201  1.00  0.00     0.001 A 
HETATM    8  C9  UNK     1      19.852   6.222  33.017  1.00  0.00     0.012 A 
ENDBRANCH   1   3
BRANCH   1   9
HETATM    9  C5  UNK     1      16.973   6.979  31.718  1.00  0.00     0.252 C 
HETATM   10  O1  UNK     1      16.743   7.751  30.788  1.00  0.00    -0.268 OA
HETATM   11  N1  UNK     1      16.422   7.103  32.984  1.00  0.00    -0.353 N 
HETATM   12  H3  UNK     1      16.646   6.431  33.710  1.00  0.00     0.163 HD
BRANCH  11  13
HETATM   13  C2  UNK     1      15.512   8.172  33.327  1.00  0.00     0.163 C 
BRANCH  13  14
HETATM   14  C4  UNK     1      16.240   9.442  33.664  1.00  0.00    -0.019 A 
HETATM   15  C10 UNK     1      15.558  10.641  33.847  1.00  0.00     0.043 A 
HETATM   16 Cl1  UNK     1      13.840  10.736  33.697  1.00  0.00    -0.084 Cl
HETATM   17  C17 UNK     1      16.267  11.801  34.159  1.00  0.00     0.048 A 
HETATM   18  C21 UNK     1      17.656  11.756  34.287  1.00  0.00     0.035 A 
HETATM   19  C18 UNK     1      18.334  10.550  34.102  1.00  0.00     0.024 A 
HETATM   20 Cl2  UNK     1      18.533  13.186  34.672  1.00  0.00    -0.084 Cl
HETATM   21  C11 UNK     1      17.625   9.391  33.790  1.00  0.00     0.012 A 
ENDBRANCH  13  14
ENDBRANCH  11  13
ENDBRANCH   1   9
BRANCH   2  22
HETATM   22  C7  UNK     1      18.024   3.343  31.080  1.00  0.00    -0.035 A 
HETATM   23  C12 UNK     1      18.410   2.941  29.810  1.00  0.00     0.014 A 
HETATM   24  C14 UNK     1      19.073   1.724  29.649  1.00  0.00     0.037 A 
HETATM   25  C16 UNK     1      19.342   0.924  30.760  1.00  0.00     0.068 A 
HETATM   26  C15 UNK     1      18.950   1.341  32.031  1.00  0.00     0.037 A 
HETATM   27  C13 UNK     1      18.286   2.557  32.193  1.00  0.00     0.014 A 
BRANCH  25  28
HETATM   28  O2  UNK     1      19.990  -0.262  30.601  1.00  0.00    -0.356 OA
HETATM   29  C23 UNK     1      20.543  -0.534  29.314  1.00  0.00     0.210 C 
ENDBRANCH  25  28
ENDBRANCH   2  22
TORSDOF 6
ENDMDL
MODEL 8
REMARK VINA RESULT:      -7.8     19.038     21.184
REMARK  6 active torsions:
REMARK  status: ('A' for Active; 'I' for Inactive)
REMARK    1  A    between atoms: C16_21  and  O2_4 
REMARK    2  A    between atoms: C2_7  and  N1_5 
REMARK       I    between atoms: C5_10  and  N1_5 
REMARK    3  A    between atoms: C1_6  and  C3_8 
REMARK    4  A    between atoms: C1_6  and  C5_10 
REMARK    5  A    between atoms: C2_7  and  C4_9 
REMARK    6  A    between atoms: C6_11  and  C7_12 
ROOT
HETATM    1  C1  UNK     1      29.856  -6.451  35.305  1.00  0.00     0.043 C 
HETATM    2  C6  UNK     1      28.853  -7.321  35.548  1.00  0.00     0.029 C 
ENDROOT
BRANCH   1   3
HETATM    3  C3  UNK     1      30.768  -5.988  36.368  1.00  0.00    -0.021 A 
HETATM    4  C8  UNK     1      31.980  -6.631  36.546  1.00  0.00     0.012 A 
HETATM    5  C19 UNK     1      32.843  -6.193  37.551  1.00  0.00     0.001 A 
HETATM    6  C22 UNK     1      32.479  -5.120  38.363  1.00  0.00     0.000 A 
HETATM    7  C20 UNK     1      31.253  -4.483  38.170  1.00  0.00     0.001 A 
HETATM    8  C9  UNK     1      30.391  -4.921  37.165  1.00  0.00     0.012 A 
ENDBRANCH   1   3
BRANCH   1   9
HETATM    9  C5  UNK     1      29.976  -5.961  33.884  1.00  0.00     0.252 C 
HETATM   10  O1  UNK     1      31.032  -5.510  33.443  1.00  0.00    -0.268 OA
HETATM   11  N1  UNK     1      28.807  -6.060  33.146  1.00  0.00    -0.353 N 
HETATM   12  H3  UNK     1      27.967  -6.446  33.564  1.00  0.00     0.163 HD
BRANCH  11  13
HETATM   13  C2  UNK     1      28.726  -5.632  31.768  1.00  0.00     0.163 C 
BRANCH  13  14
HETATM   14  C4  UNK     1      28.677  -6.797  30.821  1.00  0.00    -0.019 A 
HETATM   15  C10 UNK     1      29.696  -7.025  29.901  1.00  0.00     0.043 A 
HETATM   16 Cl1  UNK     1      31.070  -5.985  29.797  1.00  0.00    -0.084 Cl
HETATM   17  C17 UNK     1      29.616  -8.118  29.037  1.00  0.00     0.048 A 
HETATM   18  C21 UNK     1      28.519  -8.976  29.098  1.00  0.00     0.035 A 
HETATM   19  C18 UNK     1      27.501  -8.742  30.023  1.00  0.00     0.024 A 
HETATM   20 Cl2  UNK     1      28.419 -10.324  28.033  1.00  0.00    -0.084 Cl
HETATM   21  C11 UNK     1      27.580  -7.650  30.886  1.00  0.00     0.012 A 
ENDBRANCH  13  14
ENDBRANCH  11  13
ENDBRANCH   1   9
BRANCH   2  22
HETATM   22  C7  UNK     1      28.522  -7.907  36.856  1.00  0.00    -0.035 A 
HETATM   23  C12 UNK     1      29.231  -9.010  37.308  1.00  0.00     0.014 A 
HETATM   24  C14 UNK     1      28.916  -9.565  38.549  1.00  0.00     0.037 A 
HETATM   25  C16 UNK     1      27.898  -9.009  39.323  1.00  0.00     0.068 A 
HETATM   26  C15 UNK     1      27.194  -7.899  38.858  1.00  0.00     0.037 A 
HETATM   27  C13 UNK     1      27.508  -7.344  37.616  1.00  0.00     0.014 A 
BRANCH  25  28
HETATM   28  O2  UNK     1      27.592  -9.550  40.534  1.00  0.00    -0.356 OA
HETATM   29  C23 UNK     1      28.439 -10.596  41.010  1.00  0.00     0.210 C 
ENDBRANCH  25  28
ENDBRANCH   2  22
TORSDOF 6
ENDMDL
MODEL 9
REMARK VINA RESULT:      -7.6     19.059     21.278
REMARK  6 active torsions:
REMARK  status: ('A' for Active; 'I' for Inactive)
REMARK    1  A    between atoms: C16_21  and  O2_4 
REMARK    2  A    between atoms: C2_7  and  N1_5 
REMARK       I    between atoms: C5_10  and  N1_5 
REMARK    3  A    between atoms: C1_6  and  C3_8 
REMARK    4  A    between atoms: C1_6  and  C5_10 
REMARK    5  A    between atoms: C2_7  and  C4_9 
REMARK    6  A    between atoms: C6_11  and  C7_12 
ROOT
HETATM    1  C1  UNK     1      30.149  -6.295  34.962  1.00  0.00     0.043 C 
HETATM    2  C6  UNK     1      28.984  -6.926  35.220  1.00  0.00     0.029 C 
ENDROOT
BRANCH   1   3
HETATM    3  C3  UNK     1      31.170  -6.077  36.005  1.00  0.00    -0.021 A 
HETATM    4  C8  UNK     1      32.089  -7.078  36.271  1.00  0.00     0.012 A 
HETATM    5  C19 UNK     1      33.055  -6.872  37.256  1.00  0.00     0.001 A 
HETATM    6  C22 UNK     1      33.086  -5.670  37.962  1.00  0.00     0.000 A 
HETATM    7  C20 UNK     1      32.151  -4.672  37.681  1.00  0.00     0.001 A 
HETATM    8  C9  UNK     1      31.186  -4.878  36.696  1.00  0.00     0.012 A 
ENDBRANCH   1   3
BRANCH   1   9
HETATM    9  C5  UNK     1      30.339  -5.806  33.549  1.00  0.00     0.252 C 
HETATM   10  O1  UNK     1      31.429  -5.405  33.144  1.00  0.00    -0.268 OA
HETATM   11  N1  UNK     1      29.190  -5.845  32.774  1.00  0.00    -0.353 N 
HETATM   12  H3  UNK     1      28.320  -6.191  33.163  1.00  0.00     0.163 HD
BRANCH  11  13
HETATM   13  C2  UNK     1      29.174  -5.408  31.397  1.00  0.00     0.163 C 
BRANCH  13  14
HETATM   14  C4  UNK     1      29.412  -6.545  30.445  1.00  0.00    -0.019 A 
HETATM   15  C10 UNK     1      28.395  -7.433  30.108  1.00  0.00     0.043 A 
HETATM   16 Cl1  UNK     1      26.806  -7.278  30.764  1.00  0.00    -0.084 Cl
HETATM   17  C17 UNK     1      28.654  -8.477  29.219  1.00  0.00     0.048 A 
HETATM   18  C21 UNK     1      29.928  -8.628  28.673  1.00  0.00     0.035 A 
HETATM   19  C18 UNK     1      30.944  -7.734  29.014  1.00  0.00     0.024 A 
HETATM   20 Cl2  UNK     1      30.249  -9.915  27.577  1.00  0.00    -0.084 Cl
HETATM   21  C11 UNK     1      30.685  -6.690  29.902  1.00  0.00     0.012 A 
ENDBRANCH  13  14
ENDBRANCH  11  13
ENDBRANCH   1   9
BRANCH   2  22
HETATM   22  C7  UNK     1      28.565  -7.458  36.525  1.00  0.00    -0.035 A 
HETATM   23  C12 UNK     1      27.955  -6.614  37.441  1.00  0.00     0.014 A 
HETATM   24  C14 UNK     1      27.558  -7.120  38.680  1.00  0.00     0.037 A 
HETATM   25  C16 UNK     1      27.775  -8.463  38.986  1.00  0.00     0.068 A 
HETATM   26  C15 UNK     1      28.389  -9.301  38.056  1.00  0.00     0.037 A 
HETATM   27  C13 UNK     1      28.786  -8.795  36.818  1.00  0.00     0.014 A 
BRANCH  25  28
HETATM   28  O2  UNK     1      27.387  -8.956  40.194  1.00  0.00    -0.356 OA
HETATM   29  C23 UNK     1      27.888 -10.240  40.564  1.00  0.00     0.210 C 
ENDBRANCH  25  28
ENDBRANCH   2  22
TORSDOF 6
ENDMDL
MODEL 10
REMARK VINA RESULT:      -7.6      4.323      7.458
REMARK  6 active torsions:
REMARK  status: ('A' for Active; 'I' for Inactive)
REMARK    1  A    between atoms: C16_21  and  O2_4 
REMARK    2  A    between atoms: C2_7  and  N1_5 
REMARK       I    between atoms: C5_10  and  N1_5 
REMARK    3  A    between atoms: C1_6  and  C3_8 
REMARK    4  A    between atoms: C1_6  and  C5_10 
REMARK    5  A    between atoms: C2_7  and  C4_9 
REMARK    6  A    between atoms: C6_11  and  C7_12 
ROOT
HETATM    1  C1  UNK     1      18.370   1.698  32.154  1.00  0.00     0.043 C 
HETATM    2  C6  UNK     1      17.864   1.839  33.397  1.00  0.00     0.029 C 
ENDROOT
BRANCH   1   3
HETATM    3  C3  UNK     1      19.097   0.483  31.736  1.00  0.00    -0.021 A 
HETATM    4  C8  UNK     1      18.791  -0.727  32.335  1.00  0.00     0.012 A 
HETATM    5  C19 UNK     1      19.477  -1.876  31.940  1.00  0.00     0.001 A 
HETATM    6  C22 UNK     1      20.459  -1.796  30.953  1.00  0.00     0.000 A 
HETATM    7  C20 UNK     1      20.755  -0.568  30.360  1.00  0.00     0.001 A 
HETATM    8  C9  UNK     1      20.068   0.580  30.755  1.00  0.00     0.012 A 
ENDBRANCH   1   3
BRANCH   1   9
HETATM    9  C5  UNK     1      18.169   2.865  31.221  1.00  0.00     0.252 C 
HETATM   10  O1  UNK     1      17.538   2.752  30.171  1.00  0.00    -0.268 OA
HETATM   11  N1  UNK     1      18.756   4.045  31.650  1.00  0.00    -0.353 N 
HETATM   12  H3  UNK     1      19.260   4.077  32.529  1.00  0.00     0.163 HD
BRANCH  11  13
HETATM   13  C2  UNK     1      18.678   5.268  30.885  1.00  0.00     0.163 C 
BRANCH  13  14
HETATM   14  C4  UNK     1      18.298   6.442  31.741  1.00  0.00    -0.019 A 
HETATM   15  C10 UNK     1      19.193   6.995  32.651  1.00  0.00     0.043 A 
HETATM   16 Cl1  UNK     1      20.787   6.363  32.848  1.00  0.00    -0.084 Cl
HETATM   17  C17 UNK     1      18.804   8.086  33.429  1.00  0.00     0.048 A 
HETATM   18  C21 UNK     1      17.522   8.618  33.293  1.00  0.00     0.035 A 
HETATM   19  C18 UNK     1      16.629   8.059  32.378  1.00  0.00     0.024 A 
HETATM   20 Cl2  UNK     1      17.041   9.963  34.252  1.00  0.00    -0.084 Cl
HETATM   21  C11 UNK     1      17.017   6.969  31.600  1.00  0.00     0.012 A 
ENDBRANCH  13  14
ENDBRANCH  11  13
ENDBRANCH   1   9
BRANCH   2  22
HETATM   22  C7  UNK     1      17.966   0.852  34.483  1.00  0.00    -0.035 A 
HETATM   23  C12 UNK     1      19.081   0.858  35.307  1.00  0.00     0.014 A 
HETATM   24  C14 UNK     1      19.177  -0.078  36.337  1.00  0.00     0.037 A 
HETATM   25  C16 UNK     1      18.155  -1.008  36.531  1.00  0.00     0.068 A 
HETATM   26  C15 UNK     1      17.038  -1.002  35.696  1.00  0.00     0.037 A 
HETATM   27  C13 UNK     1      16.943  -0.066  34.666  1.00  0.00     0.014 A 
BRANCH  25  28
HETATM   28  O2  UNK     1      18.248  -1.920  37.536  1.00  0.00    -0.356 OA
HETATM   29  C23 UNK     1      19.406  -2.754  37.552  1.00  0.00     0.210 C 
ENDBRANCH  25  28
ENDBRANCH   2  22
TORSDOF 6
ENDMDL
