MODEL 1
REMARK VINA RESULT:     -10.3      0.000      0.000
REMARK  4 active torsions:
REMARK  status: ('A' for Active; 'I' for Inactive)
REMARK    1  A    between atoms: C1_11  and  N1_9 
REMARK       I    between atoms: C9_19  and  N1_9 
REMARK    2  A    between atoms: C10_20  and  N2_10 
REMARK    3  A    between atoms: C12_22  and  C2_12 
REMARK    4  A    between atoms: C4_14  and  C9_19 
ROOT
HETATM    1  O2  UNK     1      18.294   4.565  30.119  1.00  0.00    -0.267 OA
HETATM    2  N1  UNK     1      17.932   4.621  32.446  1.00  0.00    -0.322 N 
HETATM    3  C9  UNK     1      18.264   4.040  31.230  1.00  0.00     0.262 C 
HETATM    4  H1  UNK     1      17.982   4.043  33.279  1.00  0.00     0.169 HD
ENDROOT
BRANCH   2   5
HETATM    5  C1  UNK     1      17.555   5.952  32.673  1.00  0.00     0.050 A 
HETATM    6  C8  UNK     1      16.213   6.304  32.548  1.00  0.00     0.033 A 
HETATM    7  C11 UNK     1      15.819   7.624  32.770  1.00  0.00     0.038 A 
HETATM    8  C10 UNK     1      16.766   8.587  33.116  1.00  0.00     0.103 A 
HETATM    9  C5  UNK     1      18.109   8.230  33.240  1.00  0.00     0.054 A 
HETATM   10  C2  UNK     1      18.504   6.911  33.019  1.00  0.00     0.076 A 
BRANCH   8  11
HETATM   11  N2  UNK     1      16.364   9.930  33.342  1.00  0.00    -0.116 N 
HETATM   12  O4  UNK     1      17.221  10.766  33.720  1.00  0.00    -0.532 OA
HETATM   13  O5  UNK     1      15.164  10.244  33.158  1.00  0.00    -0.532 OA
ENDBRANCH   8  11
BRANCH  10  14
HETATM   14  C12 UNK     1      19.949   6.557  33.158  1.00  0.00     0.419 C 
HETATM   15  F1  UNK     1      20.183   5.576  34.077  1.00  0.00    -0.166 F 
HETATM   16  F2  UNK     1      20.513   6.107  32.000  1.00  0.00    -0.166 F 
HETATM   17  F3  UNK     1      20.710   7.619  33.549  1.00  0.00    -0.166 F 
ENDBRANCH  10  14
ENDBRANCH   2   5
BRANCH   3  18
HETATM   18  C4  UNK     1      18.609   2.621  31.374  1.00  0.00     0.108 A 
HETATM   19  C13 UNK     1      18.366   1.876  32.630  1.00  0.00     0.304 A 
HETATM   20  O1  UNK     1      18.735   0.535  32.643  1.00  0.00    -0.274 OA
HETATM   21  O3  UNK     1      17.862   2.410  33.613  1.00  0.00    -0.259 OA
HETATM   22  C7  UNK     1      19.313  -0.088  31.519  1.00  0.00     0.089 A 
HETATM   23  C15 UNK     1      19.650  -1.436  31.628  1.00  0.00     0.038 A 
HETATM   24  C3  UNK     1      19.534   0.630  30.349  1.00  0.00    -0.001 A 
HETATM   25  C17 UNK     1      20.223  -2.079  30.533  1.00  0.00     0.003 A 
HETATM   26  C16 UNK     1      20.453  -1.374  29.350  1.00  0.00     0.001 A 
HETATM   27  C14 UNK     1      20.109  -0.023  29.256  1.00  0.00     0.014 A 
HETATM   28  C6  UNK     1      19.158   2.035  30.304  1.00  0.00     0.037 A 
ENDBRANCH   3  18
TORSDOF 4
ENDMDL
MODEL 2
REMARK VINA RESULT:     -10.2      8.962     13.329
REMARK  4 active torsions:
REMARK  status: ('A' for Active; 'I' for Inactive)
REMARK    1  A    between atoms: C1_11  and  N1_9 
REMARK       I    between atoms: C9_19  and  N1_9 
REMARK    2  A    between atoms: C10_20  and  N2_10 
REMARK    3  A    between atoms: C12_22  and  C2_12 
REMARK    4  A    between atoms: C4_14  and  C9_19 
ROOT
HETATM    1  O2  UNK     1      21.389  -4.641  37.003  1.00  0.00    -0.267 OA
HETATM    2  N1  UNK     1      19.123  -5.246  37.223  1.00  0.00    -0.322 N 
HETATM    3  C9  UNK     1      20.185  -4.400  36.936  1.00  0.00     0.262 C 
HETATM    4  H1  UNK     1      18.181  -4.888  37.090  1.00  0.00     0.169 HD
ENDROOT
BRANCH   2   5
HETATM    5  C1  UNK     1      19.193  -6.577  37.656  1.00  0.00     0.050 A 
HETATM    6  C8  UNK     1      19.898  -6.872  38.821  1.00  0.00     0.033 A 
HETATM    7  C11 UNK     1      19.980  -8.190  39.268  1.00  0.00     0.038 A 
HETATM    8  C10 UNK     1      19.356  -9.211  38.549  1.00  0.00     0.103 A 
HETATM    9  C5  UNK     1      18.650  -8.911  37.384  1.00  0.00     0.054 A 
HETATM   10  C2  UNK     1      18.569  -7.593  36.937  1.00  0.00     0.076 A 
BRANCH   8  11
HETATM   11  N2  UNK     1      19.439 -10.553  39.005  1.00  0.00    -0.116 N 
HETATM   12  O4  UNK     1      19.448 -11.482  38.162  1.00  0.00    -0.532 OA
HETATM   13  O5  UNK     1      19.501 -10.773  40.239  1.00  0.00    -0.532 OA
ENDBRANCH   8  11
BRANCH  10  14
HETATM   14  C12 UNK     1      17.806  -7.302  35.685  1.00  0.00     0.419 C 
HETATM   15  F1  UNK     1      16.896  -6.294  35.823  1.00  0.00    -0.166 F 
HETATM   16  F2  UNK     1      18.600  -6.927  34.640  1.00  0.00    -0.166 F 
HETATM   17  F3  UNK     1      17.100  -8.381  35.242  1.00  0.00    -0.166 F 
ENDBRANCH  10  14
ENDBRANCH   2   5
BRANCH   3  18
HETATM   18  C4  UNK     1      19.732  -3.072  36.507  1.00  0.00     0.108 A 
HETATM   19  C13 UNK     1      20.035  -2.536  35.160  1.00  0.00     0.304 A 
HETATM   20  O1  UNK     1      19.550  -1.264  34.870  1.00  0.00    -0.274 OA
HETATM   21  O3  UNK     1      20.680  -3.177  34.337  1.00  0.00    -0.259 OA
HETATM   22  C7  UNK     1      18.807  -0.521  35.808  1.00  0.00     0.089 A 
HETATM   23  C15 UNK     1      18.364   0.744  35.426  1.00  0.00     0.038 A 
HETATM   24  C3  UNK     1      18.535  -1.043  37.068  1.00  0.00    -0.001 A 
HETATM   25  C17 UNK     1      17.627   1.504  36.332  1.00  0.00     0.003 A 
HETATM   26  C16 UNK     1      17.343   0.996  37.602  1.00  0.00     0.001 A 
HETATM   27  C14 UNK     1      17.795  -0.274  37.970  1.00  0.00     0.014 A 
HETATM   28  C6  UNK     1      19.028  -2.370  37.401  1.00  0.00     0.037 A 
ENDBRANCH   3  18
TORSDOF 4
ENDMDL
MODEL 3
REMARK VINA RESULT:     -10.2      0.953      1.974
REMARK  4 active torsions:
REMARK  status: ('A' for Active; 'I' for Inactive)
REMARK    1  A    between atoms: C1_11  and  N1_9 
REMARK       I    between atoms: C9_19  and  N1_9 
REMARK    2  A    between atoms: C10_20  and  N2_10 
REMARK    3  A    between atoms: C12_22  and  C2_12 
REMARK    4  A    between atoms: C4_14  and  C9_19 
ROOT
HETATM    1  O2  UNK     1      17.806   3.308  33.296  1.00  0.00    -0.267 OA
HETATM    2  N1  UNK     1      18.232   4.871  31.586  1.00  0.00    -0.322 N 
HETATM    3  C9  UNK     1      18.175   3.610  32.163  1.00  0.00     0.262 C 
HETATM    4  H1  UNK     1      18.543   4.940  30.621  1.00  0.00     0.169 HD
ENDROOT
BRANCH   2   5
HETATM    5  C1  UNK     1      17.875   6.090  32.179  1.00  0.00     0.050 A 
HETATM    6  C8  UNK     1      16.548   6.507  32.118  1.00  0.00     0.033 A 
HETATM    7  C11 UNK     1      16.173   7.717  32.702  1.00  0.00     0.038 A 
HETATM    8  C10 UNK     1      17.127   8.506  33.346  1.00  0.00     0.103 A 
HETATM    9  C5  UNK     1      18.455   8.084  33.406  1.00  0.00     0.054 A 
HETATM   10  C2  UNK     1      18.830   6.875  32.822  1.00  0.00     0.076 A 
BRANCH   8  11
HETATM   11  N2  UNK     1      16.745   9.738  33.942  1.00  0.00    -0.116 N 
HETATM   12  O4  UNK     1      17.375  10.780  33.640  1.00  0.00    -0.532 OA
HETATM   13  O5  UNK     1      15.787   9.749  34.752  1.00  0.00    -0.532 OA
ENDBRANCH   8  11
BRANCH  10  14
HETATM   14  C12 UNK     1      20.260   6.448  32.900  1.00  0.00     0.419 C 
HETATM   15  F1  UNK     1      20.751   5.970  31.720  1.00  0.00    -0.166 F 
HETATM   16  F2  UNK     1      21.109   7.455  33.260  1.00  0.00    -0.166 F 
HETATM   17  F3  UNK     1      20.459   5.455  33.813  1.00  0.00    -0.166 F 
ENDBRANCH  10  14
ENDBRANCH   2   5
BRANCH   3  18
HETATM   18  C4  UNK     1      18.628   2.562  31.241  1.00  0.00     0.108 A 
HETATM   19  C13 UNK     1      18.708   2.781  29.779  1.00  0.00     0.304 A 
HETATM   20  O1  UNK     1      19.154   1.711  29.009  1.00  0.00    -0.274 OA
HETATM   21  O3  UNK     1      18.399   3.852  29.267  1.00  0.00    -0.259 OA
HETATM   22  C7  UNK     1      19.513   0.478  29.589  1.00  0.00     0.089 A 
HETATM   23  C15 UNK     1      19.947  -0.535  28.736  1.00  0.00     0.038 A 
HETATM   24  C3  UNK     1      19.430   0.293  30.964  1.00  0.00    -0.001 A 
HETATM   25  C17 UNK     1      20.309  -1.766  29.280  1.00  0.00     0.003 A 
HETATM   26  C16 UNK     1      20.232  -1.971  30.659  1.00  0.00     0.001 A 
HETATM   27  C14 UNK     1      19.794  -0.945  31.501  1.00  0.00     0.014 A 
HETATM   28  C6  UNK     1      18.967   1.393  31.796  1.00  0.00     0.037 A 
ENDBRANCH   3  18
TORSDOF 4
ENDMDL
MODEL 4
REMARK VINA RESULT:      -9.5     16.519     20.246
REMARK  4 active torsions:
REMARK  status: ('A' for Active; 'I' for Inactive)
REMARK    1  A    between atoms: C1_11  and  N1_9 
REMARK       I    between atoms: C9_19  and  N1_9 
REMARK    2  A    between atoms: C10_20  and  N2_10 
REMARK    3  A    between atoms: C12_22  and  C2_12 
REMARK    4  A    between atoms: C4_14  and  C9_19 
ROOT
HETATM    1  O2  UNK     1      17.888  -3.100  15.774  1.00  0.00    -0.267 OA
HETATM    2  N1  UNK     1      20.145  -2.947  15.114  1.00  0.00    -0.322 N 
HETATM    3  C9  UNK     1      18.944  -2.486  15.636  1.00  0.00     0.262 C 
HETATM    4  H1  UNK     1      20.933  -2.306  15.096  1.00  0.00     0.169 HD
ENDROOT
BRANCH   2   5
HETATM    5  C1  UNK     1      20.417  -4.232  14.625  1.00  0.00     0.050 A 
HETATM    6  C8  UNK     1      20.803  -5.227  15.519  1.00  0.00     0.033 A 
HETATM    7  C11 UNK     1      21.078  -6.512  15.051  1.00  0.00     0.038 A 
HETATM    8  C10 UNK     1      20.965  -6.799  13.690  1.00  0.00     0.103 A 
HETATM    9  C5  UNK     1      20.576  -5.799  12.798  1.00  0.00     0.054 A 
HETATM   10  C2  UNK     1      20.301  -4.514  13.266  1.00  0.00     0.076 A 
BRANCH   8  11
HETATM   11  N2  UNK     1      21.245  -8.107  13.215  1.00  0.00    -0.116 N 
HETATM   12  O4  UNK     1      22.320  -8.660  13.552  1.00  0.00    -0.532 OA
HETATM   13  O5  UNK     1      20.409  -8.674  12.471  1.00  0.00    -0.532 OA
ENDBRANCH   8  11
BRANCH  10  14
HETATM   14  C12 UNK     1      19.888  -3.464  12.287  1.00  0.00     0.419 C 
HETATM   15  F1  UNK     1      18.651  -2.944  12.537  1.00  0.00    -0.166 F 
HETATM   16  F2  UNK     1      20.729  -2.389  12.255  1.00  0.00    -0.166 F 
HETATM   17  F3  UNK     1      19.841  -3.933  11.007  1.00  0.00    -0.166 F 
ENDBRANCH  10  14
ENDBRANCH   2   5
BRANCH   3  18
HETATM   18  C4  UNK     1      19.028  -1.081  16.053  1.00  0.00     0.108 A 
HETATM   19  C13 UNK     1      19.262   0.013  15.084  1.00  0.00     0.304 A 
HETATM   20  O1  UNK     1      19.320   1.304  15.601  1.00  0.00    -0.274 OA
HETATM   21  O3  UNK     1      19.396  -0.201  13.884  1.00  0.00    -0.259 OA
HETATM   22  C7  UNK     1      19.165   1.561  16.977  1.00  0.00     0.089 A 
HETATM   23  C15 UNK     1      19.240   2.887  17.400  1.00  0.00     0.038 A 
HETATM   24  C3  UNK     1      18.947   0.518  17.871  1.00  0.00    -0.001 A 
HETATM   25  C17 UNK     1      19.090   3.172  18.756  1.00  0.00     0.003 A 
HETATM   26  C16 UNK     1      18.871   2.138  19.668  1.00  0.00     0.001 A 
HETATM   27  C14 UNK     1      18.799   0.813  19.229  1.00  0.00     0.014 A 
HETATM   28  C6  UNK     1      18.881  -0.843  17.361  1.00  0.00     0.037 A 
ENDBRANCH   3  18
TORSDOF 4
ENDMDL
MODEL 5
REMARK VINA RESULT:      -9.2      8.544     13.237
REMARK  4 active torsions:
REMARK  status: ('A' for Active; 'I' for Inactive)
REMARK    1  A    between atoms: C1_11  and  N1_9 
REMARK       I    between atoms: C9_19  and  N1_9 
REMARK    2  A    between atoms: C10_20  and  N2_10 
REMARK    3  A    between atoms: C12_22  and  C2_12 
REMARK    4  A    between atoms: C4_14  and  C9_19 
ROOT
HETATM    1  O2  UNK     1      21.417  -4.373  37.091  1.00  0.00    -0.267 OA
HETATM    2  N1  UNK     1      19.820  -5.405  35.699  1.00  0.00    -0.322 N 
HETATM    3  C9  UNK     1      20.453  -4.342  36.329  1.00  0.00     0.262 C 
HETATM    4  H1  UNK     1      19.045  -5.195  35.077  1.00  0.00     0.169 HD
ENDROOT
BRANCH   2   5
HETATM    5  C1  UNK     1      20.149  -6.764  35.797  1.00  0.00     0.050 A 
HETATM    6  C8  UNK     1      20.926  -7.344  34.798  1.00  0.00     0.033 A 
HETATM    7  C11 UNK     1      21.263  -8.695  34.877  1.00  0.00     0.038 A 
HETATM    8  C10 UNK     1      20.824  -9.462  35.957  1.00  0.00     0.103 A 
HETATM    9  C5  UNK     1      20.047  -8.876  36.957  1.00  0.00     0.054 A 
HETATM   10  C2  UNK     1      19.710  -7.525  36.877  1.00  0.00     0.076 A 
BRANCH   8  11
HETATM   11  N2  UNK     1      21.169 -10.837  36.038  1.00  0.00    -0.116 N 
HETATM   12  O4  UNK     1      21.591 -11.419  35.010  1.00  0.00    -0.532 OA
HETATM   13  O5  UNK     1      21.042 -11.431  37.135  1.00  0.00    -0.532 OA
ENDBRANCH   8  11
BRANCH  10  14
HETATM   14  C12 UNK     1      18.875  -6.925  37.962  1.00  0.00     0.419 C 
HETATM   15  F1  UNK     1      19.575  -6.096  38.791  1.00  0.00    -0.166 F 
HETATM   16  F2  UNK     1      17.836  -6.174  37.497  1.00  0.00    -0.166 F 
HETATM   17  F3  UNK     1      18.314  -7.869  38.771  1.00  0.00    -0.166 F 
ENDBRANCH  10  14
ENDBRANCH   2   5
BRANCH   3  18
HETATM   18  C4  UNK     1      19.835  -3.054  35.991  1.00  0.00     0.108 A 
HETATM   19  C13 UNK     1      19.989  -2.435  34.655  1.00  0.00     0.304 A 
HETATM   20  O1  UNK     1      19.354  -1.212  34.455  1.00  0.00    -0.274 OA
HETATM   21  O3  UNK     1      20.642  -2.969  33.764  1.00  0.00    -0.259 OA
HETATM   22  C7  UNK     1      18.601  -0.592  35.472  1.00  0.00     0.089 A 
HETATM   23  C15 UNK     1      18.003   0.632  35.178  1.00  0.00     0.038 A 
HETATM   24  C3  UNK     1      18.470  -1.190  36.720  1.00  0.00    -0.001 A 
HETATM   25  C17 UNK     1      17.252   1.270  36.163  1.00  0.00     0.003 A 
HETATM   26  C16 UNK     1      17.109   0.684  37.422  1.00  0.00     0.001 A 
HETATM   27  C14 UNK     1      17.715  -0.543  37.702  1.00  0.00     0.014 A 
HETATM   28  C6  UNK     1      19.122  -2.469  36.959  1.00  0.00     0.037 A 
ENDBRANCH   3  18
TORSDOF 4
ENDMDL
MODEL 6
REMARK VINA RESULT:      -9.1      3.076      4.170
REMARK  4 active torsions:
REMARK  status: ('A' for Active; 'I' for Inactive)
REMARK    1  A    between atoms: C1_11  and  N1_9 
REMARK       I    between atoms: C9_19  and  N1_9 
REMARK    2  A    between atoms: C10_20  and  N2_10 
REMARK    3  A    between atoms: C12_22  and  C2_12 
REMARK    4  A    between atoms: C4_14  and  C9_19 
ROOT
HETATM    1  O2  UNK     1      19.273   5.435  32.186  1.00  0.00    -0.267 OA
HETATM    2  N1  UNK     1      18.014   6.049  34.080  1.00  0.00    -0.322 N 
HETATM    3  C9  UNK     1      18.602   5.170  33.181  1.00  0.00     0.262 C 
HETATM    4  H1  UNK     1      17.509   5.655  34.869  1.00  0.00     0.169 HD
ENDROOT
BRANCH   2   5
HETATM    5  C1  UNK     1      18.059   7.449  34.048  1.00  0.00     0.050 A 
HETATM    6  C8  UNK     1      19.258   8.093  34.341  1.00  0.00     0.033 A 
HETATM    7  C11 UNK     1      19.323   9.486  34.314  1.00  0.00     0.038 A 
HETATM    8  C10 UNK     1      18.189  10.231  33.992  1.00  0.00     0.103 A 
HETATM    9  C5  UNK     1      16.989   9.582  33.698  1.00  0.00     0.054 A 
HETATM   10  C2  UNK     1      16.925   8.190  33.725  1.00  0.00     0.076 A 
BRANCH   8  11
HETATM   11  N2  UNK     1      18.256  11.650  33.964  1.00  0.00    -0.116 N 
HETATM   12  O4  UNK     1      17.577  12.306  34.791  1.00  0.00    -0.532 OA
HETATM   13  O5  UNK     1      18.991  12.206  33.114  1.00  0.00    -0.532 OA
ENDBRANCH   8  11
BRANCH  10  14
HETATM   14  C12 UNK     1      15.626   7.522  33.406  1.00  0.00     0.419 C 
HETATM   15  F1  UNK     1      14.672   8.381  32.943  1.00  0.00    -0.166 F 
HETATM   16  F2  UNK     1      15.733   6.555  32.449  1.00  0.00    -0.166 F 
HETATM   17  F3  UNK     1      15.076   6.907  34.491  1.00  0.00    -0.166 F 
ENDBRANCH  10  14
ENDBRANCH   2   5
BRANCH   3  18
HETATM   18  C4  UNK     1      18.345   3.768  33.532  1.00  0.00     0.108 A 
HETATM   19  C13 UNK     1      17.963   2.761  32.517  1.00  0.00     0.304 A 
HETATM   20  O1  UNK     1      17.747   1.464  32.972  1.00  0.00    -0.274 OA
HETATM   21  O3  UNK     1      17.843   3.050  31.330  1.00  0.00    -0.259 OA
HETATM   22  C7  UNK     1      17.883   1.122  34.332  1.00  0.00     0.089 A 
HETATM   23  C15 UNK     1      17.646  -0.203  34.693  1.00  0.00     0.038 A 
HETATM   24  C3  UNK     1      18.243   2.084  35.270  1.00  0.00    -0.001 A 
HETATM   25  C17 UNK     1      17.773  -0.571  36.031  1.00  0.00     0.003 A 
HETATM   26  C16 UNK     1      18.133   0.381  36.987  1.00  0.00     0.001 A 
HETATM   27  C14 UNK     1      18.368   1.706  36.610  1.00  0.00     0.014 A 
HETATM   28  C6  UNK     1      18.476   3.449  34.824  1.00  0.00     0.037 A 
ENDBRANCH   3  18
TORSDOF 4
ENDMDL
MODEL 7
REMARK VINA RESULT:      -9.0     14.236     16.083
REMARK  4 active torsions:
REMARK  status: ('A' for Active; 'I' for Inactive)
REMARK    1  A    between atoms: C1_11  and  N1_9 
REMARK       I    between atoms: C9_19  and  N1_9 
REMARK    2  A    between atoms: C10_20  and  N2_10 
REMARK    3  A    between atoms: C12_22  and  C2_12 
REMARK    4  A    between atoms: C4_14  and  C9_19 
ROOT
HETATM    1  O2  UNK     1      25.592  -9.071  39.416  1.00  0.00    -0.267 OA
HETATM    2  N1  UNK     1      24.450  -7.643  37.931  1.00  0.00    -0.322 N 
HETATM    3  C9  UNK     1      25.510  -8.057  38.725  1.00  0.00     0.262 C 
HETATM    4  H1  UNK     1      24.560  -6.782  37.401  1.00  0.00     0.169 HD
ENDROOT
BRANCH   2   5
HETATM    5  C1  UNK     1      23.226  -8.300  37.742  1.00  0.00     0.050 A 
HETATM    6  C8  UNK     1      23.185  -9.428  36.926  1.00  0.00     0.033 A 
HETATM    7  C11 UNK     1      21.977 -10.096  36.726  1.00  0.00     0.038 A 
HETATM    8  C10 UNK     1      20.813  -9.634  37.343  1.00  0.00     0.103 A 
HETATM    9  C5  UNK     1      20.860  -8.504  38.160  1.00  0.00     0.054 A 
HETATM   10  C2  UNK     1      22.068  -7.837  38.360  1.00  0.00     0.076 A 
BRANCH   8  11
HETATM   11  N2  UNK     1      19.584 -10.315  37.139  1.00  0.00    -0.116 N 
HETATM   12  O4  UNK     1      19.533 -11.552  37.345  1.00  0.00    -0.532 OA
HETATM   13  O5  UNK     1      18.583  -9.661  36.760  1.00  0.00    -0.532 OA
ENDBRANCH   8  11
BRANCH  10  14
HETATM   14  C12 UNK     1      22.087  -6.629  39.240  1.00  0.00     0.419 C 
HETATM   15  F1  UNK     1      22.930  -6.746  40.307  1.00  0.00    -0.166 F 
HETATM   16  F2  UNK     1      22.480  -5.493  38.595  1.00  0.00    -0.166 F 
HETATM   17  F3  UNK     1      20.861  -6.348  39.766  1.00  0.00    -0.166 F 
ENDBRANCH  10  14
ENDBRANCH   2   5
BRANCH   3  18
HETATM   18  C4  UNK     1      26.634  -7.115  38.679  1.00  0.00     0.108 A 
HETATM   19  C13 UNK     1      26.436  -5.651  38.771  1.00  0.00     0.304 A 
HETATM   20  O1  UNK     1      27.580  -4.860  38.718  1.00  0.00    -0.274 OA
HETATM   21  O3  UNK     1      25.320  -5.154  38.891  1.00  0.00    -0.259 OA
HETATM   22  C7  UNK     1      28.865  -5.421  38.582  1.00  0.00     0.089 A 
HETATM   23  C15 UNK     1      29.950  -4.548  38.537  1.00  0.00     0.038 A 
HETATM   24  C3  UNK     1      29.029  -6.799  38.497  1.00  0.00    -0.001 A 
HETATM   25  C17 UNK     1      31.234  -5.074  38.404  1.00  0.00     0.003 A 
HETATM   26  C16 UNK     1      31.418  -6.455  38.317  1.00  0.00     0.001 A 
HETATM   27  C14 UNK     1      30.320  -7.318  38.363  1.00  0.00     0.014 A 
HETATM   28  C6  UNK     1      27.852  -7.653  38.550  1.00  0.00     0.037 A 
ENDBRANCH   3  18
TORSDOF 4
ENDMDL
MODEL 8
REMARK VINA RESULT:      -8.9     16.904     20.506
REMARK  4 active torsions:
REMARK  status: ('A' for Active; 'I' for Inactive)
REMARK    1  A    between atoms: C1_11  and  N1_9 
REMARK       I    between atoms: C9_19  and  N1_9 
REMARK    2  A    between atoms: C10_20  and  N2_10 
REMARK    3  A    between atoms: C12_22  and  C2_12 
REMARK    4  A    between atoms: C4_14  and  C9_19 
ROOT
HETATM    1  O2  UNK     1      20.213  -3.572  16.169  1.00  0.00    -0.267 OA
HETATM    2  N1  UNK     1      18.457  -3.201  14.642  1.00  0.00    -0.322 N 
HETATM    3  C9  UNK     1      19.382  -2.852  15.617  1.00  0.00     0.262 C 
HETATM    4  H1  UNK     1      17.855  -2.469  14.274  1.00  0.00     0.169 HD
ENDROOT
BRANCH   2   5
HETATM    5  C1  UNK     1      18.268  -4.465  14.068  1.00  0.00     0.050 A 
HETATM    6  C8  UNK     1      17.509  -5.411  14.753  1.00  0.00     0.033 A 
HETATM    7  C11 UNK     1      17.310  -6.675  14.198  1.00  0.00     0.038 A 
HETATM    8  C10 UNK     1      17.868  -6.989  12.959  1.00  0.00     0.103 A 
HETATM    9  C5  UNK     1      18.627  -6.038  12.275  1.00  0.00     0.054 A 
HETATM   10  C2  UNK     1      18.826  -4.775  12.830  1.00  0.00     0.076 A 
BRANCH   8  11
HETATM   11  N2  UNK     1      17.664  -8.276  12.394  1.00  0.00    -0.116 N 
HETATM   12  O4  UNK     1      16.603  -8.501  11.763  1.00  0.00    -0.532 OA
HETATM   13  O5  UNK     1      18.551  -9.151  12.540  1.00  0.00    -0.532 OA
ENDBRANCH   8  11
BRANCH  10  14
HETATM   14  C12 UNK     1      19.644  -3.777  12.076  1.00  0.00     0.419 C 
HETATM   15  F1  UNK     1      18.946  -2.659  11.719  1.00  0.00    -0.166 F 
HETATM   16  F2  UNK     1      20.723  -3.318  12.775  1.00  0.00    -0.166 F 
HETATM   17  F3  UNK     1      20.147  -4.285  10.915  1.00  0.00    -0.166 F 
ENDBRANCH  10  14
ENDBRANCH   2   5
BRANCH   3  18
HETATM   18  C4  UNK     1      19.294  -1.433  15.978  1.00  0.00     0.108 A 
HETATM   19  C13 UNK     1      19.397  -0.356  14.967  1.00  0.00     0.304 A 
HETATM   20  O1  UNK     1      19.297   0.951  15.433  1.00  0.00    -0.274 OA
HETATM   21  O3  UNK     1      19.561  -0.600  13.776  1.00  0.00    -0.259 OA
HETATM   22  C7  UNK     1      19.107   1.240  16.798  1.00  0.00     0.089 A 
HETATM   23  C15 UNK     1      19.019   2.581  17.170  1.00  0.00     0.038 A 
HETATM   24  C3  UNK     1      19.014   0.214  17.732  1.00  0.00    -0.001 A 
HETATM   25  C17 UNK     1      18.832   2.899  18.513  1.00  0.00     0.003 A 
HETATM   26  C16 UNK     1      18.736   1.881  19.465  1.00  0.00     0.001 A 
HETATM   27  C14 UNK     1      18.826   0.542  19.078  1.00  0.00     0.014 A 
HETATM   28  C6  UNK     1      19.114  -1.164  17.276  1.00  0.00     0.037 A 
ENDBRANCH   3  18
TORSDOF 4
ENDMDL
MODEL 9
REMARK VINA RESULT:      -8.9      6.972      9.453
REMARK  4 active torsions:
REMARK  status: ('A' for Active; 'I' for Inactive)
REMARK    1  A    between atoms: C1_11  and  N1_9 
REMARK       I    between atoms: C9_19  and  N1_9 
REMARK    2  A    between atoms: C10_20  and  N2_10 
REMARK    3  A    between atoms: C12_22  and  C2_12 
REMARK    4  A    between atoms: C4_14  and  C9_19 
ROOT
HETATM    1  O2  UNK     1      21.268  -3.141  36.142  1.00  0.00    -0.267 OA
HETATM    2  N1  UNK     1      18.923  -2.923  36.227  1.00  0.00    -0.322 N 
HETATM    3  C9  UNK     1      20.145  -3.552  36.426  1.00  0.00     0.262 C 
HETATM    4  H1  UNK     1      18.085  -3.400  36.547  1.00  0.00     0.169 HD
ENDROOT
BRANCH   2   5
HETATM    5  C1  UNK     1      18.703  -1.665  35.650  1.00  0.00     0.050 A 
HETATM    6  C8  UNK     1      18.955  -1.491  34.292  1.00  0.00     0.033 A 
HETATM    7  C11 UNK     1      18.743  -0.247  33.700  1.00  0.00     0.038 A 
HETATM    8  C10 UNK     1      18.278   0.821  34.468  1.00  0.00     0.103 A 
HETATM    9  C5  UNK     1      18.026   0.643  35.829  1.00  0.00     0.054 A 
HETATM   10  C2  UNK     1      18.238  -0.602  36.420  1.00  0.00     0.076 A 
BRANCH   8  11
HETATM   11  N2  UNK     1      18.061   2.089  33.865  1.00  0.00    -0.116 N 
HETATM   12  O4  UNK     1      18.333   3.126  34.516  1.00  0.00    -0.532 OA
HETATM   13  O5  UNK     1      17.604   2.136  32.698  1.00  0.00    -0.532 OA
ENDBRANCH   8  11
BRANCH  10  14
HETATM   14  C12 UNK     1      17.960  -0.763  37.880  1.00  0.00     0.419 C 
HETATM   15  F1  UNK     1      18.894  -1.515  38.532  1.00  0.00    -0.166 F 
HETATM   16  F2  UNK     1      17.915   0.420  38.559  1.00  0.00    -0.166 F 
HETATM   17  F3  UNK     1      16.763  -1.371  38.119  1.00  0.00    -0.166 F 
ENDBRANCH  10  14
ENDBRANCH   2   5
BRANCH   3  18
HETATM   18  C4  UNK     1      19.991  -4.867  37.060  1.00  0.00     0.108 A 
HETATM   19  C13 UNK     1      18.740  -5.651  36.950  1.00  0.00     0.304 A 
HETATM   20  O1  UNK     1      18.716  -6.884  37.594  1.00  0.00    -0.274 OA
HETATM   21  O3  UNK     1      17.770  -5.239  36.321  1.00  0.00    -0.259 OA
HETATM   22  C7  UNK     1      19.825  -7.366  38.317  1.00  0.00     0.089 A 
HETATM   23  C15 UNK     1      19.706  -8.613  38.929  1.00  0.00     0.038 A 
HETATM   24  C3  UNK     1      20.990  -6.613  38.409  1.00  0.00    -0.001 A 
HETATM   25  C17 UNK     1      20.786  -9.116  39.651  1.00  0.00     0.003 A 
HETATM   26  C16 UNK     1      21.964  -8.374  39.755  1.00  0.00     0.001 A 
HETATM   27  C14 UNK     1      22.068  -7.125  39.136  1.00  0.00     0.014 A 
HETATM   28  C6  UNK     1      21.046  -5.320  37.746  1.00  0.00     0.037 A 
ENDBRANCH   3  18
TORSDOF 4
ENDMDL
MODEL 10
REMARK VINA RESULT:      -8.9      6.176      8.631
REMARK  4 active torsions:
REMARK  status: ('A' for Active; 'I' for Inactive)
REMARK    1  A    between atoms: C1_11  and  N1_9 
REMARK       I    between atoms: C9_19  and  N1_9 
REMARK    2  A    between atoms: C10_20  and  N2_10 
REMARK    3  A    between atoms: C12_22  and  C2_12 
REMARK    4  A    between atoms: C4_14  and  C9_19 
ROOT
HETATM    1  O2  UNK     1      20.578  -3.393  34.281  1.00  0.00    -0.267 OA
HETATM    2  N1  UNK     1      18.992  -2.337  35.666  1.00  0.00    -0.322 N 
HETATM    3  C9  UNK     1      19.863  -3.346  35.279  1.00  0.00     0.262 C 
HETATM    4  H1  UNK     1      18.490  -2.451  36.542  1.00  0.00     0.169 HD
ENDROOT
BRANCH   2   5
HETATM    5  C1  UNK     1      18.738  -1.134  34.992  1.00  0.00     0.050 A 
HETATM    6  C8  UNK     1      19.010  -1.054  33.629  1.00  0.00     0.033 A 
HETATM    7  C11 UNK     1      18.764   0.134  32.941  1.00  0.00     0.038 A 
HETATM    8  C10 UNK     1      18.246   1.239  33.618  1.00  0.00     0.103 A 
HETATM    9  C5  UNK     1      17.974   1.154  34.984  1.00  0.00     0.054 A 
HETATM   10  C2  UNK     1      18.220  -0.034  35.671  1.00  0.00     0.076 A 
BRANCH   8  11
HETATM   11  N2  UNK     1      17.995   2.448  32.917  1.00  0.00    -0.116 N 
HETATM   12  O4  UNK     1      18.059   3.536  33.540  1.00  0.00    -0.532 OA
HETATM   13  O5  UNK     1      17.717   2.395  31.695  1.00  0.00    -0.532 OA
ENDBRANCH   8  11
BRANCH  10  14
HETATM   14  C12 UNK     1      17.920  -0.096  37.134  1.00  0.00     0.419 C 
HETATM   15  F1  UNK     1      16.623  -0.421  37.410  1.00  0.00    -0.166 F 
HETATM   16  F2  UNK     1      18.671  -1.017  37.805  1.00  0.00    -0.166 F 
HETATM   17  F3  UNK     1      18.146   1.092  37.764  1.00  0.00    -0.166 F 
ENDBRANCH  10  14
ENDBRANCH   2   5
BRANCH   3  18
HETATM   18  C4  UNK     1      19.872  -4.461  36.233  1.00  0.00     0.108 A 
HETATM   19  C13 UNK     1      20.350  -4.300  37.626  1.00  0.00     0.304 A 
HETATM   20  O1  UNK     1      20.308  -5.430  38.436  1.00  0.00    -0.274 OA
HETATM   21  O3  UNK     1      20.760  -3.224  38.049  1.00  0.00    -0.259 OA
HETATM   22  C7  UNK     1      19.837  -6.669  37.959  1.00  0.00     0.089 A 
HETATM   23  C15 UNK     1      19.835  -7.745  38.845  1.00  0.00     0.038 A 
HETATM   24  C3  UNK     1      19.394  -6.800  36.647  1.00  0.00    -0.001 A 
HETATM   25  C17 UNK     1      19.374  -8.984  38.402  1.00  0.00     0.003 A 
HETATM   26  C16 UNK     1      18.925  -9.133  37.088  1.00  0.00     0.001 A 
HETATM   27  C14 UNK     1      18.934  -8.045  36.211  1.00  0.00     0.014 A 
HETATM   28  C6  UNK     1      19.424  -5.635  35.775  1.00  0.00     0.037 A 
ENDBRANCH   3  18
TORSDOF 4
ENDMDL
