MODEL 1
REMARK VINA RESULT:      -7.8      0.000      0.000
REMARK  6 active torsions:
REMARK  status: ('A' for Active; 'I' for Inactive)
REMARK    1  A    between atoms: C15_22  and  O3_3 
REMARK    2  A    between atoms: C17_24  and  O3_3 
REMARK    3  A    between atoms: C5_12  and  N1_5 
REMARK    4  A    between atoms: C6_13  and  N2_6 
REMARK       I    between atoms: C10_17  and  N3_7 
REMARK    5  A    between atoms: C5_12  and  C7_14 
REMARK    6  A    between atoms: C10_17  and  C6_13 
ROOT
HETATM    1  O1  UNK     1      17.829  -0.446  35.722  1.00  0.00    -0.275 OA
HETATM    2  O4  UNK     1      17.267  -0.527  37.937  1.00  0.00    -0.260 OA
HETATM    3  C7  UNK     1      19.625  -2.579  36.203  1.00  0.00    -0.011 A 
HETATM    4  C8  UNK     1      19.493  -2.010  34.855  1.00  0.00     0.009 A 
HETATM    5  C9  UNK     1      18.881  -2.073  37.196  1.00  0.00     0.092 A 
HETATM    6  C11 UNK     1      18.597  -0.958  34.658  1.00  0.00     0.090 A 
HETATM    7  C12 UNK     1      20.219  -2.462  33.745  1.00  0.00     0.051 A 
HETATM    8  C13 UNK     1      17.931  -0.964  37.004  1.00  0.00     0.288 A 
HETATM    9  C14 UNK     1      18.412  -0.361  33.410  1.00  0.00     0.041 A 
HETATM   10  C15 UNK     1      20.044  -1.873  32.486  1.00  0.00     0.069 A 
HETATM   11  C16 UNK     1      19.142  -0.824  32.320  1.00  0.00     0.039 A 
ENDROOT
BRANCH   3  12
HETATM   12  C5  UNK     1      20.572  -3.703  36.446  1.00  0.00     0.312 C 
BRANCH  12  13
HETATM   13  N1  UNK     1      19.908  -4.867  37.027  1.00  0.00     0.096 N 
HETATM   14  C1  UNK     1      20.718  -5.445  38.106  1.00  0.00     0.303 C 
HETATM   15  C3  UNK     1      20.024  -6.670  38.715  1.00  0.00     0.303 C 
HETATM   16  N2  UNK     1      19.749  -7.678  37.685  1.00  0.00     0.100 N 
HETATM   17  C4  UNK     1      18.938  -7.101  36.606  1.00  0.00     0.303 C 
HETATM   18  C2  UNK     1      19.631  -5.877  35.998  1.00  0.00     0.303 C 
BRANCH  16  19
HETATM   19  C6  UNK     1      19.086  -8.845  38.265  1.00  0.00     0.374 C 
BRANCH  19  20
HETATM   20  C10 UNK     1      19.873 -10.075  37.874  1.00  0.00     0.243 C 
HETATM   21  O2  UNK     1      19.362 -11.062  37.349  1.00  0.00    -0.272 OA
HETATM   22  N3  UNK     1      21.212  -9.984  38.180  1.00  0.00    -0.369 N 
HETATM   23  H17 UNK     1      21.616  -9.166  38.624  1.00  0.00     0.159 HD
HETATM   24  H18 UNK     1      21.848 -10.747  37.972  1.00  0.00     0.159 HD
ENDBRANCH  19  20
ENDBRANCH  16  19
ENDBRANCH  12  13
ENDBRANCH   3  12
BRANCH  10  25
HETATM   25  O3  UNK     1      20.759  -2.328  31.420  1.00  0.00    -0.351 OA
BRANCH  25  26
HETATM   26  C17 UNK     1      20.159  -2.193  30.132  1.00  0.00     0.171 C 
HETATM   27  C18 UNK     1      20.895  -1.122  29.356  1.00  0.00     0.034 C 
ENDBRANCH  25  26
ENDBRANCH  10  25
TORSDOF 6
ENDMDL
MODEL 2
REMARK VINA RESULT:      -7.7      6.278     10.760
REMARK  6 active torsions:
REMARK  status: ('A' for Active; 'I' for Inactive)
REMARK    1  A    between atoms: C15_22  and  O3_3 
REMARK    2  A    between atoms: C17_24  and  O3_3 
REMARK    3  A    between atoms: C5_12  and  N1_5 
REMARK    4  A    between atoms: C6_13  and  N2_6 
REMARK       I    between atoms: C10_17  and  N3_7 
REMARK    5  A    between atoms: C5_12  and  C7_14 
REMARK    6  A    between atoms: C10_17  and  C6_13 
ROOT
HETATM    1  O1  UNK     1      20.506  -1.213  30.291  1.00  0.00    -0.275 OA
HETATM    2  O4  UNK     1      21.011  -0.591  28.149  1.00  0.00    -0.260 OA
HETATM    3  C7  UNK     1      18.970   1.153  30.510  1.00  0.00    -0.011 A 
HETATM    4  C8  UNK     1      19.067   0.224  31.644  1.00  0.00     0.009 A 
HETATM    5  C9  UNK     1      19.618   0.860  29.374  1.00  0.00     0.092 A 
HETATM    6  C11 UNK     1      19.836  -0.932  31.498  1.00  0.00     0.090 A 
HETATM    7  C12 UNK     1      18.431   0.430  32.875  1.00  0.00     0.051 A 
HETATM    8  C13 UNK     1      20.432  -0.356  29.204  1.00  0.00     0.288 A 
HETATM    9  C14 UNK     1      19.981  -1.865  32.526  1.00  0.00     0.041 A 
HETATM   10  C15 UNK     1      18.567  -0.498  33.916  1.00  0.00     0.069 A 
HETATM   11  C16 UNK     1      19.342  -1.643  33.741  1.00  0.00     0.039 A 
ENDROOT
BRANCH   3  12
HETATM   12  C5  UNK     1      18.158   2.395  30.634  1.00  0.00     0.312 C 
BRANCH  12  13
HETATM   13  N1  UNK     1      18.858   3.438  31.380  1.00  0.00     0.096 N 
HETATM   14  C1  UNK     1      18.033   3.927  32.492  1.00  0.00     0.303 C 
HETATM   15  C3  UNK     1      18.765   5.025  33.274  1.00  0.00     0.303 C 
HETATM   16  N2  UNK     1      19.140   6.134  32.389  1.00  0.00     0.100 N 
HETATM   17  C4  UNK     1      19.966   5.646  31.277  1.00  0.00     0.303 C 
HETATM   18  C2  UNK     1      19.235   4.548  30.496  1.00  0.00     0.303 C 
BRANCH  16  19
HETATM   19  C6  UNK     1      19.839   7.179  33.135  1.00  0.00     0.374 C 
BRANCH  19  20
HETATM   20  C10 UNK     1      18.825   7.901  33.993  1.00  0.00     0.243 C 
HETATM   21  O2  UNK     1      17.927   8.600  33.529  1.00  0.00    -0.272 OA
HETATM   22  N3  UNK     1      19.021   7.710  35.342  1.00  0.00    -0.369 N 
HETATM   23  H17 UNK     1      19.774   7.138  35.708  1.00  0.00     0.159 HD
HETATM   24  H18 UNK     1      18.408   8.146  36.024  1.00  0.00     0.159 HD
ENDBRANCH  19  20
ENDBRANCH  16  19
ENDBRANCH  12  13
ENDBRANCH   3  12
BRANCH  10  25
HETATM   25  O3  UNK     1      17.940  -0.279  35.104  1.00  0.00    -0.351 OA
BRANCH  25  26
HETATM   26  C17 UNK     1      16.646  -0.859  35.271  1.00  0.00     0.171 C 
HETATM   27  C18 UNK     1      15.640   0.246  35.516  1.00  0.00     0.034 C 
ENDBRANCH  25  26
ENDBRANCH  10  25
TORSDOF 6
ENDMDL
MODEL 3
REMARK VINA RESULT:      -7.6     11.837     13.535
REMARK  6 active torsions:
REMARK  status: ('A' for Active; 'I' for Inactive)
REMARK    1  A    between atoms: C15_22  and  O3_3 
REMARK    2  A    between atoms: C17_24  and  O3_3 
REMARK    3  A    between atoms: C5_12  and  N1_5 
REMARK    4  A    between atoms: C6_13  and  N2_6 
REMARK       I    between atoms: C10_17  and  N3_7 
REMARK    5  A    between atoms: C5_12  and  C7_14 
REMARK    6  A    between atoms: C10_17  and  C6_13 
ROOT
HETATM    1  O1  UNK     1      28.702  -5.564  39.401  1.00  0.00    -0.275 OA
HETATM    2  O4  UNK     1      29.582  -3.555  40.048  1.00  0.00    -0.260 OA
HETATM    3  C7  UNK     1      30.209  -5.343  37.016  1.00  0.00    -0.011 A 
HETATM    4  C8  UNK     1      29.350  -6.513  37.245  1.00  0.00     0.009 A 
HETATM    5  C9  UNK     1      30.267  -4.387  37.954  1.00  0.00     0.092 A 
HETATM    6  C11 UNK     1      28.622  -6.585  38.433  1.00  0.00     0.090 A 
HETATM    7  C12 UNK     1      29.216  -7.570  36.335  1.00  0.00     0.051 A 
HETATM    8  C13 UNK     1      29.505  -4.449  39.213  1.00  0.00     0.288 A 
HETATM    9  C14 UNK     1      27.783  -7.661  38.729  1.00  0.00     0.041 A 
HETATM   10  C15 UNK     1      28.378  -8.656  36.618  1.00  0.00     0.069 A 
HETATM   11  C16 UNK     1      27.662  -8.700  37.812  1.00  0.00     0.039 A 
ENDROOT
BRANCH   3  12
HETATM   12  C5  UNK     1      30.999  -5.236  35.758  1.00  0.00     0.312 C 
BRANCH  12  13
HETATM   13  N1  UNK     1      32.373  -5.702  35.929  1.00  0.00     0.096 N 
HETATM   14  C1  UNK     1      33.330  -4.636  35.608  1.00  0.00     0.303 C 
HETATM   15  C3  UNK     1      34.772  -5.126  35.783  1.00  0.00     0.303 C 
HETATM   16  N2  UNK     1      35.027  -6.309  34.954  1.00  0.00     0.100 N 
HETATM   17  C4  UNK     1      34.071  -7.376  35.276  1.00  0.00     0.303 C 
HETATM   18  C2  UNK     1      32.629  -6.887  35.101  1.00  0.00     0.303 C 
BRANCH  16  19
HETATM   19  C6  UNK     1      36.402  -6.776  35.123  1.00  0.00     0.374 C 
BRANCH  19  20
HETATM   20  C10 UNK     1      36.784  -7.567  33.893  1.00  0.00     0.243 C 
HETATM   21  O2  UNK     1      36.667  -7.132  32.750  1.00  0.00    -0.272 OA
HETATM   22  N3  UNK     1      37.259  -8.826  34.183  1.00  0.00    -0.369 N 
HETATM   23  H17 UNK     1      37.339  -9.174  35.133  1.00  0.00     0.159 HD
HETATM   24  H18 UNK     1      37.545  -9.459  33.442  1.00  0.00     0.159 HD
ENDBRANCH  19  20
ENDBRANCH  16  19
ENDBRANCH  12  13
ENDBRANCH   3  12
BRANCH  10  25
HETATM   25  O3  UNK     1      28.262  -9.673  35.720  1.00  0.00    -0.351 OA
BRANCH  25  26
HETATM   26  C17 UNK     1      29.398  -9.947  34.900  1.00  0.00     0.171 C 
HETATM   27  C18 UNK     1      28.944 -10.093  33.464  1.00  0.00     0.034 C 
ENDBRANCH  25  26
ENDBRANCH  10  25
TORSDOF 6
ENDMDL
MODEL 4
REMARK VINA RESULT:      -7.6     11.096     13.109
REMARK  6 active torsions:
REMARK  status: ('A' for Active; 'I' for Inactive)
REMARK    1  A    between atoms: C15_22  and  O3_3 
REMARK    2  A    between atoms: C17_24  and  O3_3 
REMARK    3  A    between atoms: C5_12  and  N1_5 
REMARK    4  A    between atoms: C6_13  and  N2_6 
REMARK       I    between atoms: C10_17  and  N3_7 
REMARK    5  A    between atoms: C5_12  and  C7_14 
REMARK    6  A    between atoms: C10_17  and  C6_13 
ROOT
HETATM    1  O1  UNK     1      28.229  -5.392  39.594  1.00  0.00    -0.275 OA
HETATM    2  O4  UNK     1      29.556  -3.572  39.990  1.00  0.00    -0.260 OA
HETATM    3  C7  UNK     1      29.615  -5.746  37.153  1.00  0.00    -0.011 A 
HETATM    4  C8  UNK     1      28.538  -6.670  37.536  1.00  0.00     0.009 A 
HETATM    5  C9  UNK     1      29.929  -4.738  37.979  1.00  0.00     0.092 A 
HETATM    6  C11 UNK     1      27.878  -6.462  38.748  1.00  0.00     0.090 A 
HETATM    7  C12 UNK     1      28.130  -7.757  36.752  1.00  0.00     0.051 A 
HETATM    8  C13 UNK     1      29.241  -4.506  39.260  1.00  0.00     0.288 A 
HETATM    9  C14 UNK     1      26.845  -7.292  39.185  1.00  0.00     0.041 A 
HETATM   10  C15 UNK     1      27.095  -8.598  37.178  1.00  0.00     0.069 A 
HETATM   11  C16 UNK     1      26.453  -8.365  38.392  1.00  0.00     0.039 A 
ENDROOT
BRANCH   3  12
HETATM   12  C5  UNK     1      30.339  -5.942  35.866  1.00  0.00     0.312 C 
BRANCH  12  13
HETATM   13  N1  UNK     1      31.789  -5.888  36.037  1.00  0.00     0.096 N 
HETATM   14  C1  UNK     1      32.414  -5.121  34.952  1.00  0.00     0.303 C 
HETATM   15  C3  UNK     1      33.936  -5.067  35.127  1.00  0.00     0.303 C 
HETATM   16  N2  UNK     1      34.503  -6.419  35.191  1.00  0.00     0.100 N 
HETATM   17  C4  UNK     1      33.879  -7.186  36.276  1.00  0.00     0.303 C 
HETATM   18  C2  UNK     1      32.358  -7.240  36.101  1.00  0.00     0.303 C 
BRANCH  16  19
HETATM   19  C6  UNK     1      35.954  -6.366  35.359  1.00  0.00     0.374 C 
BRANCH  19  20
HETATM   20  C10 UNK     1      36.582  -7.233  34.292  1.00  0.00     0.243 C 
HETATM   21  O2  UNK     1      36.544  -6.959  33.094  1.00  0.00    -0.272 OA
HETATM   22  N3  UNK     1      37.185  -8.364  34.795  1.00  0.00    -0.369 N 
HETATM   23  H17 UNK     1      37.198  -8.580  35.786  1.00  0.00     0.159 HD
HETATM   24  H18 UNK     1      37.639  -9.031  34.179  1.00  0.00     0.159 HD
ENDBRANCH  19  20
ENDBRANCH  16  19
ENDBRANCH  12  13
ENDBRANCH   3  12
BRANCH  10  25
HETATM   25  O3  UNK     1      26.713  -9.650  36.400  1.00  0.00    -0.351 OA
BRANCH  25  26
HETATM   26  C17 UNK     1      25.428 -10.214  36.658  1.00  0.00     0.171 C 
HETATM   27  C18 UNK     1      25.419 -11.653  36.187  1.00  0.00     0.034 C 
ENDBRANCH  25  26
ENDBRANCH  10  25
TORSDOF 6
ENDMDL
MODEL 5
REMARK VINA RESULT:      -7.3     28.136     29.915
REMARK  6 active torsions:
REMARK  status: ('A' for Active; 'I' for Inactive)
REMARK    1  A    between atoms: C15_22  and  O3_3 
REMARK    2  A    between atoms: C17_24  and  O3_3 
REMARK    3  A    between atoms: C5_12  and  N1_5 
REMARK    4  A    between atoms: C6_13  and  N2_6 
REMARK       I    between atoms: C10_17  and  N3_7 
REMARK    5  A    between atoms: C5_12  and  C7_14 
REMARK    6  A    between atoms: C10_17  and  C6_13 
ROOT
HETATM    1  O1  UNK     1      16.417   6.069  10.036  1.00  0.00    -0.275 OA
HETATM    2  O4  UNK     1      15.864   3.858   9.838  1.00  0.00    -0.260 OA
HETATM    3  C7  UNK     1      14.029   6.687   8.651  1.00  0.00    -0.011 A 
HETATM    4  C8  UNK     1      14.923   7.762   9.104  1.00  0.00     0.009 A 
HETATM    5  C9  UNK     1      14.362   5.414   8.907  1.00  0.00     0.092 A 
HETATM    6  C11 UNK     1      16.093   7.416   9.783  1.00  0.00     0.090 A 
HETATM    7  C12 UNK     1      14.673   9.124   8.893  1.00  0.00     0.051 A 
HETATM    8  C13 UNK     1      15.592   5.034   9.623  1.00  0.00     0.288 A 
HETATM    9  C14 UNK     1      16.996   8.374  10.246  1.00  0.00     0.041 A 
HETATM   10  C15 UNK     1      15.570  10.096   9.351  1.00  0.00     0.069 A 
HETATM   11  C16 UNK     1      16.730   9.721  10.026  1.00  0.00     0.039 A 
ENDROOT
BRANCH   3  12
HETATM   12  C5  UNK     1      12.773   7.023   7.924  1.00  0.00     0.312 C 
BRANCH  12  13
HETATM   13  N1  UNK     1      11.582   6.741   8.722  1.00  0.00     0.096 N 
HETATM   14  C1  UNK     1      11.269   5.307   8.703  1.00  0.00     0.303 C 
HETATM   15  C3  UNK     1      10.017   5.010   9.537  1.00  0.00     0.303 C 
HETATM   16  N2  UNK     1       8.872   5.791   9.055  1.00  0.00     0.100 N 
HETATM   17  C4  UNK     1       9.184   7.225   9.075  1.00  0.00     0.303 C 
HETATM   18  C2  UNK     1      10.436   7.522   8.242  1.00  0.00     0.303 C 
BRANCH  16  19
HETATM   19  C6  UNK     1       7.679   5.508   9.851  1.00  0.00     0.374 C 
BRANCH  19  20
HETATM   20  C10 UNK     1       7.198   4.118   9.501  1.00  0.00     0.243 C 
HETATM   21  O2  UNK     1       6.898   3.779   8.359  1.00  0.00    -0.272 OA
HETATM   22  N3  UNK     1       7.116   3.281  10.591  1.00  0.00    -0.369 N 
HETATM   23  H17 UNK     1       7.358   3.581  11.529  1.00  0.00     0.159 HD
HETATM   24  H18 UNK     1       6.802   2.321  10.488  1.00  0.00     0.159 HD
ENDBRANCH  19  20
ENDBRANCH  16  19
ENDBRANCH  12  13
ENDBRANCH   3  12
BRANCH  10  25
HETATM   25  O3  UNK     1      15.307  11.415   9.137  1.00  0.00    -0.351 OA
BRANCH  25  26
HETATM   26  C17 UNK     1      15.449  11.895   7.800  1.00  0.00     0.171 C 
HETATM   27  C18 UNK     1      16.922  11.996   7.467  1.00  0.00     0.034 C 
ENDBRANCH  25  26
ENDBRANCH  10  25
TORSDOF 6
ENDMDL
MODEL 6
REMARK VINA RESULT:      -7.3      5.013      7.766
REMARK  6 active torsions:
REMARK  status: ('A' for Active; 'I' for Inactive)
REMARK    1  A    between atoms: C15_22  and  O3_3 
REMARK    2  A    between atoms: C17_24  and  O3_3 
REMARK    3  A    between atoms: C5_12  and  N1_5 
REMARK    4  A    between atoms: C6_13  and  N2_6 
REMARK       I    between atoms: C10_17  and  N3_7 
REMARK    5  A    between atoms: C5_12  and  C7_14 
REMARK    6  A    between atoms: C10_17  and  C6_13 
ROOT
HETATM    1  O1  UNK     1      19.028   3.049  29.897  1.00  0.00    -0.275 OA
HETATM    2  O4  UNK     1      19.243   0.777  29.741  1.00  0.00    -0.260 OA
HETATM    3  C7  UNK     1      18.305   2.693  32.609  1.00  0.00    -0.011 A 
HETATM    4  C8  UNK     1      18.365   4.042  32.028  1.00  0.00     0.009 A 
HETATM    5  C9  UNK     1      18.599   1.639  31.835  1.00  0.00     0.092 A 
HETATM    6  C11 UNK     1      18.725   4.175  30.686  1.00  0.00     0.090 A 
HETATM    7  C12 UNK     1      18.080   5.211  32.744  1.00  0.00     0.051 A 
HETATM    8  C13 UNK     1      18.981   1.765  30.418  1.00  0.00     0.288 A 
HETATM    9  C14 UNK     1      18.806   5.419  30.057  1.00  0.00     0.041 A 
HETATM   10  C15 UNK     1      18.157   6.466  32.127  1.00  0.00     0.069 A 
HETATM   11  C16 UNK     1      18.518   6.569  30.785  1.00  0.00     0.039 A 
ENDROOT
BRANCH   3  12
HETATM   12  C5  UNK     1      17.924   2.516  34.038  1.00  0.00     0.312 C 
BRANCH  12  13
HETATM   13  N1  UNK     1      18.044   1.127  34.472  1.00  0.00     0.096 N 
HETATM   14  C1  UNK     1      16.723   0.555  34.763  1.00  0.00     0.303 C 
HETATM   15  C3  UNK     1      16.847  -0.902  35.223  1.00  0.00     0.303 C 
HETATM   16  N2  UNK     1      17.720  -1.007  36.398  1.00  0.00     0.100 N 
HETATM   17  C4  UNK     1      19.042  -0.436  36.107  1.00  0.00     0.303 C 
HETATM   18  C2  UNK     1      18.917   1.021  35.647  1.00  0.00     0.303 C 
BRANCH  16  19
HETATM   19  C6  UNK     1      17.839  -2.397  36.834  1.00  0.00     0.374 C 
BRANCH  19  20
HETATM   20  C10 UNK     1      19.289  -2.806  36.709  1.00  0.00     0.243 C 
HETATM   21  O2  UNK     1      20.097  -2.708  37.630  1.00  0.00    -0.272 OA
HETATM   22  N3  UNK     1      19.613  -3.282  35.459  1.00  0.00    -0.369 N 
HETATM   23  H17 UNK     1      18.935  -3.346  34.707  1.00  0.00     0.159 HD
HETATM   24  H18 UNK     1      20.558  -3.585  35.245  1.00  0.00     0.159 HD
ENDBRANCH  19  20
ENDBRANCH  16  19
ENDBRANCH  12  13
ENDBRANCH   3  12
BRANCH  10  25
HETATM   25  O3  UNK     1      17.876   7.591  32.841  1.00  0.00    -0.351 OA
BRANCH  25  26
HETATM   26  C17 UNK     1      18.311   7.621  34.200  1.00  0.00     0.171 C 
HETATM   27  C18 UNK     1      19.692   8.239  34.261  1.00  0.00     0.034 C 
ENDBRANCH  25  26
ENDBRANCH  10  25
TORSDOF 6
ENDMDL
MODEL 7
REMARK VINA RESULT:      -7.2     27.823     29.469
REMARK  6 active torsions:
REMARK  status: ('A' for Active; 'I' for Inactive)
REMARK    1  A    between atoms: C15_22  and  O3_3 
REMARK    2  A    between atoms: C17_24  and  O3_3 
REMARK    3  A    between atoms: C5_12  and  N1_5 
REMARK    4  A    between atoms: C6_13  and  N2_6 
REMARK       I    between atoms: C10_17  and  N3_7 
REMARK    5  A    between atoms: C5_12  and  C7_14 
REMARK    6  A    between atoms: C10_17  and  C6_13 
ROOT
HETATM    1  O1  UNK     1      15.823   6.122  10.536  1.00  0.00    -0.275 OA
HETATM    2  O4  UNK     1      16.004   4.013   9.671  1.00  0.00    -0.260 OA
HETATM    3  C7  UNK     1      13.563   6.501   8.875  1.00  0.00    -0.011 A 
HETATM    4  C8  UNK     1      14.018   7.578   9.765  1.00  0.00     0.009 A 
HETATM    5  C9  UNK     1      14.234   5.340   8.865  1.00  0.00     0.092 A 
HETATM    6  C11 UNK     1      15.137   7.353  10.568  1.00  0.00     0.090 A 
HETATM    7  C12 UNK     1      13.393   8.828   9.857  1.00  0.00     0.051 A 
HETATM    8  C13 UNK     1      15.416   5.088   9.707  1.00  0.00     0.288 A 
HETATM    9  C14 UNK     1      15.635   8.323  11.441  1.00  0.00     0.041 A 
HETATM   10  C15 UNK     1      13.881   9.810  10.728  1.00  0.00     0.069 A 
HETATM   11  C16 UNK     1      15.001   9.558  11.517  1.00  0.00     0.039 A 
ENDROOT
BRANCH   3  12
HETATM   12  C5  UNK     1      12.373   6.709   8.005  1.00  0.00     0.312 C 
BRANCH  12  13
HETATM   13  N1  UNK     1      11.120   6.488   8.724  1.00  0.00     0.096 N 
HETATM   14  C1  UNK     1      10.981   5.078   9.108  1.00  0.00     0.303 C 
HETATM   15  C3  UNK     1       9.665   4.843   9.859  1.00  0.00     0.303 C 
HETATM   16  N2  UNK     1       8.518   5.268   9.049  1.00  0.00     0.100 N 
HETATM   17  C4  UNK     1       8.656   6.679   8.666  1.00  0.00     0.303 C 
HETATM   18  C2  UNK     1       9.972   6.914   7.915  1.00  0.00     0.303 C 
BRANCH  16  19
HETATM   19  C6  UNK     1       7.264   5.045   9.766  1.00  0.00     0.374 C 
BRANCH  19  20
HETATM   20  C10 UNK     1       6.864   3.600   9.575  1.00  0.00     0.243 C 
HETATM   21  O2  UNK     1       6.712   3.085   8.470  1.00  0.00    -0.272 OA
HETATM   22  N3  UNK     1       6.672   2.928  10.761  1.00  0.00    -0.369 N 
HETATM   23  H17 UNK     1       6.792   3.372  11.665  1.00  0.00     0.159 HD
HETATM   24  H18 UNK     1       6.396   1.952  10.768  1.00  0.00     0.159 HD
ENDBRANCH  19  20
ENDBRANCH  16  19
ENDBRANCH  12  13
ENDBRANCH   3  12
BRANCH  10  25
HETATM   25  O3  UNK     1      13.258  11.019  10.802  1.00  0.00    -0.351 OA
BRANCH  25  26
HETATM   26  C17 UNK     1      11.858  11.010  11.082  1.00  0.00     0.171 C 
HETATM   27  C18 UNK     1      11.650  10.675  12.543  1.00  0.00     0.034 C 
ENDBRANCH  25  26
ENDBRANCH  10  25
TORSDOF 6
ENDMDL
MODEL 8
REMARK VINA RESULT:      -7.1     28.115     30.373
REMARK  6 active torsions:
REMARK  status: ('A' for Active; 'I' for Inactive)
REMARK    1  A    between atoms: C15_22  and  O3_3 
REMARK    2  A    between atoms: C17_24  and  O3_3 
REMARK    3  A    between atoms: C5_12  and  N1_5 
REMARK    4  A    between atoms: C6_13  and  N2_6 
REMARK       I    between atoms: C10_17  and  N3_7 
REMARK    5  A    between atoms: C5_12  and  C7_14 
REMARK    6  A    between atoms: C10_17  and  C6_13 
ROOT
HETATM    1  O1  UNK     1       7.245   6.354   9.302  1.00  0.00    -0.275 OA
HETATM    2  O4  UNK     1       7.450   4.482   8.006  1.00  0.00    -0.260 OA
HETATM    3  C7  UNK     1       9.784   7.168   8.354  1.00  0.00    -0.011 A 
HETATM    4  C8  UNK     1       9.043   8.007   9.307  1.00  0.00     0.009 A 
HETATM    5  C9  UNK     1       9.236   6.015   7.943  1.00  0.00     0.092 A 
HETATM    6  C11 UNK     1       7.794   7.571   9.752  1.00  0.00     0.090 A 
HETATM    7  C12 UNK     1       9.519   9.229   9.800  1.00  0.00     0.051 A 
HETATM    8  C13 UNK     1       7.919   5.543   8.404  1.00  0.00     0.288 A 
HETATM    9  C14 UNK     1       7.027   8.307  10.656  1.00  0.00     0.041 A 
HETATM   10  C15 UNK     1       8.760   9.979  10.708  1.00  0.00     0.069 A 
HETATM   11  C16 UNK     1       7.517   9.518  11.135  1.00  0.00     0.039 A 
ENDROOT
BRANCH   3  12
HETATM   12  C5  UNK     1      11.119   7.605   7.860  1.00  0.00     0.312 C 
BRANCH  12  13
HETATM   13  N1  UNK     1      12.195   7.227   8.773  1.00  0.00     0.096 N 
HETATM   14  C1  UNK     1      12.972   8.405   9.179  1.00  0.00     0.303 C 
HETATM   15  C3  UNK     1      14.105   8.010  10.134  1.00  0.00     0.303 C 
HETATM   16  N2  UNK     1      14.980   7.005   9.519  1.00  0.00     0.100 N 
HETATM   17  C4  UNK     1      14.203   5.827   9.114  1.00  0.00     0.303 C 
HETATM   18  C2  UNK     1      13.071   6.222   8.159  1.00  0.00     0.303 C 
BRANCH  16  19
HETATM   19  C6  UNK     1      16.059   6.628  10.431  1.00  0.00     0.374 C 
BRANCH  19  20
HETATM   20  C10 UNK     1      17.349   7.205   9.896  1.00  0.00     0.243 C 
HETATM   21  O2  UNK     1      17.624   8.401   9.949  1.00  0.00    -0.272 OA
HETATM   22  N3  UNK     1      18.174   6.259   9.331  1.00  0.00    -0.369 N 
HETATM   23  H17 UNK     1      17.927   5.276   9.286  1.00  0.00     0.159 HD
HETATM   24  H18 UNK     1      19.070   6.520   8.931  1.00  0.00     0.159 HD
ENDBRANCH  19  20
ENDBRANCH  16  19
ENDBRANCH  12  13
ENDBRANCH   3  12
BRANCH  10  25
HETATM   25  O3  UNK     1       9.240  11.164  11.175  1.00  0.00    -0.351 OA
BRANCH  25  26
HETATM   26  C17 UNK     1      10.335  11.745  10.466  1.00  0.00     0.171 C 
HETATM   27  C18 UNK     1       9.828  12.917   9.653  1.00  0.00     0.034 C 
ENDBRANCH  25  26
ENDBRANCH  10  25
TORSDOF 6
ENDMDL
MODEL 9
REMARK VINA RESULT:      -7.1     11.188     12.837
REMARK  6 active torsions:
REMARK  status: ('A' for Active; 'I' for Inactive)
REMARK    1  A    between atoms: C15_22  and  O3_3 
REMARK    2  A    between atoms: C17_24  and  O3_3 
REMARK    3  A    between atoms: C5_12  and  N1_5 
REMARK    4  A    between atoms: C6_13  and  N2_6 
REMARK       I    between atoms: C10_17  and  N3_7 
REMARK    5  A    between atoms: C5_12  and  C7_14 
REMARK    6  A    between atoms: C10_17  and  C6_13 
ROOT
HETATM    1  O1  UNK     1      29.068  -6.662  37.402  1.00  0.00    -0.275 OA
HETATM    2  O4  UNK     1      26.975  -7.337  36.774  1.00  0.00    -0.260 OA
HETATM    3  C7  UNK     1      29.661  -6.288  34.660  1.00  0.00    -0.011 A 
HETATM    4  C8  UNK     1      30.676  -6.004  35.684  1.00  0.00     0.009 A 
HETATM    5  C9  UNK     1      28.454  -6.723  35.047  1.00  0.00     0.092 A 
HETATM    6  C11 UNK     1      30.346  -6.202  37.026  1.00  0.00     0.090 A 
HETATM    7  C12 UNK     1      31.967  -5.544  35.394  1.00  0.00     0.051 A 
HETATM    8  C13 UNK     1      28.090  -6.937  36.458  1.00  0.00     0.288 A 
HETATM    9  C14 UNK     1      31.251  -5.958  38.060  1.00  0.00     0.041 A 
HETATM   10  C15 UNK     1      32.886  -5.294  36.421  1.00  0.00     0.069 A 
HETATM   11  C16 UNK     1      32.528  -5.502  37.751  1.00  0.00     0.039 A 
ENDROOT
BRANCH   3  12
HETATM   12  C5  UNK     1      29.982  -6.086  33.220  1.00  0.00     0.312 C 
BRANCH  12  13
HETATM   13  N1  UNK     1      29.211  -6.975  32.354  1.00  0.00     0.096 N 
HETATM   14  C1  UNK     1      30.000  -8.156  31.984  1.00  0.00     0.303 C 
HETATM   15  C3  UNK     1      29.193  -9.089  31.072  1.00  0.00     0.303 C 
HETATM   16  N2  UNK     1      28.739  -8.379  29.871  1.00  0.00     0.100 N 
HETATM   17  C4  UNK     1      27.949  -7.198  30.241  1.00  0.00     0.303 C 
HETATM   18  C2  UNK     1      28.755  -6.266  31.152  1.00  0.00     0.303 C 
BRANCH  16  19
HETATM   19  C6  UNK     1      27.969  -9.268  29.002  1.00  0.00     0.374 C 
BRANCH  19  20
HETATM   20  C10 UNK     1      28.939 -10.177  28.282  1.00  0.00     0.243 C 
HETATM   21  O2  UNK     1      29.822  -9.761  27.536  1.00  0.00    -0.272 OA
HETATM   22  N3  UNK     1      28.721 -11.512  28.534  1.00  0.00    -0.369 N 
HETATM   23  H17 UNK     1      27.980 -11.839  29.145  1.00  0.00     0.159 HD
HETATM   24  H18 UNK     1      29.303 -12.226  28.106  1.00  0.00     0.159 HD
ENDBRANCH  19  20
ENDBRANCH  16  19
ENDBRANCH  12  13
ENDBRANCH   3  12
BRANCH  10  25
HETATM   25  O3  UNK     1      34.136  -4.846  36.117  1.00  0.00    -0.351 OA
BRANCH  25  26
HETATM   26  C17 UNK     1      35.229  -5.706  36.438  1.00  0.00     0.171 C 
HETATM   27  C18 UNK     1      35.635  -6.470  35.196  1.00  0.00     0.034 C 
ENDBRANCH  25  26
ENDBRANCH  10  25
TORSDOF 6
ENDMDL
MODEL 10
REMARK VINA RESULT:      -7.1     11.274     13.270
REMARK  6 active torsions:
REMARK  status: ('A' for Active; 'I' for Inactive)
REMARK    1  A    between atoms: C15_22  and  O3_3 
REMARK    2  A    between atoms: C17_24  and  O3_3 
REMARK    3  A    between atoms: C5_12  and  N1_5 
REMARK    4  A    between atoms: C6_13  and  N2_6 
REMARK       I    between atoms: C10_17  and  N3_7 
REMARK    5  A    between atoms: C5_12  and  C7_14 
REMARK    6  A    between atoms: C10_17  and  C6_13 
ROOT
HETATM    1  O1  UNK     1      32.559  -3.988  35.935  1.00  0.00    -0.275 OA
HETATM    2  O4  UNK     1      34.336  -3.957  34.496  1.00  0.00    -0.260 OA
HETATM    3  C7  UNK     1      31.806  -6.465  34.793  1.00  0.00    -0.011 A 
HETATM    4  C8  UNK     1      31.006  -5.873  35.874  1.00  0.00     0.009 A 
HETATM    5  C9  UNK     1      32.895  -5.814  34.361  1.00  0.00     0.092 A 
HETATM    6  C11 UNK     1      31.410  -4.649  36.411  1.00  0.00     0.090 A 
HETATM    7  C12 UNK     1      29.852  -6.466  36.403  1.00  0.00     0.051 A 
HETATM    8  C13 UNK     1      33.334  -4.523  34.918  1.00  0.00     0.288 A 
HETATM    9  C14 UNK     1      30.706  -4.018  37.439  1.00  0.00     0.041 A 
HETATM   10  C15 UNK     1      29.136  -5.844  37.434  1.00  0.00     0.069 A 
HETATM   11  C16 UNK     1      29.563  -4.623  37.950  1.00  0.00     0.039 A 
ENDROOT
BRANCH   3  12
HETATM   12  C5  UNK     1      31.402  -7.769  34.199  1.00  0.00     0.312 C 
BRANCH  12  13
HETATM   13  N1  UNK     1      30.932  -7.626  32.823  1.00  0.00     0.096 N 
HETATM   14  C1  UNK     1      29.574  -8.163  32.677  1.00  0.00     0.303 C 
HETATM   15  C3  UNK     1      29.081  -8.017  31.232  1.00  0.00     0.303 C 
HETATM   16  N2  UNK     1      29.997  -8.682  30.298  1.00  0.00     0.100 N 
HETATM   17  C4  UNK     1      31.356  -8.145  30.443  1.00  0.00     0.303 C 
HETATM   18  C2  UNK     1      31.848  -8.291  31.887  1.00  0.00     0.303 C 
BRANCH  16  19
HETATM   19  C6  UNK     1      29.528  -8.541  28.921  1.00  0.00     0.374 C 
BRANCH  19  20
HETATM   20  C10 UNK     1      29.774  -9.849  28.205  1.00  0.00     0.243 C 
HETATM   21  O2  UNK     1      30.663 -10.003  27.371  1.00  0.00    -0.272 OA
HETATM   22  N3  UNK     1      28.892 -10.842  28.568  1.00  0.00    -0.369 N 
HETATM   23  H17 UNK     1      28.156 -10.695  29.251  1.00  0.00     0.159 HD
HETATM   24  H18 UNK     1      28.949 -11.767  28.155  1.00  0.00     0.159 HD
ENDBRANCH  19  20
ENDBRANCH  16  19
ENDBRANCH  12  13
ENDBRANCH   3  12
BRANCH  10  25
HETATM   25  O3  UNK     1      28.018  -6.438  37.935  1.00  0.00    -0.351 OA
BRANCH  25  26
HETATM   26  C17 UNK     1      28.065  -6.866  39.296  1.00  0.00     0.171 C 
HETATM   27  C18 UNK     1      27.852  -8.364  39.348  1.00  0.00     0.034 C 
ENDBRANCH  25  26
ENDBRANCH  10  25
TORSDOF 6
ENDMDL
