MODEL 1
REMARK VINA RESULT:      -9.4      0.000      0.000
REMARK  5 active torsions:
REMARK  status: ('A' for Active; 'I' for Inactive)
REMARK    1  A    between atoms: C12_16  and  O1_1 
REMARK    2  A    between atoms: C3_7  and  O1_1 
REMARK    3  A    between atoms: C1_5  and  C6_10 
REMARK    4  A    between atoms: C12_16  and  C14_18 
REMARK    5  A    between atoms: C14_18  and  C15_19 
ROOT
HETATM    1  O2  UNK     1      15.853   6.753  32.951  1.00  0.00    -0.275 OA
HETATM    2  O3  UNK     1      14.328   7.966  34.147  1.00  0.00    -0.260 OA
HETATM    3  C1  UNK     1      19.786   6.039  31.753  1.00  0.00    -0.024 A 
HETATM    4  C2  UNK     1      18.214   7.374  33.047  1.00  0.00     0.005 A 
HETATM    5  C3  UNK     1      18.748   5.230  31.294  1.00  0.00     0.078 A 
HETATM    6  C4  UNK     1      19.522   7.103  32.622  1.00  0.00     0.024 A 
HETATM    7  C5  UNK     1      17.195   6.547  32.572  1.00  0.00     0.092 A 
HETATM    8  C7  UNK     1      17.862   8.471  33.958  1.00  0.00    -0.043 A 
HETATM    9  C8  UNK     1      17.442   5.482  31.704  1.00  0.00     0.075 A 
HETATM   10  C10 UNK     1      16.578   8.643  34.302  1.00  0.00     0.090 A 
HETATM   11  C11 UNK     1      18.935   9.377  34.488  1.00  0.00     0.049 C 
HETATM   12  C13 UNK     1      15.492   7.779  33.809  1.00  0.00     0.288 A 
ENDROOT
BRANCH   5  13
HETATM   13  O1  UNK     1      18.993   4.192  30.447  1.00  0.00    -0.343 OA
BRANCH  13  14
HETATM   14  C12 UNK     1      18.123   3.065  30.532  1.00  0.00     0.259 C 
BRANCH  14  15
HETATM   15  C14 UNK     1      18.389   2.116  29.380  1.00  0.00     0.183 C 
HETATM   16  O4  UNK     1      18.072   2.395  28.226  1.00  0.00    -0.290 OA
BRANCH  15  17
HETATM   17  C15 UNK     1      19.054   0.812  29.666  1.00  0.00     0.012 A 
HETATM   18  C16 UNK     1      19.419   0.010  28.608  1.00  0.00     0.016 A 
HETATM   19  C19 UNK     1      20.041  -1.209  28.876  1.00  0.00     0.007 A 
HETATM   20  C18 UNK     1      20.283  -1.594  30.195  1.00  0.00    -0.062 A 
HETATM   21  C20 UNK     1      19.902  -0.760  31.246  1.00  0.00     0.007 A 
HETATM   22  C21 UNK     1      20.949  -2.898  30.481  1.00  0.00     0.048 C 
HETATM   23  C17 UNK     1      19.279   0.459  30.978  1.00  0.00     0.016 A 
ENDBRANCH  15  17
ENDBRANCH  14  15
ENDBRANCH  13  14
ENDBRANCH   5  13
BRANCH   3  24
HETATM   24  C6  UNK     1      21.194   5.784  31.323  1.00  0.00     0.037 C 
HETATM   25  C9  UNK     1      22.198   6.067  32.437  1.00  0.00     0.010 C 
ENDBRANCH   3  24
TORSDOF 5
ENDMDL
MODEL 2
REMARK VINA RESULT:      -8.9      3.660      7.804
REMARK  5 active torsions:
REMARK  status: ('A' for Active; 'I' for Inactive)
REMARK    1  A    between atoms: C12_16  and  O1_1 
REMARK    2  A    between atoms: C3_7  and  O1_1 
REMARK    3  A    between atoms: C1_5  and  C6_10 
REMARK    4  A    between atoms: C12_16  and  C14_18 
REMARK    5  A    between atoms: C14_18  and  C15_19 
ROOT
HETATM    1  O2  UNK     1      17.749   0.034  35.690  1.00  0.00    -0.275 OA
HETATM    2  O3  UNK     1      17.229   0.098  37.916  1.00  0.00    -0.260 OA
HETATM    3  C1  UNK     1      19.786  -1.699  32.487  1.00  0.00    -0.024 A 
HETATM    4  C2  UNK     1      19.278  -1.686  34.868  1.00  0.00     0.005 A 
HETATM    5  C3  UNK     1      18.958  -0.597  32.286  1.00  0.00     0.078 A 
HETATM    6  C4  UNK     1      19.946  -2.241  33.768  1.00  0.00     0.024 A 
HETATM    7  C5  UNK     1      18.455  -0.582  34.637  1.00  0.00     0.092 A 
HETATM    8  C7  UNK     1      19.396  -2.199  36.239  1.00  0.00    -0.043 A 
HETATM    9  C8  UNK     1      18.287  -0.031  33.365  1.00  0.00     0.075 A 
HETATM   10  C10 UNK     1      18.712  -1.594  37.221  1.00  0.00     0.090 A 
HETATM   11  C11 UNK     1      20.271  -3.386  36.521  1.00  0.00     0.049 C 
HETATM   12  C13 UNK     1      17.841  -0.429  36.993  1.00  0.00     0.288 A 
ENDROOT
BRANCH   5  13
HETATM   13  O1  UNK     1      18.797  -0.062  31.045  1.00  0.00    -0.343 OA
BRANCH  13  14
HETATM   14  C12 UNK     1      19.467   1.169  30.775  1.00  0.00     0.259 C 
BRANCH  14  15
HETATM   15  C14 UNK     1      18.458   2.240  30.411  1.00  0.00     0.183 C 
HETATM   16  O4  UNK     1      17.566   2.035  29.591  1.00  0.00    -0.290 OA
BRANCH  15  17
HETATM   17  C15 UNK     1      18.560   3.574  31.071  1.00  0.00     0.012 A 
HETATM   18  C16 UNK     1      18.124   3.704  32.370  1.00  0.00     0.016 A 
HETATM   19  C19 UNK     1      18.220   4.951  32.987  1.00  0.00     0.007 A 
HETATM   20  C18 UNK     1      18.751   6.035  32.288  1.00  0.00    -0.062 A 
HETATM   21  C20 UNK     1      19.186   5.872  30.973  1.00  0.00     0.007 A 
HETATM   22  C21 UNK     1      18.854   7.369  32.948  1.00  0.00     0.048 C 
HETATM   23  C17 UNK     1      19.089   4.625  30.356  1.00  0.00     0.016 A 
ENDBRANCH  15  17
ENDBRANCH  14  15
ENDBRANCH  13  14
ENDBRANCH   5  13
BRANCH   3  24
HETATM   24  C6  UNK     1      20.516  -2.320  31.341  1.00  0.00     0.037 C 
HETATM   25  C9  UNK     1      21.212  -3.620  31.734  1.00  0.00     0.010 C 
ENDBRANCH   3  24
TORSDOF 5
ENDMDL
MODEL 3
REMARK VINA RESULT:      -8.9      2.651      8.563
REMARK  5 active torsions:
REMARK  status: ('A' for Active; 'I' for Inactive)
REMARK    1  A    between atoms: C12_16  and  O1_1 
REMARK    2  A    between atoms: C3_7  and  O1_1 
REMARK    3  A    between atoms: C1_5  and  C6_10 
REMARK    4  A    between atoms: C12_16  and  C14_18 
REMARK    5  A    between atoms: C14_18  and  C15_19 
ROOT
HETATM    1  O2  UNK     1      19.614  -1.386  33.707  1.00  0.00    -0.275 OA
HETATM    2  O3  UNK     1      20.581  -3.384  34.254  1.00  0.00    -0.260 OA
HETATM    3  C1  UNK     1      18.692   1.548  30.886  1.00  0.00    -0.024 A 
HETATM    4  C2  UNK     1      19.746  -0.586  31.402  1.00  0.00     0.005 A 
HETATM    5  C3  UNK     1      18.285   1.687  32.211  1.00  0.00     0.078 A 
HETATM    6  C4  UNK     1      19.417   0.420  30.483  1.00  0.00     0.024 A 
HETATM    7  C5  UNK     1      19.324  -0.420  32.722  1.00  0.00     0.092 A 
HETATM    8  C7  UNK     1      20.503  -1.795  31.053  1.00  0.00    -0.043 A 
HETATM    9  C8  UNK     1      18.601   0.699  33.139  1.00  0.00     0.075 A 
HETATM   10  C10 UNK     1      20.763  -2.697  32.010  1.00  0.00     0.090 A 
HETATM   11  C11 UNK     1      20.969  -2.005  29.641  1.00  0.00     0.049 C 
HETATM   12  C13 UNK     1      20.326  -2.536  33.406  1.00  0.00     0.288 A 
ENDROOT
BRANCH   5  13
HETATM   13  O1  UNK     1      17.580   2.780  32.614  1.00  0.00    -0.343 OA
BRANCH  13  14
HETATM   14  C12 UNK     1      18.295   3.788  33.327  1.00  0.00     0.259 C 
BRANCH  14  15
HETATM   15  C14 UNK     1      17.830   5.163  32.891  1.00  0.00     0.183 C 
HETATM   16  O4  UNK     1      16.848   5.313  32.167  1.00  0.00    -0.290 OA
BRANCH  15  17
HETATM   17  C15 UNK     1      18.590   6.358  33.357  1.00  0.00     0.012 A 
HETATM   18  C16 UNK     1      19.924   6.461  33.031  1.00  0.00     0.016 A 
HETATM   19  C19 UNK     1      20.634   7.579  33.467  1.00  0.00     0.007 A 
HETATM   20  C18 UNK     1      19.992   8.565  34.217  1.00  0.00    -0.062 A 
HETATM   21  C20 UNK     1      18.640   8.432  34.531  1.00  0.00     0.007 A 
HETATM   22  C21 UNK     1      20.752   9.761  34.683  1.00  0.00     0.048 C 
HETATM   23  C17 UNK     1      17.929   7.313  34.095  1.00  0.00     0.016 A 
ENDBRANCH  15  17
ENDBRANCH  14  15
ENDBRANCH  13  14
ENDBRANCH   5  13
BRANCH   3  24
HETATM   24  C6  UNK     1      18.363   2.598  29.876  1.00  0.00     0.037 C 
HETATM   25  C9  UNK     1      17.903   2.001  28.550  1.00  0.00     0.010 C 
ENDBRANCH   3  24
TORSDOF 5
ENDMDL
MODEL 4
REMARK VINA RESULT:      -8.9      2.293      8.325
REMARK  5 active torsions:
REMARK  status: ('A' for Active; 'I' for Inactive)
REMARK    1  A    between atoms: C12_16  and  O1_1 
REMARK    2  A    between atoms: C3_7  and  O1_1 
REMARK    3  A    between atoms: C1_5  and  C6_10 
REMARK    4  A    between atoms: C12_16  and  C14_18 
REMARK    5  A    between atoms: C14_18  and  C15_19 
ROOT
HETATM    1  O2  UNK     1      18.519   0.523  33.145  1.00  0.00    -0.275 OA
HETATM    2  O3  UNK     1      18.919  -1.697  33.520  1.00  0.00    -0.260 OA
HETATM    3  C1  UNK     1      18.680   3.869  30.657  1.00  0.00    -0.024 A 
HETATM    4  C2  UNK     1      19.136   1.501  30.993  1.00  0.00     0.005 A 
HETATM    5  C3  UNK     1      18.143   3.965  31.940  1.00  0.00     0.078 A 
HETATM    6  C4  UNK     1      19.173   2.646  30.186  1.00  0.00     0.024 A 
HETATM    7  C5  UNK     1      18.593   1.627  32.273  1.00  0.00     0.092 A 
HETATM    8  C7  UNK     1      19.633   0.186  30.567  1.00  0.00    -0.043 A 
HETATM    9  C8  UNK     1      18.098   2.839  32.756  1.00  0.00     0.075 A 
HETATM   10  C10 UNK     1      19.550  -0.847  31.418  1.00  0.00     0.090 A 
HETATM   11  C11 UNK     1      20.221   0.016  29.196  1.00  0.00     0.049 C 
HETATM   12  C13 UNK     1      18.980  -0.729  32.770  1.00  0.00     0.288 A 
ENDROOT
BRANCH   5  13
HETATM   13  O1  UNK     1      17.662   5.149  32.408  1.00  0.00    -0.343 OA
BRANCH  13  14
HETATM   14  C12 UNK     1      18.039   5.526  33.731  1.00  0.00     0.259 C 
BRANCH  14  15
HETATM   15  C14 UNK     1      19.242   6.448  33.686  1.00  0.00     0.183 C 
HETATM   16  O4  UNK     1      20.382   6.015  33.531  1.00  0.00    -0.290 OA
BRANCH  15  17
HETATM   17  C15 UNK     1      19.025   7.916  33.835  1.00  0.00     0.012 A 
HETATM   18  C16 UNK     1      20.074   8.699  34.264  1.00  0.00     0.016 A 
HETATM   19  C19 UNK     1      19.871  10.071  34.402  1.00  0.00     0.007 A 
HETATM   20  C18 UNK     1      18.625  10.626  34.107  1.00  0.00    -0.062 A 
HETATM   21  C20 UNK     1      17.582   9.807  33.674  1.00  0.00     0.007 A 
HETATM   22  C21 UNK     1      18.409  12.094  34.255  1.00  0.00     0.048 C 
HETATM   23  C17 UNK     1      17.785   8.434  33.537  1.00  0.00     0.016 A 
ENDBRANCH  15  17
ENDBRANCH  14  15
ENDBRANCH  13  14
ENDBRANCH   5  13
BRANCH   3  24
HETATM   24  C6  UNK     1      18.738   5.067  29.767  1.00  0.00     0.037 C 
HETATM   25  C9  UNK     1      19.959   5.938  30.048  1.00  0.00     0.010 C 
ENDBRANCH   3  24
TORSDOF 5
ENDMDL
MODEL 5
REMARK VINA RESULT:      -8.8      2.416      8.347
REMARK  5 active torsions:
REMARK  status: ('A' for Active; 'I' for Inactive)
REMARK    1  A    between atoms: C12_16  and  O1_1 
REMARK    2  A    between atoms: C3_7  and  O1_1 
REMARK    3  A    between atoms: C1_5  and  C6_10 
REMARK    4  A    between atoms: C12_16  and  C14_18 
REMARK    5  A    between atoms: C14_18  and  C15_19 
ROOT
HETATM    1  O2  UNK     1      19.310  -0.597  32.934  1.00  0.00    -0.275 OA
HETATM    2  O3  UNK     1      20.097  -2.731  33.168  1.00  0.00    -0.260 OA
HETATM    3  C1  UNK     1      18.666   2.797  30.593  1.00  0.00    -0.024 A 
HETATM    4  C2  UNK     1      19.527   0.526  30.776  1.00  0.00     0.005 A 
HETATM    5  C3  UNK     1      18.262   2.769  31.927  1.00  0.00     0.078 A 
HETATM    6  C4  UNK     1      19.293   1.684  30.021  1.00  0.00     0.024 A 
HETATM    7  C5  UNK     1      19.112   0.528  32.108  1.00  0.00     0.092 A 
HETATM    8  C7  UNK     1      20.179  -0.678  30.243  1.00  0.00    -0.043 A 
HETATM    9  C8  UNK     1      18.485   1.629  32.693  1.00  0.00     0.075 A 
HETATM   10  C10 UNK     1      20.353  -1.733  31.052  1.00  0.00     0.090 A 
HETATM   11  C11 UNK     1      20.635  -0.712  28.814  1.00  0.00     0.049 C 
HETATM   12  C13 UNK     1      19.921  -1.747  32.459  1.00  0.00     0.288 A 
ENDROOT
BRANCH   5  13
HETATM   13  O1  UNK     1      17.651   3.846  32.494  1.00  0.00    -0.343 OA
BRANCH  13  14
HETATM   14  C12 UNK     1      18.197   4.332  33.719  1.00  0.00     0.259 C 
BRANCH  14  15
HETATM   15  C14 UNK     1      18.648   5.769  33.553  1.00  0.00     0.183 C 
HETATM   16  O4  UNK     1      19.839   6.074  33.529  1.00  0.00    -0.290 OA
BRANCH  15  17
HETATM   17  C15 UNK     1      17.613   6.834  33.416  1.00  0.00     0.012 A 
HETATM   18  C16 UNK     1      17.272   7.266  32.155  1.00  0.00     0.016 A 
HETATM   19  C19 UNK     1      16.303   8.261  32.028  1.00  0.00     0.007 A 
HETATM   20  C18 UNK     1      15.699   8.797  33.166  1.00  0.00    -0.062 A 
HETATM   21  C20 UNK     1      16.066   8.338  34.431  1.00  0.00     0.007 A 
HETATM   22  C21 UNK     1      14.663   9.861  33.029  1.00  0.00     0.048 C 
HETATM   23  C17 UNK     1      17.035   7.343  34.558  1.00  0.00     0.016 A 
ENDBRANCH  15  17
ENDBRANCH  14  15
ENDBRANCH  13  14
ENDBRANCH   5  13
BRANCH   3  24
HETATM   24  C6  UNK     1      18.436   4.011  29.755  1.00  0.00     0.037 C 
HETATM   25  C9  UNK     1      19.464   5.105  30.028  1.00  0.00     0.010 C 
ENDBRANCH   3  24
TORSDOF 5
ENDMDL
MODEL 6
REMARK VINA RESULT:      -8.7      2.203      8.616
REMARK  5 active torsions:
REMARK  status: ('A' for Active; 'I' for Inactive)
REMARK    1  A    between atoms: C12_16  and  O1_1 
REMARK    2  A    between atoms: C3_7  and  O1_1 
REMARK    3  A    between atoms: C1_5  and  C6_10 
REMARK    4  A    between atoms: C12_16  and  C14_18 
REMARK    5  A    between atoms: C14_18  and  C15_19 
ROOT
HETATM    1  O2  UNK     1      19.401   0.907  29.434  1.00  0.00    -0.275 OA
HETATM    2  O3  UNK     1      20.236  -0.601  27.931  1.00  0.00    -0.260 OA
HETATM    3  C1  UNK     1      18.306   1.921  33.331  1.00  0.00    -0.024 A 
HETATM    4  C2  UNK     1      19.200   0.267  31.783  1.00  0.00     0.005 A 
HETATM    5  C3  UNK     1      18.162   2.839  32.293  1.00  0.00     0.078 A 
HETATM    6  C4  UNK     1      18.821   0.644  33.079  1.00  0.00     0.024 A 
HETATM    7  C5  UNK     1      19.044   1.208  30.764  1.00  0.00     0.092 A 
HETATM    8  C7  UNK     1      19.747  -1.053  31.444  1.00  0.00    -0.043 A 
HETATM    9  C8  UNK     1      18.531   2.484  30.999  1.00  0.00     0.075 A 
HETATM   10  C10 UNK     1      20.078  -1.311  30.170  1.00  0.00     0.090 A 
HETATM   11  C11 UNK     1      19.929  -2.087  32.517  1.00  0.00     0.049 C 
HETATM   12  C13 UNK     1      19.920  -0.330  29.085  1.00  0.00     0.288 A 
ENDROOT
BRANCH   5  13
HETATM   13  O1  UNK     1      17.661   4.084  32.527  1.00  0.00    -0.343 OA
BRANCH  13  14
HETATM   14  C12 UNK     1      18.465   5.193  32.128  1.00  0.00     0.259 C 
BRANCH  14  15
HETATM   15  C14 UNK     1      19.090   5.846  33.345  1.00  0.00     0.183 C 
HETATM   16  O4  UNK     1      19.753   5.201  34.155  1.00  0.00    -0.290 OA
BRANCH  15  17
HETATM   17  C15 UNK     1      18.890   7.308  33.555  1.00  0.00     0.012 A 
HETATM   18  C16 UNK     1      19.890   8.031  34.166  1.00  0.00     0.016 A 
HETATM   19  C19 UNK     1      19.702   9.399  34.362  1.00  0.00     0.007 A 
HETATM   20  C18 UNK     1      18.521  10.009  33.940  1.00  0.00    -0.062 A 
HETATM   21  C20 UNK     1      17.526   9.250  33.323  1.00  0.00     0.007 A 
HETATM   22  C21 UNK     1      18.321  11.472  34.150  1.00  0.00     0.048 C 
HETATM   23  C17 UNK     1      17.714   7.882  33.128  1.00  0.00     0.016 A 
ENDBRANCH  15  17
ENDBRANCH  14  15
ENDBRANCH  13  14
ENDBRANCH   5  13
BRANCH   3  24
HETATM   24  C6  UNK     1      17.914   2.283  34.726  1.00  0.00     0.037 C 
HETATM   25  C9  UNK     1      19.052   2.073  35.720  1.00  0.00     0.010 C 
ENDBRANCH   3  24
TORSDOF 5
ENDMDL
MODEL 7
REMARK VINA RESULT:      -8.6      5.742      8.079
REMARK  5 active torsions:
REMARK  status: ('A' for Active; 'I' for Inactive)
REMARK    1  A    between atoms: C12_16  and  O1_1 
REMARK    2  A    between atoms: C3_7  and  O1_1 
REMARK    3  A    between atoms: C1_5  and  C6_10 
REMARK    4  A    between atoms: C12_16  and  C14_18 
REMARK    5  A    between atoms: C14_18  and  C15_19 
ROOT
HETATM    1  O2  UNK     1      18.999   0.153  31.265  1.00  0.00    -0.275 OA
HETATM    2  O3  UNK     1      19.289   0.982  29.153  1.00  0.00    -0.260 OA
HETATM    3  C1  UNK     1      18.080   0.728  35.294  1.00  0.00    -0.024 A 
HETATM    4  C2  UNK     1      18.376   1.676  33.071  1.00  0.00     0.005 A 
HETATM    5  C3  UNK     1      18.390  -0.542  34.813  1.00  0.00     0.078 A 
HETATM    6  C4  UNK     1      18.073   1.830  34.431  1.00  0.00     0.024 A 
HETATM    7  C5  UNK     1      18.683   0.392  32.617  1.00  0.00     0.092 A 
HETATM    8  C7  UNK     1      18.389   2.784  32.107  1.00  0.00    -0.043 A 
HETATM    9  C8  UNK     1      18.695  -0.716  33.467  1.00  0.00     0.075 A 
HETATM   10  C10 UNK     1      18.692   2.527  30.826  1.00  0.00     0.090 A 
HETATM   11  C11 UNK     1      18.061   4.176  32.562  1.00  0.00     0.049 C 
HETATM   12  C13 UNK     1      19.018   1.179  30.333  1.00  0.00     0.288 A 
ENDROOT
BRANCH   5  13
HETATM   13  O1  UNK     1      18.401  -1.620  35.645  1.00  0.00    -0.343 OA
BRANCH  13  14
HETATM   14  C12 UNK     1      19.658  -1.997  36.204  1.00  0.00     0.259 C 
BRANCH  14  15
HETATM   15  C14 UNK     1      20.067  -3.363  35.691  1.00  0.00     0.183 C 
HETATM   16  O4  UNK     1      20.433  -3.534  34.530  1.00  0.00    -0.290 OA
BRANCH  15  17
HETATM   17  C15 UNK     1      20.020  -4.523  36.626  1.00  0.00     0.012 A 
HETATM   18  C16 UNK     1      21.026  -4.664  37.556  1.00  0.00     0.016 A 
HETATM   19  C19 UNK     1      20.981  -5.748  38.431  1.00  0.00     0.007 A 
HETATM   20  C18 UNK     1      19.932  -6.664  38.355  1.00  0.00    -0.062 A 
HETATM   21  C20 UNK     1      18.927  -6.495  37.402  1.00  0.00     0.007 A 
HETATM   22  C21 UNK     1      19.884  -7.824  39.291  1.00  0.00     0.048 C 
HETATM   23  C17 UNK     1      18.972  -5.410  36.526  1.00  0.00     0.016 A 
ENDBRANCH  15  17
ENDBRANCH  14  15
ENDBRANCH  13  14
ENDBRANCH   5  13
BRANCH   3  24
HETATM   24  C6  UNK     1      17.752   0.935  36.737  1.00  0.00     0.037 C 
HETATM   25  C9  UNK     1      16.248   0.924  36.995  1.00  0.00     0.010 C 
ENDBRANCH   3  24
TORSDOF 5
ENDMDL
MODEL 8
REMARK VINA RESULT:      -8.5      5.324      8.414
REMARK  5 active torsions:
REMARK  status: ('A' for Active; 'I' for Inactive)
REMARK    1  A    between atoms: C12_16  and  O1_1 
REMARK    2  A    between atoms: C3_7  and  O1_1 
REMARK    3  A    between atoms: C1_5  and  C6_10 
REMARK    4  A    between atoms: C12_16  and  C14_18 
REMARK    5  A    between atoms: C14_18  and  C15_19 
ROOT
HETATM    1  O2  UNK     1      19.804  -0.990  30.492  1.00  0.00    -0.275 OA
HETATM    2  O3  UNK     1      20.272  -0.702  28.273  1.00  0.00    -0.260 OA
HETATM    3  C1  UNK     1      18.371   0.490  34.121  1.00  0.00    -0.024 A 
HETATM    4  C2  UNK     1      18.848   0.865  31.763  1.00  0.00     0.005 A 
HETATM    5  C3  UNK     1      18.839  -0.819  34.025  1.00  0.00     0.078 A 
HETATM    6  C4  UNK     1      18.375   1.326  32.999  1.00  0.00     0.024 A 
HETATM    7  C5  UNK     1      19.312  -0.451  31.698  1.00  0.00     0.092 A 
HETATM    8  C7  UNK     1      18.883   1.684  30.544  1.00  0.00    -0.043 A 
HETATM    9  C8  UNK     1      19.314  -1.296  32.808  1.00  0.00     0.075 A 
HETATM   10  C10 UNK     1      19.356   1.144  29.412  1.00  0.00     0.090 A 
HETATM   11  C11 UNK     1      18.391   3.101  30.581  1.00  0.00     0.049 C 
HETATM   12  C13 UNK     1      19.848  -0.241  29.327  1.00  0.00     0.288 A 
ENDROOT
BRANCH   5  13
HETATM   13  O1  UNK     1      18.840  -1.641  35.111  1.00  0.00    -0.343 OA
BRANCH  13  14
HETATM   14  C12 UNK     1      20.071  -2.287  35.436  1.00  0.00     0.259 C 
BRANCH  14  15
HETATM   15  C14 UNK     1      19.940  -3.021  36.756  1.00  0.00     0.183 C 
HETATM   16  O4  UNK     1      19.511  -2.465  37.764  1.00  0.00    -0.290 OA
BRANCH  15  17
HETATM   17  C15 UNK     1      20.344  -4.455  36.821  1.00  0.00     0.012 A 
HETATM   18  C16 UNK     1      21.193  -4.857  37.827  1.00  0.00     0.016 A 
HETATM   19  C19 UNK     1      21.570  -6.199  37.887  1.00  0.00     0.007 A 
HETATM   20  C18 UNK     1      21.087  -7.103  36.941  1.00  0.00    -0.062 A 
HETATM   21  C20 UNK     1      20.227  -6.665  35.934  1.00  0.00     0.007 A 
HETATM   22  C21 UNK     1      21.490  -8.537  37.007  1.00  0.00     0.048 C 
HETATM   23  C17 UNK     1      19.851  -5.323  35.873  1.00  0.00     0.016 A 
ENDBRANCH  15  17
ENDBRANCH  14  15
ENDBRANCH  13  14
ENDBRANCH   5  13
BRANCH   3  24
HETATM   24  C6  UNK     1      17.858   1.020  35.420  1.00  0.00     0.037 C 
HETATM   25  C9  UNK     1      18.891   1.884  36.139  1.00  0.00     0.010 C 
ENDBRANCH   3  24
TORSDOF 5
ENDMDL
MODEL 9
REMARK VINA RESULT:      -8.4      3.246      4.028
REMARK  5 active torsions:
REMARK  status: ('A' for Active; 'I' for Inactive)
REMARK    1  A    between atoms: C12_16  and  O1_1 
REMARK    2  A    between atoms: C3_7  and  O1_1 
REMARK    3  A    between atoms: C1_5  and  C6_10 
REMARK    4  A    between atoms: C12_16  and  C14_18 
REMARK    5  A    between atoms: C14_18  and  C15_19 
ROOT
HETATM    1  O2  UNK     1      15.455   8.495  34.425  1.00  0.00    -0.275 OA
HETATM    2  O3  UNK     1      14.233  10.298  35.121  1.00  0.00    -0.260 OA
HETATM    3  C1  UNK     1      19.034   6.850  33.049  1.00  0.00    -0.024 A 
HETATM    4  C2  UNK     1      17.789   8.812  33.779  1.00  0.00     0.005 A 
HETATM    5  C3  UNK     1      17.913   6.046  33.242  1.00  0.00     0.078 A 
HETATM    6  C4  UNK     1      18.974   8.223  33.315  1.00  0.00     0.024 A 
HETATM    7  C5  UNK     1      16.683   7.981  33.962  1.00  0.00     0.092 A 
HETATM    8  C7  UNK     1      17.652  10.243  34.078  1.00  0.00    -0.043 A 
HETATM    9  C8  UNK     1      16.727   6.611  33.701  1.00  0.00     0.075 A 
HETATM   10  C10 UNK     1      16.472  10.704  34.518  1.00  0.00     0.090 A 
HETATM   11  C11 UNK     1      18.824  11.163  33.893  1.00  0.00     0.049 C 
HETATM   12  C13 UNK     1      15.296   9.841  34.716  1.00  0.00     0.288 A 
ENDROOT
BRANCH   5  13
HETATM   13  O1  UNK     1      17.961   4.709  32.986  1.00  0.00    -0.343 OA
BRANCH  13  14
HETATM   14  C12 UNK     1      18.310   3.852  34.071  1.00  0.00     0.259 C 
BRANCH  14  15
HETATM   15  C14 UNK     1      18.081   2.404  33.684  1.00  0.00     0.183 C 
HETATM   16  O4  UNK     1      17.883   2.071  32.518  1.00  0.00    -0.290 OA
BRANCH  15  17
HETATM   17  C15 UNK     1      18.097   1.365  34.754  1.00  0.00     0.012 A 
HETATM   18  C16 UNK     1      18.253   0.046  34.393  1.00  0.00     0.016 A 
HETATM   19  C19 UNK     1      18.269  -0.924  35.393  1.00  0.00     0.007 A 
HETATM   20  C18 UNK     1      18.130  -0.550  36.730  1.00  0.00    -0.062 A 
HETATM   21  C20 UNK     1      17.975   0.794  37.066  1.00  0.00     0.007 A 
HETATM   22  C21 UNK     1      18.148  -1.589  37.801  1.00  0.00     0.048 C 
HETATM   23  C17 UNK     1      17.958   1.765  36.064  1.00  0.00     0.016 A 
ENDBRANCH  15  17
ENDBRANCH  14  15
ENDBRANCH  13  14
ENDBRANCH   5  13
BRANCH   3  24
HETATM   24  C6  UNK     1      20.316   6.262  32.556  1.00  0.00     0.037 C 
HETATM   25  C9  UNK     1      20.285   5.983  31.057  1.00  0.00     0.010 C 
ENDBRANCH   3  24
TORSDOF 5
ENDMDL
MODEL 10
REMARK VINA RESULT:      -8.4     15.096     17.403
REMARK  5 active torsions:
REMARK  status: ('A' for Active; 'I' for Inactive)
REMARK    1  A    between atoms: C12_16  and  O1_1 
REMARK    2  A    between atoms: C3_7  and  O1_1 
REMARK    3  A    between atoms: C1_5  and  C6_10 
REMARK    4  A    between atoms: C12_16  and  C14_18 
REMARK    5  A    between atoms: C14_18  and  C15_19 
ROOT
HETATM    1  O2  UNK     1      27.812  -4.879  38.455  1.00  0.00    -0.275 OA
HETATM    2  O3  UNK     1      25.580  -5.097  38.903  1.00  0.00    -0.260 OA
HETATM    3  C1  UNK     1      31.595  -6.568  37.956  1.00  0.00    -0.024 A 
HETATM    4  C2  UNK     1      29.229  -6.870  38.444  1.00  0.00     0.005 A 
HETATM    5  C3  UNK     1      31.408  -5.195  37.813  1.00  0.00     0.078 A 
HETATM    6  C4  UNK     1      30.514  -7.400  38.270  1.00  0.00     0.024 A 
HETATM    7  C5  UNK     1      29.072  -5.490  38.295  1.00  0.00     0.092 A 
HETATM    8  C7  UNK     1      28.049  -7.680  38.774  1.00  0.00    -0.043 A 
HETATM    9  C8  UNK     1      30.140  -4.648  37.983  1.00  0.00     0.075 A 
HETATM   10  C10 UNK     1      26.863  -7.071  38.919  1.00  0.00     0.090 A 
HETATM   11  C11 UNK     1      28.183  -9.166  38.939  1.00  0.00     0.049 C 
HETATM   12  C13 UNK     1      26.681  -5.619  38.765  1.00  0.00     0.288 A 
ENDROOT
BRANCH   5  13
HETATM   13  O1  UNK     1      32.453  -4.376  37.509  1.00  0.00    -0.343 OA
BRANCH  13  14
HETATM   14  C12 UNK     1      32.320  -3.557  36.348  1.00  0.00     0.259 C 
BRANCH  14  15
HETATM   15  C14 UNK     1      33.292  -4.013  35.278  1.00  0.00     0.183 C 
HETATM   16  O4  UNK     1      34.321  -3.387  35.031  1.00  0.00    -0.290 OA
BRANCH  15  17
HETATM   17  C15 UNK     1      32.983  -5.253  34.510  1.00  0.00     0.012 A 
HETATM   18  C16 UNK     1      34.025  -6.054  34.100  1.00  0.00     0.016 A 
HETATM   19  C19 UNK     1      33.735  -7.214  33.383  1.00  0.00     0.007 A 
HETATM   20  C18 UNK     1      32.410  -7.544  33.095  1.00  0.00    -0.062 A 
HETATM   21  C20 UNK     1      31.376  -6.712  33.524  1.00  0.00     0.007 A 
HETATM   22  C21 UNK     1      32.100  -8.785  32.328  1.00  0.00     0.048 C 
HETATM   23  C17 UNK     1      31.666  -5.552  34.241  1.00  0.00     0.016 A 
ENDBRANCH  15  17
ENDBRANCH  14  15
ENDBRANCH  13  14
ENDBRANCH   5  13
BRANCH   3  24
HETATM   24  C6  UNK     1      32.949  -7.173  37.779  1.00  0.00     0.037 C 
HETATM   25  C9  UNK     1      32.933  -8.354  36.813  1.00  0.00     0.010 C 
ENDBRANCH   3  24
TORSDOF 5
ENDMDL
