MODEL 1
REMARK VINA RESULT:      -9.0      0.000      0.000
REMARK  7 active torsions:
REMARK  status: ('A' for Active; 'I' for Inactive)
REMARK    1  A    between atoms: C19_26  and  O3_4 
REMARK    2  A    between atoms: C12_19  and  N1_6 
REMARK    3  A    between atoms: C4_11  and  N1_6 
REMARK    4  A    between atoms: C12_19  and  N2_7 
REMARK    5  A    between atoms: C8_15  and  N2_7 
REMARK    6  A    between atoms: C8_15  and  C9_16 
REMARK    7  A    between atoms: C16_23  and  C19_26 
ROOT
HETATM    1  S1  UNK     1      20.779  -0.921  29.771  1.00  0.00    -0.041 SA
HETATM    2  C12 UNK     1      19.697   0.139  30.498  1.00  0.00     0.172 C 
ENDROOT
BRANCH   2   3
HETATM    3  N1  UNK     1      18.683  -0.167  31.423  1.00  0.00    -0.333 N 
HETATM    4  H6  UNK     1      17.783  -0.365  30.993  1.00  0.00     0.168 HD
BRANCH   3   5
HETATM    5  C4  UNK     1      18.711  -0.525  32.771  1.00  0.00     0.036 A 
HETATM    6  C5  UNK     1      19.452  -1.627  33.185  1.00  0.00     0.067 A 
HETATM    7  C2  UNK     1      19.467  -1.968  34.539  1.00  0.00     0.092 A 
HETATM    8  C1  UNK     1      18.763  -1.240  35.498  1.00  0.00     0.004 A 
HETATM    9  O1  UNK     1      20.236  -3.093  34.898  1.00  0.00    -0.275 OA
HETATM   10  C3  UNK     1      18.835  -1.670  36.901  1.00  0.00    -0.043 A 
HETATM   11  C6  UNK     1      18.022  -0.133  35.061  1.00  0.00     0.017 A 
HETATM   12  C10 UNK     1      19.573  -2.744  37.214  1.00  0.00     0.090 A 
HETATM   13  C11 UNK     1      18.088  -0.908  37.958  1.00  0.00     0.049 C 
HETATM   14  C13 UNK     1      20.323  -3.522  36.212  1.00  0.00     0.288 A 
HETATM   15  O2  UNK     1      20.989  -4.500  36.536  1.00  0.00    -0.260 OA
HETATM   16  C7  UNK     1      17.998   0.221  33.708  1.00  0.00     0.030 A 
ENDBRANCH   3   5
ENDBRANCH   2   3
BRANCH   2  17
HETATM   17  N2  UNK     1      19.777   1.474  30.123  1.00  0.00    -0.363 N 
HETATM   18  H11 UNK     1      20.717   1.850  30.030  1.00  0.00     0.162 HD
BRANCH  17  19
HETATM   19  C8  UNK     1      18.674   2.372  29.843  1.00  0.00     0.160 C 
BRANCH  19  20
HETATM   20  C9  UNK     1      18.676   3.566  30.759  1.00  0.00    -0.041 A 
HETATM   21  C14 UNK     1      18.149   3.448  32.038  1.00  0.00     0.010 A 
HETATM   22  C17 UNK     1      18.151   4.555  32.887  1.00  0.00     0.019 A 
HETATM   23  C16 UNK     1      18.682   5.768  32.450  1.00  0.00     0.037 A 
HETATM   24  C18 UNK     1      19.209   5.875  31.162  1.00  0.00     0.019 A 
HETATM   25  C15 UNK     1      19.206   4.769  30.313  1.00  0.00     0.010 A 
BRANCH  23  26
HETATM   26  C19 UNK     1      18.684   6.923  33.334  1.00  0.00     0.176 C 
HETATM   27  O4  UNK     1      18.395   8.077  33.004  1.00  0.00    -0.646 OA
BRANCH  26  28
HETATM   28  O3  UNK     1      19.045   6.602  34.607  1.00  0.00    -0.773 OA
HETATM   29  H16 UNK     1      18.577   5.802  34.928  1.00  0.00     0.167 HD
ENDBRANCH  26  28
ENDBRANCH  23  26
ENDBRANCH  19  20
ENDBRANCH  17  19
ENDBRANCH   2  17
TORSDOF 7
ENDMDL
MODEL 2
REMARK VINA RESULT:      -9.0      1.454      2.101
REMARK  7 active torsions:
REMARK  status: ('A' for Active; 'I' for Inactive)
REMARK    1  A    between atoms: C19_26  and  O3_4 
REMARK    2  A    between atoms: C12_19  and  N1_6 
REMARK    3  A    between atoms: C4_11  and  N1_6 
REMARK    4  A    between atoms: C12_19  and  N2_7 
REMARK    5  A    between atoms: C8_15  and  N2_7 
REMARK    6  A    between atoms: C8_15  and  C9_16 
REMARK    7  A    between atoms: C16_23  and  C19_26 
ROOT
HETATM    1  S1  UNK     1      20.651  -0.584  28.963  1.00  0.00    -0.041 SA
HETATM    2  C12 UNK     1      19.730   0.091  30.194  1.00  0.00     0.172 C 
ENDROOT
BRANCH   2   3
HETATM    3  N1  UNK     1      18.876  -0.572  31.093  1.00  0.00    -0.333 N 
HETATM    4  H6  UNK     1      18.083  -1.025  30.644  1.00  0.00     0.168 HD
BRANCH   3   5
HETATM    5  C4  UNK     1      19.029  -0.975  32.420  1.00  0.00     0.036 A 
HETATM    6  C5  UNK     1      18.290  -0.359  33.425  1.00  0.00     0.067 A 
HETATM    7  C2  UNK     1      18.458  -0.778  34.747  1.00  0.00     0.092 A 
HETATM    8  C1  UNK     1      19.344  -1.797  35.099  1.00  0.00     0.004 A 
HETATM    9  O1  UNK     1      17.683  -0.118  35.721  1.00  0.00    -0.275 OA
HETATM   10  C3  UNK     1      19.456  -2.173  36.514  1.00  0.00    -0.043 A 
HETATM   11  C6  UNK     1      20.079  -2.405  34.071  1.00  0.00     0.017 A 
HETATM   12  C10 UNK     1      18.707  -1.528  37.419  1.00  0.00     0.090 A 
HETATM   13  C11 UNK     1      20.401  -3.265  36.926  1.00  0.00     0.049 C 
HETATM   14  C13 UNK     1      17.767  -0.452  37.063  1.00  0.00     0.288 A 
HETATM   15  O2  UNK     1      17.097   0.116  37.919  1.00  0.00    -0.260 OA
HETATM   16  C7  UNK     1      19.921  -1.996  32.742  1.00  0.00     0.030 A 
ENDBRANCH   3   5
ENDBRANCH   2   3
BRANCH   2  17
HETATM   17  N2  UNK     1      19.779   1.472  30.331  1.00  0.00    -0.363 N 
HETATM   18  H11 UNK     1      20.584   1.837  30.832  1.00  0.00     0.162 HD
BRANCH  17  19
HETATM   19  C8  UNK     1      18.818   2.436  29.830  1.00  0.00     0.160 C 
BRANCH  19  20
HETATM   20  C9  UNK     1      18.697   3.632  30.736  1.00  0.00    -0.041 A 
HETATM   21  C14 UNK     1      18.190   3.469  32.018  1.00  0.00     0.010 A 
HETATM   22  C17 UNK     1      18.078   4.577  32.858  1.00  0.00     0.019 A 
HETATM   23  C16 UNK     1      18.476   5.836  32.408  1.00  0.00     0.037 A 
HETATM   24  C18 UNK     1      18.985   5.987  31.118  1.00  0.00     0.019 A 
HETATM   25  C15 UNK     1      19.096   4.880  30.278  1.00  0.00     0.010 A 
BRANCH  23  26
HETATM   26  C19 UNK     1      18.359   6.992  33.284  1.00  0.00     0.176 C 
HETATM   27  O4  UNK     1      18.247   8.164  32.910  1.00  0.00    -0.646 OA
BRANCH  26  28
HETATM   28  O3  UNK     1      18.383   6.651  34.601  1.00  0.00    -0.773 OA
HETATM   29  H16 UNK     1      17.646   7.066  35.099  1.00  0.00     0.167 HD
ENDBRANCH  26  28
ENDBRANCH  23  26
ENDBRANCH  19  20
ENDBRANCH  17  19
ENDBRANCH   2  17
TORSDOF 7
ENDMDL
MODEL 3
REMARK VINA RESULT:      -8.9      4.816      7.101
REMARK  7 active torsions:
REMARK  status: ('A' for Active; 'I' for Inactive)
REMARK    1  A    between atoms: C19_26  and  O3_4 
REMARK    2  A    between atoms: C12_19  and  N1_6 
REMARK    3  A    between atoms: C4_11  and  N1_6 
REMARK    4  A    between atoms: C12_19  and  N2_7 
REMARK    5  A    between atoms: C8_15  and  N2_7 
REMARK    6  A    between atoms: C8_15  and  C9_16 
REMARK    7  A    between atoms: C16_23  and  C19_26 
ROOT
HETATM    1  S1  UNK     1      20.449  -3.280  37.077  1.00  0.00    -0.041 SA
HETATM    2  C12 UNK     1      18.862  -3.742  36.779  1.00  0.00     0.172 C 
ENDROOT
BRANCH   2   3
HETATM    3  N1  UNK     1      18.375  -5.037  36.527  1.00  0.00    -0.333 N 
HETATM    4  H6  UNK     1      17.428  -5.053  36.158  1.00  0.00     0.168 HD
BRANCH   3   5
HETATM    5  C4  UNK     1      19.004  -6.277  36.414  1.00  0.00     0.036 A 
HETATM    6  C5  UNK     1      18.690  -7.303  37.300  1.00  0.00     0.067 A 
HETATM    7  C2  UNK     1      19.331  -8.536  37.169  1.00  0.00     0.092 A 
HETATM    8  C1  UNK     1      20.279  -8.781  36.175  1.00  0.00     0.004 A 
HETATM    9  O1  UNK     1      18.971  -9.536  38.094  1.00  0.00    -0.275 OA
HETATM   10  C3  UNK     1      20.903 -10.109  36.110  1.00  0.00    -0.043 A 
HETATM   11  C6  UNK     1      20.582  -7.735  35.292  1.00  0.00     0.017 A 
HETATM   12  C10 UNK     1      20.542 -11.040  37.004  1.00  0.00     0.090 A 
HETATM   13  C11 UNK     1      21.928 -10.404  35.054  1.00  0.00     0.049 C 
HETATM   14  C13 UNK     1      19.542 -10.797  38.057  1.00  0.00     0.288 A 
HETATM   15  O2  UNK     1      19.237 -11.675  38.858  1.00  0.00    -0.260 OA
HETATM   16  C7  UNK     1      19.948  -6.493  35.412  1.00  0.00     0.030 A 
ENDBRANCH   3   5
ENDBRANCH   2   3
BRANCH   2  17
HETATM   17  N2  UNK     1      17.910  -2.731  36.737  1.00  0.00    -0.363 N 
HETATM   18  H11 UNK     1      17.109  -2.905  36.136  1.00  0.00     0.162 HD
BRANCH  17  19
HETATM   19  C8  UNK     1      17.935  -1.475  37.461  1.00  0.00     0.160 C 
BRANCH  19  20
HETATM   20  C9  UNK     1      18.007  -0.293  36.532  1.00  0.00    -0.041 A 
HETATM   21  C14 UNK     1      17.905   0.991  37.049  1.00  0.00     0.010 A 
HETATM   22  C17 UNK     1      17.972   2.086  36.188  1.00  0.00     0.019 A 
HETATM   23  C16 UNK     1      18.141   1.887  34.818  1.00  0.00     0.037 A 
HETATM   24  C18 UNK     1      18.241   0.592  34.309  1.00  0.00     0.019 A 
HETATM   25  C15 UNK     1      18.174  -0.503  35.170  1.00  0.00     0.010 A 
BRANCH  23  26
HETATM   26  C19 UNK     1      18.209   3.029  33.919  1.00  0.00     0.176 C 
HETATM   27  O4  UNK     1      17.899   3.018  32.724  1.00  0.00    -0.646 OA
BRANCH  26  28
HETATM   28  O3  UNK     1      18.662   4.152  34.540  1.00  0.00    -0.773 OA
HETATM   29  H16 UNK     1      19.632   4.257  34.443  1.00  0.00     0.167 HD
ENDBRANCH  26  28
ENDBRANCH  23  26
ENDBRANCH  19  20
ENDBRANCH  17  19
ENDBRANCH   2  17
TORSDOF 7
ENDMDL
MODEL 4
REMARK VINA RESULT:      -8.9      2.238      7.881
REMARK  7 active torsions:
REMARK  status: ('A' for Active; 'I' for Inactive)
REMARK    1  A    between atoms: C19_26  and  O3_4 
REMARK    2  A    between atoms: C12_19  and  N1_6 
REMARK    3  A    between atoms: C4_11  and  N1_6 
REMARK    4  A    between atoms: C12_19  and  N2_7 
REMARK    5  A    between atoms: C8_15  and  N2_7 
REMARK    6  A    between atoms: C8_15  and  C9_16 
REMARK    7  A    between atoms: C16_23  and  C19_26 
ROOT
HETATM    1  S1  UNK     1      18.055   1.727  28.881  1.00  0.00    -0.041 SA
HETATM    2  C12 UNK     1      18.541   2.558  30.256  1.00  0.00     0.172 C 
ENDROOT
BRANCH   2   3
HETATM    3  N1  UNK     1      19.188   3.804  30.325  1.00  0.00    -0.333 N 
HETATM    4  H6  UNK     1      19.651   4.073  29.460  1.00  0.00     0.168 HD
BRANCH   3   5
HETATM    5  C4  UNK     1      19.099   4.867  31.226  1.00  0.00     0.036 A 
HETATM    6  C5  UNK     1      17.863   5.244  31.739  1.00  0.00     0.067 A 
HETATM    7  C2  UNK     1      17.796   6.310  32.639  1.00  0.00     0.092 A 
HETATM    8  C1  UNK     1      18.930   7.013  33.046  1.00  0.00     0.004 A 
HETATM    9  O1  UNK     1      16.517   6.646  33.125  1.00  0.00    -0.275 OA
HETATM   10  C3  UNK     1      18.767   8.121  33.997  1.00  0.00    -0.043 A 
HETATM   11  C6  UNK     1      20.167   6.617  32.517  1.00  0.00     0.017 A 
HETATM   12  C10 UNK     1      17.539   8.419  34.442  1.00  0.00     0.090 A 
HETATM   13  C11 UNK     1      19.967   8.899  34.454  1.00  0.00     0.049 C 
HETATM   14  C13 UNK     1      16.333   7.685  34.023  1.00  0.00     0.288 A 
HETATM   15  O2  UNK     1      15.224   7.986  34.453  1.00  0.00    -0.260 OA
HETATM   16  C7  UNK     1      20.249   5.552  31.614  1.00  0.00     0.030 A 
ENDBRANCH   3   5
ENDBRANCH   2   3
BRANCH   2  17
HETATM   17  N2  UNK     1      18.317   1.937  31.479  1.00  0.00    -0.363 N 
HETATM   18  H11 UNK     1      17.716   2.441  32.125  1.00  0.00     0.162 HD
BRANCH  17  19
HETATM   19  C8  UNK     1      18.835   0.655  31.917  1.00  0.00     0.160 C 
BRANCH  19  20
HETATM   20  C9  UNK     1      18.594   0.424  33.385  1.00  0.00    -0.041 A 
HETATM   21  C14 UNK     1      18.313   1.505  34.210  1.00  0.00     0.010 A 
HETATM   22  C17 UNK     1      18.089   1.290  35.570  1.00  0.00     0.019 A 
HETATM   23  C16 UNK     1      18.146  -0.002  36.091  1.00  0.00     0.037 A 
HETATM   24  C18 UNK     1      18.429  -1.080  35.252  1.00  0.00     0.019 A 
HETATM   25  C15 UNK     1      18.654  -0.866  33.892  1.00  0.00     0.010 A 
BRANCH  23  26
HETATM   26  C19 UNK     1      17.914  -0.226  37.509  1.00  0.00     0.176 C 
HETATM   27  O4  UNK     1      17.859   0.655  38.373  1.00  0.00    -0.646 OA
BRANCH  26  28
HETATM   28  O3  UNK     1      17.754  -1.544  37.808  1.00  0.00    -0.773 OA
HETATM   29  H16 UNK     1      17.174  -1.997  37.158  1.00  0.00     0.167 HD
ENDBRANCH  26  28
ENDBRANCH  23  26
ENDBRANCH  19  20
ENDBRANCH  17  19
ENDBRANCH   2  17
TORSDOF 7
ENDMDL
MODEL 5
REMARK VINA RESULT:      -8.8      5.223      7.976
REMARK  7 active torsions:
REMARK  status: ('A' for Active; 'I' for Inactive)
REMARK    1  A    between atoms: C19_26  and  O3_4 
REMARK    2  A    between atoms: C12_19  and  N1_6 
REMARK    3  A    between atoms: C4_11  and  N1_6 
REMARK    4  A    between atoms: C12_19  and  N2_7 
REMARK    5  A    between atoms: C8_15  and  N2_7 
REMARK    6  A    between atoms: C8_15  and  C9_16 
REMARK    7  A    between atoms: C16_23  and  C19_26 
ROOT
HETATM    1  S1  UNK     1      20.549  -3.462  37.575  1.00  0.00    -0.041 SA
HETATM    2  C12 UNK     1      19.148  -3.789  36.708  1.00  0.00     0.172 C 
ENDROOT
BRANCH   2   3
HETATM    3  N1  UNK     1      18.621  -5.046  36.365  1.00  0.00    -0.333 N 
HETATM    4  H6  UNK     1      17.726  -4.997  35.884  1.00  0.00     0.168 HD
BRANCH   3   5
HETATM    5  C4  UNK     1      19.186  -6.320  36.295  1.00  0.00     0.036 A 
HETATM    6  C5  UNK     1      18.835  -7.291  37.227  1.00  0.00     0.067 A 
HETATM    7  C2  UNK     1      19.411  -8.560  37.138  1.00  0.00     0.092 A 
HETATM    8  C1  UNK     1      20.331  -8.892  36.143  1.00  0.00     0.004 A 
HETATM    9  O1  UNK     1      19.016  -9.502  38.108  1.00  0.00    -0.275 OA
HETATM   10  C3  UNK     1      20.888 -10.252  36.125  1.00  0.00    -0.043 A 
HETATM   11  C6  UNK     1      20.672  -7.900  35.213  1.00  0.00     0.017 A 
HETATM   12  C10 UNK     1      20.494 -11.127  37.061  1.00  0.00     0.090 A 
HETATM   13  C11 UNK     1      21.881 -10.641  35.068  1.00  0.00     0.049 C 
HETATM   14  C13 UNK     1      19.524 -10.791  38.116  1.00  0.00     0.288 A 
HETATM   15  O2  UNK     1      19.187 -11.619  38.957  1.00  0.00    -0.260 OA
HETATM   16  C7  UNK     1      20.103  -6.624  35.290  1.00  0.00     0.030 A 
ENDBRANCH   3   5
ENDBRANCH   2   3
BRANCH   2  17
HETATM   17  N2  UNK     1      18.434  -2.695  36.234  1.00  0.00    -0.363 N 
HETATM   18  H11 UNK     1      17.422  -2.777  36.280  1.00  0.00     0.162 HD
BRANCH  17  19
HETATM   19  C8  UNK     1      18.975  -1.462  35.697  1.00  0.00     0.160 C 
BRANCH  19  20
HETATM   20  C9  UNK     1      19.372  -1.605  34.252  1.00  0.00    -0.041 A 
HETATM   21  C14 UNK     1      18.632  -0.957  33.272  1.00  0.00     0.010 A 
HETATM   22  C17 UNK     1      19.001  -1.089  31.933  1.00  0.00     0.019 A 
HETATM   23  C16 UNK     1      20.105  -1.867  31.587  1.00  0.00     0.037 A 
HETATM   24  C18 UNK     1      20.841  -2.514  32.581  1.00  0.00     0.019 A 
HETATM   25  C15 UNK     1      20.473  -2.383  33.919  1.00  0.00     0.010 A 
BRANCH  23  26
HETATM   26  C19 UNK     1      20.489  -2.006  30.191  1.00  0.00     0.176 C 
HETATM   27  O4  UNK     1      20.428  -1.113  29.340  1.00  0.00    -0.646 OA
BRANCH  26  28
HETATM   28  O3  UNK     1      20.940  -3.257  29.898  1.00  0.00    -0.773 OA
HETATM   29  H16 UNK     1      20.222  -3.832  29.557  1.00  0.00     0.167 HD
ENDBRANCH  26  28
ENDBRANCH  23  26
ENDBRANCH  19  20
ENDBRANCH  17  19
ENDBRANCH   2  17
TORSDOF 7
ENDMDL
MODEL 6
REMARK VINA RESULT:      -8.7      3.429      7.688
REMARK  7 active torsions:
REMARK  status: ('A' for Active; 'I' for Inactive)
REMARK    1  A    between atoms: C19_26  and  O3_4 
REMARK    2  A    between atoms: C12_19  and  N1_6 
REMARK    3  A    between atoms: C4_11  and  N1_6 
REMARK    4  A    between atoms: C12_19  and  N2_7 
REMARK    5  A    between atoms: C8_15  and  N2_7 
REMARK    6  A    between atoms: C8_15  and  C9_16 
REMARK    7  A    between atoms: C16_23  and  C19_26 
ROOT
HETATM    1  S1  UNK     1      16.506   0.777  36.767  1.00  0.00    -0.041 SA
HETATM    2  C12 UNK     1      17.948   1.298  36.082  1.00  0.00     0.172 C 
ENDROOT
BRANCH   2   3
HETATM    3  N1  UNK     1      18.255   2.580  35.593  1.00  0.00    -0.333 N 
HETATM    4  H6  UNK     1      18.673   3.194  36.288  1.00  0.00     0.168 HD
BRANCH   3   5
HETATM    5  C4  UNK     1      18.366   3.097  34.301  1.00  0.00     0.036 A 
HETATM    6  C5  UNK     1      18.195   2.265  33.200  1.00  0.00     0.067 A 
HETATM    7  C2  UNK     1      18.310   2.803  31.916  1.00  0.00     0.092 A 
HETATM    8  C1  UNK     1      18.590   4.153  31.696  1.00  0.00     0.004 A 
HETATM    9  O1  UNK     1      18.126   1.913  30.840  1.00  0.00    -0.275 OA
HETATM   10  C3  UNK     1      18.692   4.633  30.312  1.00  0.00    -0.043 A 
HETATM   11  C6  UNK     1      18.759   4.974  32.819  1.00  0.00     0.017 A 
HETATM   12  C10 UNK     1      18.514   3.763  29.308  1.00  0.00     0.090 A 
HETATM   13  C11 UNK     1      18.994   6.078  30.041  1.00  0.00     0.049 C 
HETATM   14  C13 UNK     1      18.216   2.337  29.525  1.00  0.00     0.288 A 
HETATM   15  O2  UNK     1      18.058   1.570  28.580  1.00  0.00    -0.260 OA
HETATM   16  C7  UNK     1      18.647   4.449  34.112  1.00  0.00     0.030 A 
ENDBRANCH   3   5
ENDBRANCH   2   3
BRANCH   2  17
HETATM   17  N2  UNK     1      18.955   0.351  35.941  1.00  0.00    -0.363 N 
HETATM   18  H11 UNK     1      19.903   0.695  36.068  1.00  0.00     0.162 HD
BRANCH  17  19
HETATM   19  C8  UNK     1      18.795  -1.059  35.647  1.00  0.00     0.160 C 
BRANCH  19  20
HETATM   20  C9  UNK     1      19.261  -1.400  34.257  1.00  0.00    -0.041 A 
HETATM   21  C14 UNK     1      20.396  -2.180  34.088  1.00  0.00     0.010 A 
HETATM   22  C17 UNK     1      20.827  -2.495  32.799  1.00  0.00     0.019 A 
HETATM   23  C16 UNK     1      20.118  -2.029  31.692  1.00  0.00     0.037 A 
HETATM   24  C18 UNK     1      18.977  -1.246  31.875  1.00  0.00     0.019 A 
HETATM   25  C15 UNK     1      18.546  -0.930  33.163  1.00  0.00     0.010 A 
BRANCH  23  26
HETATM   26  C19 UNK     1      20.567  -2.357  30.348  1.00  0.00     0.176 C 
HETATM   27  O4  UNK     1      20.481  -1.616  29.365  1.00  0.00    -0.646 OA
BRANCH  26  28
HETATM   28  O3  UNK     1      21.113  -3.601  30.272  1.00  0.00    -0.773 OA
HETATM   29  H16 UNK     1      21.257  -3.880  29.342  1.00  0.00     0.167 HD
ENDBRANCH  26  28
ENDBRANCH  23  26
ENDBRANCH  19  20
ENDBRANCH  17  19
ENDBRANCH   2  17
TORSDOF 7
ENDMDL
MODEL 7
REMARK VINA RESULT:      -8.6      5.048      7.568
REMARK  7 active torsions:
REMARK  status: ('A' for Active; 'I' for Inactive)
REMARK    1  A    between atoms: C19_26  and  O3_4 
REMARK    2  A    between atoms: C12_19  and  N1_6 
REMARK    3  A    between atoms: C4_11  and  N1_6 
REMARK    4  A    between atoms: C12_19  and  N2_7 
REMARK    5  A    between atoms: C8_15  and  N2_7 
REMARK    6  A    between atoms: C8_15  and  C9_16 
REMARK    7  A    between atoms: C16_23  and  C19_26 
ROOT
HETATM    1  S1  UNK     1      20.327  -3.221  37.538  1.00  0.00    -0.041 SA
HETATM    2  C12 UNK     1      19.712  -3.868  36.115  1.00  0.00     0.172 C 
ENDROOT
BRANCH   2   3
HETATM    3  N1  UNK     1      19.011  -5.076  35.952  1.00  0.00    -0.333 N 
HETATM    4  H6  UNK     1      18.267  -5.027  35.260  1.00  0.00     0.168 HD
BRANCH   3   5
HETATM    5  C4  UNK     1      19.293  -6.390  36.327  1.00  0.00     0.036 A 
HETATM    6  C5  UNK     1      20.240  -7.128  35.624  1.00  0.00     0.067 A 
HETATM    7  C2  UNK     1      20.507  -8.442  36.016  1.00  0.00     0.092 A 
HETATM    8  C1  UNK     1      19.857  -9.045  37.093  1.00  0.00     0.004 A 
HETATM    9  O1  UNK     1      21.476  -9.139  35.267  1.00  0.00    -0.275 OA
HETATM   10  C3  UNK     1      20.202 -10.431  37.436  1.00  0.00    -0.043 A 
HETATM   11  C6  UNK     1      18.907  -8.284  37.789  1.00  0.00     0.017 A 
HETATM   12  C10 UNK     1      21.126 -11.070  36.706  1.00  0.00     0.090 A 
HETATM   13  C11 UNK     1      19.520 -11.109  38.589  1.00  0.00     0.049 C 
HETATM   14  C13 UNK     1      21.821 -10.447  35.567  1.00  0.00     0.288 A 
HETATM   15  O2  UNK     1      22.663 -11.063  34.921  1.00  0.00    -0.260 OA
HETATM   16  C7  UNK     1      18.628  -6.967  37.407  1.00  0.00     0.030 A 
ENDBRANCH   3   5
ENDBRANCH   2   3
BRANCH   2  17
HETATM   17  N2  UNK     1      19.947  -3.155  34.947  1.00  0.00    -0.363 N 
HETATM   18  H11 UNK     1      20.566  -3.601  34.275  1.00  0.00     0.162 HD
BRANCH  17  19
HETATM   19  C8  UNK     1      19.400  -1.861  34.587  1.00  0.00     0.160 C 
BRANCH  19  20
HETATM   20  C9  UNK     1      19.616  -1.546  33.130  1.00  0.00    -0.041 A 
HETATM   21  C14 UNK     1      20.424  -2.374  32.364  1.00  0.00     0.010 A 
HETATM   22  C17 UNK     1      20.623  -2.083  31.015  1.00  0.00     0.019 A 
HETATM   23  C16 UNK     1      20.010  -0.967  30.444  1.00  0.00     0.037 A 
HETATM   24  C18 UNK     1      19.199  -0.142  31.224  1.00  0.00     0.019 A 
HETATM   25  C15 UNK     1      19.001  -0.433  32.574  1.00  0.00     0.010 A 
BRANCH  23  26
HETATM   26  C19 UNK     1      20.218  -0.662  29.037  1.00  0.00     0.176 C 
HETATM   27  O4  UNK     1      21.311  -0.646  28.463  1.00  0.00    -0.646 OA
BRANCH  26  28
HETATM   28  O3  UNK     1      19.054  -0.388  28.388  1.00  0.00    -0.773 OA
HETATM   29  H16 UNK     1      18.860   0.574  28.378  1.00  0.00     0.167 HD
ENDBRANCH  26  28
ENDBRANCH  23  26
ENDBRANCH  19  20
ENDBRANCH  17  19
ENDBRANCH   2  17
TORSDOF 7
ENDMDL
MODEL 8
REMARK VINA RESULT:      -8.6      3.385      5.464
REMARK  7 active torsions:
REMARK  status: ('A' for Active; 'I' for Inactive)
REMARK    1  A    between atoms: C19_26  and  O3_4 
REMARK    2  A    between atoms: C12_19  and  N1_6 
REMARK    3  A    between atoms: C4_11  and  N1_6 
REMARK    4  A    between atoms: C12_19  and  N2_7 
REMARK    5  A    between atoms: C8_15  and  N2_7 
REMARK    6  A    between atoms: C8_15  and  C9_16 
REMARK    7  A    between atoms: C16_23  and  C19_26 
ROOT
HETATM    1  S1  UNK     1      18.828   6.190  30.851  1.00  0.00    -0.041 SA
HETATM    2  C12 UNK     1      18.112   5.217  32.017  1.00  0.00     0.172 C 
ENDROOT
BRANCH   2   3
HETATM    3  N1  UNK     1      17.637   3.902  31.867  1.00  0.00    -0.333 N 
HETATM    4  H6  UNK     1      16.622   3.834  31.850  1.00  0.00     0.168 HD
BRANCH   3   5
HETATM    5  C4  UNK     1      18.250   2.716  31.462  1.00  0.00     0.036 A 
HETATM    6  C5  UNK     1      18.487   1.703  32.385  1.00  0.00     0.067 A 
HETATM    7  C2  UNK     1      19.102   0.524  31.959  1.00  0.00     0.092 A 
HETATM    8  C1  UNK     1      19.487   0.322  30.633  1.00  0.00     0.004 A 
HETATM    9  O1  UNK     1      19.316  -0.466  32.939  1.00  0.00    -0.275 OA
HETATM   10  C3  UNK     1      20.127  -0.951  30.273  1.00  0.00    -0.043 A 
HETATM   11  C6  UNK     1      19.239   1.354  29.718  1.00  0.00     0.017 A 
HETATM   12  C10 UNK     1      20.319  -1.874  31.226  1.00  0.00     0.090 A 
HETATM   13  C11 UNK     1      20.554  -1.199  28.856  1.00  0.00     0.049 C 
HETATM   14  C13 UNK     1      19.916  -1.675  32.628  1.00  0.00     0.288 A 
HETATM   15  O2  UNK     1      20.108  -2.543  33.473  1.00  0.00    -0.260 OA
HETATM   16  C7  UNK     1      18.624   2.542  30.131  1.00  0.00     0.030 A 
ENDBRANCH   3   5
ENDBRANCH   2   3
BRANCH   2  17
HETATM   17  N2  UNK     1      17.928   5.776  33.275  1.00  0.00    -0.363 N 
HETATM   18  H11 UNK     1      16.980   5.737  33.640  1.00  0.00     0.162 HD
BRANCH  17  19
HETATM   19  C8  UNK     1      18.937   6.390  34.116  1.00  0.00     0.160 C 
BRANCH  19  20
HETATM   20  C9  UNK     1      18.833   7.892  34.111  1.00  0.00    -0.041 A 
HETATM   21  C14 UNK     1      19.962   8.657  34.368  1.00  0.00     0.010 A 
HETATM   22  C17 UNK     1      19.865  10.048  34.363  1.00  0.00     0.019 A 
HETATM   23  C16 UNK     1      18.641  10.661  34.099  1.00  0.00     0.037 A 
HETATM   24  C18 UNK     1      17.512   9.883  33.842  1.00  0.00     0.019 A 
HETATM   25  C15 UNK     1      17.608   8.491  33.848  1.00  0.00     0.010 A 
BRANCH  23  26
HETATM   26  C19 UNK     1      18.539  12.112  34.095  1.00  0.00     0.176 C 
HETATM   27  O4  UNK     1      18.043  12.798  34.994  1.00  0.00    -0.646 OA
BRANCH  26  28
HETATM   28  O3  UNK     1      19.062  12.666  32.966  1.00  0.00    -0.773 OA
HETATM   29  H16 UNK     1      19.954  13.042  33.124  1.00  0.00     0.167 HD
ENDBRANCH  26  28
ENDBRANCH  23  26
ENDBRANCH  19  20
ENDBRANCH  17  19
ENDBRANCH   2  17
TORSDOF 7
ENDMDL
MODEL 9
REMARK VINA RESULT:      -8.6      4.577      7.008
REMARK  7 active torsions:
REMARK  status: ('A' for Active; 'I' for Inactive)
REMARK    1  A    between atoms: C19_26  and  O3_4 
REMARK    2  A    between atoms: C12_19  and  N1_6 
REMARK    3  A    between atoms: C4_11  and  N1_6 
REMARK    4  A    between atoms: C12_19  and  N2_7 
REMARK    5  A    between atoms: C8_15  and  N2_7 
REMARK    6  A    between atoms: C8_15  and  C9_16 
REMARK    7  A    between atoms: C16_23  and  C19_26 
ROOT
HETATM    1  S1  UNK     1      18.262  -1.504  37.617  1.00  0.00    -0.041 SA
HETATM    2  C12 UNK     1      18.798  -2.579  36.443  1.00  0.00     0.172 C 
ENDROOT
BRANCH   2   3
HETATM    3  N1  UNK     1      18.647  -3.977  36.423  1.00  0.00    -0.333 N 
HETATM    4  H6  UNK     1      18.078  -4.316  35.651  1.00  0.00     0.168 HD
BRANCH   3   5
HETATM    5  C4  UNK     1      19.332  -5.010  37.064  1.00  0.00     0.036 A 
HETATM    6  C5  UNK     1      18.824  -6.305  37.037  1.00  0.00     0.067 A 
HETATM    7  C2  UNK     1      19.526  -7.325  37.684  1.00  0.00     0.092 A 
HETATM    8  C1  UNK     1      20.724  -7.092  38.360  1.00  0.00     0.004 A 
HETATM    9  O1  UNK     1      18.964  -8.615  37.622  1.00  0.00    -0.275 OA
HETATM   10  C3  UNK     1      21.395  -8.224  39.013  1.00  0.00    -0.043 A 
HETATM   11  C6  UNK     1      21.218  -5.780  38.376  1.00  0.00     0.017 A 
HETATM   12  C10 UNK     1      20.837  -9.440  38.938  1.00  0.00     0.090 A 
HETATM   13  C11 UNK     1      22.685  -8.006  39.749  1.00  0.00     0.049 C 
HETATM   14  C13 UNK     1      19.574  -9.701  38.227  1.00  0.00     0.288 A 
HETATM   15  O2  UNK     1      19.093 -10.829  38.180  1.00  0.00    -0.260 OA
HETATM   16  C7  UNK     1      20.527  -4.748  37.732  1.00  0.00     0.030 A 
ENDBRANCH   3   5
ENDBRANCH   2   3
BRANCH   2  17
HETATM   17  N2  UNK     1      19.507  -2.043  35.376  1.00  0.00    -0.363 N 
HETATM   18  H11 UNK     1      19.595  -1.030  35.370  1.00  0.00     0.162 HD
BRANCH  17  19
HETATM   19  C8  UNK     1      20.137  -2.769  34.290  1.00  0.00     0.160 C 
BRANCH  19  20
HETATM   20  C9  UNK     1      20.041  -2.023  32.986  1.00  0.00    -0.041 A 
HETATM   21  C14 UNK     1      20.862  -2.388  31.928  1.00  0.00     0.010 A 
HETATM   22  C17 UNK     1      20.772  -1.697  30.719  1.00  0.00     0.019 A 
HETATM   23  C16 UNK     1      19.862  -0.650  30.580  1.00  0.00     0.037 A 
HETATM   24  C18 UNK     1      19.042  -0.292  31.651  1.00  0.00     0.019 A 
HETATM   25  C15 UNK     1      19.131  -0.982  32.860  1.00  0.00     0.010 A 
BRANCH  23  26
HETATM   26  C19 UNK     1      19.768   0.072  29.320  1.00  0.00     0.176 C 
HETATM   27  O4  UNK     1      19.722  -0.448  28.201  1.00  0.00    -0.646 OA
BRANCH  26  28
HETATM   28  O3  UNK     1      19.735   1.421  29.495  1.00  0.00    -0.773 OA
HETATM   29  H16 UNK     1      19.224   1.868  28.787  1.00  0.00     0.167 HD
ENDBRANCH  26  28
ENDBRANCH  23  26
ENDBRANCH  19  20
ENDBRANCH  17  19
ENDBRANCH   2  17
TORSDOF 7
ENDMDL
MODEL 10
REMARK VINA RESULT:      -8.5      1.956      8.179
REMARK  7 active torsions:
REMARK  status: ('A' for Active; 'I' for Inactive)
REMARK    1  A    between atoms: C19_26  and  O3_4 
REMARK    2  A    between atoms: C12_19  and  N1_6 
REMARK    3  A    between atoms: C4_11  and  N1_6 
REMARK    4  A    between atoms: C12_19  and  N2_7 
REMARK    5  A    between atoms: C8_15  and  N2_7 
REMARK    6  A    between atoms: C8_15  and  C9_16 
REMARK    7  A    between atoms: C16_23  and  C19_26 
ROOT
HETATM    1  S1  UNK     1      17.733   1.992  28.757  1.00  0.00    -0.041 SA
HETATM    2  C12 UNK     1      18.950   2.462  29.815  1.00  0.00     0.172 C 
ENDROOT
BRANCH   2   3
HETATM    3  N1  UNK     1      19.490   3.748  29.989  1.00  0.00    -0.333 N 
HETATM    4  H6  UNK     1      19.962   4.109  29.163  1.00  0.00     0.168 HD
BRANCH   3   5
HETATM    5  C4  UNK     1      19.279   4.739  30.948  1.00  0.00     0.036 A 
HETATM    6  C5  UNK     1      17.997   4.982  31.430  1.00  0.00     0.067 A 
HETATM    7  C2  UNK     1      17.809   5.978  32.390  1.00  0.00     0.092 A 
HETATM    8  C1  UNK     1      18.864   6.743  32.888  1.00  0.00     0.004 A 
HETATM    9  O1  UNK     1      16.489   6.178  32.841  1.00  0.00    -0.275 OA
HETATM   10  C3  UNK     1      18.574   7.770  33.898  1.00  0.00    -0.043 A 
HETATM   11  C6  UNK     1      20.148   6.483  32.390  1.00  0.00     0.017 A 
HETATM   12  C10 UNK     1      17.310   7.939  34.307  1.00  0.00     0.090 A 
HETATM   13  C11 UNK     1      19.688   8.610  34.452  1.00  0.00     0.049 C 
HETATM   14  C13 UNK     1      16.185   7.139  33.792  1.00  0.00     0.288 A 
HETATM   15  O2  UNK     1      15.040   7.321  34.192  1.00  0.00    -0.260 OA
HETATM   16  C7  UNK     1      20.353   5.488  31.427  1.00  0.00     0.030 A 
ENDBRANCH   3   5
ENDBRANCH   2   3
BRANCH   2  17
HETATM   17  N2  UNK     1      19.527   1.465  30.591  1.00  0.00    -0.363 N 
HETATM   18  H11 UNK     1      19.971   1.777  31.450  1.00  0.00     0.162 HD
BRANCH  17  19
HETATM   19  C8  UNK     1      19.553   0.042  30.311  1.00  0.00     0.160 C 
BRANCH  19  20
HETATM   20  C9  UNK     1      19.762  -0.772  31.560  1.00  0.00    -0.041 A 
HETATM   21  C14 UNK     1      18.913  -0.593  32.643  1.00  0.00     0.010 A 
HETATM   22  C17 UNK     1      19.107  -1.348  33.800  1.00  0.00     0.019 A 
HETATM   23  C16 UNK     1      20.146  -2.275  33.862  1.00  0.00     0.037 A 
HETATM   24  C18 UNK     1      20.994  -2.447  32.766  1.00  0.00     0.019 A 
HETATM   25  C15 UNK     1      20.801  -1.692  31.610  1.00  0.00     0.010 A 
BRANCH  23  26
HETATM   26  C19 UNK     1      20.350  -3.062  35.068  1.00  0.00     0.176 C 
HETATM   27  O4  UNK     1      20.821  -2.638  36.128  1.00  0.00    -0.646 OA
BRANCH  26  28
HETATM   28  O3  UNK     1      19.956  -4.356  34.917  1.00  0.00    -0.773 OA
HETATM   29  H16 UNK     1      19.486  -4.690  35.711  1.00  0.00     0.167 HD
ENDBRANCH  26  28
ENDBRANCH  23  26
ENDBRANCH  19  20
ENDBRANCH  17  19
ENDBRANCH   2  17
TORSDOF 7
ENDMDL
