MODEL 1
REMARK VINA RESULT:      -9.4      0.000      0.000
REMARK  3 active torsions:
REMARK  status: ('A' for Active; 'I' for Inactive)
REMARK       I    between atoms: C10_14  and  N1_4 
REMARK    1  A    between atoms: C2_6  and  N1_4 
REMARK    2  A    between atoms: C1_5  and  C7_11 
REMARK    3  A    between atoms: C10_14  and  C13_17 
ROOT
HETATM    1  O1  UNK     1      23.984 -11.567  35.773  1.00  0.00    -0.267 OA
HETATM    2  N1  UNK     1      25.018  -9.821  36.920  1.00  0.00    -0.352 N 
HETATM    3  C10 UNK     1      23.958 -10.469  36.317  1.00  0.00     0.258 C 
HETATM    4  H11 UNK     1      24.875  -8.916  37.356  1.00  0.00     0.163 HD
ENDROOT
BRANCH   2   5
HETATM    5  C2  UNK     1      26.347 -10.387  36.983  1.00  0.00     0.084 C 
HETATM    6  C5  UNK     1      26.908 -10.305  38.405  1.00  0.00     0.026 C 
HETATM    7  C3  UNK     1      27.298  -8.880  38.803  1.00  0.00     0.011 C 
HETATM    8  C1  UNK     1      28.269  -8.257  37.786  1.00  0.00     0.019 C 
HETATM    9  C4  UNK     1      27.684  -8.303  36.364  1.00  0.00     0.011 C 
HETATM   10  C6  UNK     1      27.282  -9.725  35.966  1.00  0.00     0.026 C 
BRANCH   8  11
HETATM   11  C7  UNK     1      28.676  -6.850  38.183  1.00  0.00    -0.054 A 
HETATM   12  C8  UNK     1      30.026  -6.526  38.319  1.00  0.00     0.007 A 
HETATM   13  C11 UNK     1      30.400  -5.233  38.683  1.00  0.00     0.001 A 
HETATM   14  C14 UNK     1      29.423  -4.263  38.912  1.00  0.00     0.000 A 
HETATM   15  C12 UNK     1      28.074  -4.587  38.777  1.00  0.00     0.001 A 
HETATM   16  C9  UNK     1      27.699  -5.880  38.412  1.00  0.00     0.007 A 
ENDBRANCH   8  11
ENDBRANCH   2   5
BRANCH   3  17
HETATM   17  C13 UNK     1      22.707  -9.692  36.383  1.00  0.00     0.108 A 
HETATM   18  C15 UNK     1      22.521  -8.961  37.488  1.00  0.00     0.037 A 
HETATM   19  C17 UNK     1      21.318  -8.161  37.646  1.00  0.00    -0.001 A 
HETATM   20  C18 UNK     1      20.366  -8.171  36.630  1.00  0.00     0.089 A 
HETATM   21  C19 UNK     1      21.083  -7.383  38.782  1.00  0.00     0.014 A 
HETATM   22  O2  UNK     1      20.565  -8.942  35.470  1.00  0.00    -0.274 OA
HETATM   23  C20 UNK     1      19.190  -7.427  36.719  1.00  0.00     0.038 A 
HETATM   24  C16 UNK     1      21.709  -9.717  35.290  1.00  0.00     0.304 A 
HETATM   25  O3  UNK     1      21.874 -10.387  34.276  1.00  0.00    -0.259 OA
HETATM   26  C22 UNK     1      18.965  -6.654  37.856  1.00  0.00     0.003 A 
HETATM   27  C21 UNK     1      19.908  -6.632  38.885  1.00  0.00     0.001 A 
ENDBRANCH   3  17
TORSDOF 3
ENDMDL
MODEL 2
REMARK VINA RESULT:      -9.2      1.477      2.027
REMARK  3 active torsions:
REMARK  status: ('A' for Active; 'I' for Inactive)
REMARK       I    between atoms: C10_14  and  N1_4 
REMARK    1  A    between atoms: C2_6  and  N1_4 
REMARK    2  A    between atoms: C1_5  and  C7_11 
REMARK    3  A    between atoms: C10_14  and  C13_17 
ROOT
HETATM    1  O1  UNK     1      23.968 -10.691  36.095  1.00  0.00    -0.267 OA
HETATM    2  N1  UNK     1      25.208  -9.317  37.513  1.00  0.00    -0.352 N 
HETATM    3  C10 UNK     1      24.078  -9.713  36.827  1.00  0.00     0.258 C 
HETATM    4  H11 UNK     1      25.178  -8.494  38.105  1.00  0.00     0.163 HD
ENDROOT
BRANCH   2   5
HETATM    5  C2  UNK     1      26.457 -10.042  37.447  1.00  0.00     0.084 C 
HETATM    6  C5  UNK     1      27.189  -9.992  38.790  1.00  0.00     0.026 C 
HETATM    7  C3  UNK     1      27.792  -8.617  39.082  1.00  0.00     0.011 C 
HETATM    8  C1  UNK     1      28.703  -8.147  37.936  1.00  0.00     0.019 C 
HETATM    9  C4  UNK     1      27.953  -8.158  36.593  1.00  0.00     0.011 C 
HETATM   10  C6  UNK     1      27.338  -9.529  36.303  1.00  0.00     0.026 C 
BRANCH   8  11
HETATM   11  C7  UNK     1      29.321  -6.791  38.225  1.00  0.00    -0.054 A 
HETATM   12  C8  UNK     1      30.700  -6.613  38.107  1.00  0.00     0.007 A 
HETATM   13  C11 UNK     1      31.267  -5.367  38.373  1.00  0.00     0.001 A 
HETATM   14  C14 UNK     1      30.456  -4.299  38.757  1.00  0.00     0.000 A 
HETATM   15  C12 UNK     1      29.078  -4.477  38.876  1.00  0.00     0.001 A 
HETATM   16  C9  UNK     1      28.510  -5.723  38.610  1.00  0.00     0.007 A 
ENDBRANCH   8  11
ENDBRANCH   2   5
BRANCH   3  17
HETATM   17  C13 UNK     1      22.931  -8.815  37.055  1.00  0.00     0.108 A 
HETATM   18  C15 UNK     1      22.027  -8.747  36.071  1.00  0.00     0.037 A 
HETATM   19  C17 UNK     1      20.860  -7.889  36.204  1.00  0.00    -0.001 A 
HETATM   20  C18 UNK     1      20.704  -7.143  37.368  1.00  0.00     0.089 A 
HETATM   21  C19 UNK     1      19.892  -7.787  35.202  1.00  0.00     0.014 A 
HETATM   22  O2  UNK     1      21.658  -7.217  38.400  1.00  0.00    -0.274 OA
HETATM   23  C20 UNK     1      19.609  -6.300  37.558  1.00  0.00     0.038 A 
HETATM   24  C16 UNK     1      22.784  -8.031  38.302  1.00  0.00     0.304 A 
HETATM   25  O3  UNK     1      23.611  -8.090  39.206  1.00  0.00    -0.259 OA
HETATM   26  C22 UNK     1      18.648  -6.205  36.554  1.00  0.00     0.003 A 
HETATM   27  C21 UNK     1      18.789  -6.947  35.379  1.00  0.00     0.001 A 
ENDBRANCH   3  17
TORSDOF 3
ENDMDL
MODEL 3
REMARK VINA RESULT:      -9.1      3.580      5.148
REMARK  3 active torsions:
REMARK  status: ('A' for Active; 'I' for Inactive)
REMARK       I    between atoms: C10_14  and  N1_4 
REMARK    1  A    between atoms: C2_6  and  N1_4 
REMARK    2  A    between atoms: C1_5  and  C7_11 
REMARK    3  A    between atoms: C10_14  and  C13_17 
ROOT
HETATM    1  O1  UNK     1      27.081  -8.560  39.579  1.00  0.00    -0.267 OA
HETATM    2  N1  UNK     1      27.227  -7.465  37.527  1.00  0.00    -0.352 N 
HETATM    3  C10 UNK     1      26.602  -7.865  38.690  1.00  0.00     0.258 C 
HETATM    4  H11 UNK     1      26.735  -6.873  36.866  1.00  0.00     0.163 HD
ENDROOT
BRANCH   2   5
HETATM    5  C2  UNK     1      28.586  -7.835  37.201  1.00  0.00     0.084 C 
HETATM    6  C5  UNK     1      29.279  -6.727  36.405  1.00  0.00     0.026 C 
HETATM    7  C3  UNK     1      28.769  -6.628  34.966  1.00  0.00     0.011 C 
HETATM    8  C1  UNK     1      28.869  -7.980  34.240  1.00  0.00     0.019 C 
HETATM    9  C4  UNK     1      28.136  -9.084  35.021  1.00  0.00     0.011 C 
HETATM   10  C6  UNK     1      28.635  -9.178  36.464  1.00  0.00     0.026 C 
BRANCH   8  11
HETATM   11  C7  UNK     1      28.382  -7.887  32.805  1.00  0.00    -0.054 A 
HETATM   12  C8  UNK     1      28.594  -8.949  31.926  1.00  0.00     0.007 A 
HETATM   13  C11 UNK     1      28.146  -8.864  30.608  1.00  0.00     0.001 A 
HETATM   14  C14 UNK     1      27.487  -7.715  30.168  1.00  0.00     0.000 A 
HETATM   15  C12 UNK     1      27.276  -6.652  31.046  1.00  0.00     0.001 A 
HETATM   16  C9  UNK     1      27.723  -6.738  32.365  1.00  0.00     0.007 A 
ENDBRANCH   8  11
ENDBRANCH   2   5
BRANCH   3  17
HETATM   17  C13 UNK     1      25.221  -7.359  38.795  1.00  0.00     0.108 A 
HETATM   18  C15 UNK     1      24.254  -8.283  38.843  1.00  0.00     0.037 A 
HETATM   19  C17 UNK     1      22.860  -7.882  38.947  1.00  0.00    -0.001 A 
HETATM   20  C18 UNK     1      22.552  -6.526  38.995  1.00  0.00     0.089 A 
HETATM   21  C19 UNK     1      21.819  -8.812  39.000  1.00  0.00     0.014 A 
HETATM   22  O2  UNK     1      23.573  -5.558  38.944  1.00  0.00    -0.274 OA
HETATM   23  C20 UNK     1      21.237  -6.075  39.094  1.00  0.00     0.038 A 
HETATM   24  C16 UNK     1      24.917  -5.912  38.846  1.00  0.00     0.304 A 
HETATM   25  O3  UNK     1      25.800  -5.062  38.801  1.00  0.00    -0.259 OA
HETATM   26  C22 UNK     1      20.205  -7.009  39.147  1.00  0.00     0.003 A 
HETATM   27  C21 UNK     1      20.494  -8.375  39.100  1.00  0.00     0.001 A 
ENDBRANCH   3  17
TORSDOF 3
ENDMDL
MODEL 4
REMARK VINA RESULT:      -9.0     32.321     34.215
REMARK  3 active torsions:
REMARK  status: ('A' for Active; 'I' for Inactive)
REMARK       I    between atoms: C10_14  and  N1_4 
REMARK    1  A    between atoms: C2_6  and  N1_4 
REMARK    2  A    between atoms: C1_5  and  C7_11 
REMARK    3  A    between atoms: C10_14  and  C13_17 
ROOT
HETATM    1  O1  UNK     1       7.887   5.348   7.185  1.00  0.00    -0.267 OA
HETATM    2  N1  UNK     1       9.761   5.824   8.487  1.00  0.00    -0.352 N 
HETATM    3  C10 UNK     1       8.439   5.493   8.270  1.00  0.00     0.258 C 
HETATM    4  H11 UNK     1      10.114   5.902   9.435  1.00  0.00     0.163 HD
ENDROOT
BRANCH   2   5
HETATM    5  C2  UNK     1      10.698   6.051   7.409  1.00  0.00     0.084 C 
HETATM    6  C5  UNK     1      11.925   5.148   7.553  1.00  0.00     0.026 C 
HETATM    7  C3  UNK     1      12.849   5.586   8.692  1.00  0.00     0.011 C 
HETATM    8  C1  UNK     1      13.258   7.061   8.547  1.00  0.00     0.019 C 
HETATM    9  C4  UNK     1      12.022   7.971   8.446  1.00  0.00     0.011 C 
HETATM   10  C6  UNK     1      11.090   7.529   7.315  1.00  0.00     0.026 C 
BRANCH   8  11
HETATM   11  C7  UNK     1      14.190   7.500   9.663  1.00  0.00    -0.054 A 
HETATM   12  C8  UNK     1      13.758   8.429  10.609  1.00  0.00     0.007 A 
HETATM   13  C11 UNK     1      14.614   8.831  11.634  1.00  0.00     0.001 A 
HETATM   14  C14 UNK     1      15.904   8.304  11.712  1.00  0.00     0.000 A 
HETATM   15  C12 UNK     1      16.336   7.375  10.766  1.00  0.00     0.001 A 
HETATM   16  C9  UNK     1      15.480   6.972   9.742  1.00  0.00     0.007 A 
ENDBRANCH   8  11
ENDBRANCH   2   5
BRANCH   3  17
HETATM   17  C13 UNK     1       7.686   5.310   9.525  1.00  0.00     0.108 A 
HETATM   18  C15 UNK     1       7.157   4.098   9.726  1.00  0.00     0.037 A 
HETATM   19  C17 UNK     1       6.397   3.820  10.935  1.00  0.00    -0.001 A 
HETATM   20  C18 UNK     1       6.231   4.835  11.873  1.00  0.00     0.089 A 
HETATM   21  C19 UNK     1       5.827   2.570  11.186  1.00  0.00     0.014 A 
HETATM   22  O2  UNK     1       6.790   6.109  11.655  1.00  0.00    -0.274 OA
HETATM   23  C20 UNK     1       5.514   4.635  13.051  1.00  0.00     0.038 A 
HETATM   24  C16 UNK     1       7.523   6.404  10.509  1.00  0.00     0.304 A 
HETATM   25  O3  UNK     1       8.006   7.517  10.327  1.00  0.00    -0.259 OA
HETATM   26  C22 UNK     1       4.949   3.385  13.294  1.00  0.00     0.003 A 
HETATM   27  C21 UNK     1       5.105   2.354  12.364  1.00  0.00     0.001 A 
ENDBRANCH   3  17
TORSDOF 3
ENDMDL
MODEL 5
REMARK VINA RESULT:      -8.9     32.246     34.550
REMARK  3 active torsions:
REMARK  status: ('A' for Active; 'I' for Inactive)
REMARK       I    between atoms: C10_14  and  N1_4 
REMARK    1  A    between atoms: C2_6  and  N1_4 
REMARK    2  A    between atoms: C1_5  and  C7_11 
REMARK    3  A    between atoms: C10_14  and  C13_17 
ROOT
HETATM    1  O1  UNK     1       8.358   6.494   6.926  1.00  0.00    -0.267 OA
HETATM    2  N1  UNK     1      10.119   5.839   8.305  1.00  0.00    -0.352 N 
HETATM    3  C10 UNK     1       8.813   6.184   8.021  1.00  0.00     0.258 C 
HETATM    4  H11 UNK     1      10.380   5.583   9.251  1.00  0.00     0.163 HD
ENDROOT
BRANCH   2   5
HETATM    5  C2  UNK     1      11.155   5.801   7.297  1.00  0.00     0.084 C 
HETATM    6  C5  UNK     1      12.272   4.835   7.698  1.00  0.00     0.026 C 
HETATM    7  C3  UNK     1      13.143   5.378   8.833  1.00  0.00     0.011 C 
HETATM    8  C1  UNK     1      13.706   6.768   8.492  1.00  0.00     0.019 C 
HETATM    9  C4  UNK     1      12.578   7.749   8.131  1.00  0.00     0.011 C 
HETATM   10  C6  UNK     1      11.697   7.203   7.004  1.00  0.00     0.026 C 
BRANCH   8  11
HETATM   11  C7  UNK     1      14.587   7.308   9.605  1.00  0.00    -0.054 A 
HETATM   12  C8  UNK     1      15.888   6.831   9.758  1.00  0.00     0.007 A 
HETATM   13  C11 UNK     1      16.698   7.327  10.780  1.00  0.00     0.001 A 
HETATM   14  C14 UNK     1      16.205   8.301  11.649  1.00  0.00     0.000 A 
HETATM   15  C12 UNK     1      14.903   8.778  11.496  1.00  0.00     0.001 A 
HETATM   16  C9  UNK     1      14.094   8.282  10.474  1.00  0.00     0.007 A 
ENDBRANCH   8  11
ENDBRANCH   2   5
BRANCH   3  17
HETATM   17  C13 UNK     1       7.945   6.147   9.212  1.00  0.00     0.108 A 
HETATM   18  C15 UNK     1       7.167   7.218   9.411  1.00  0.00     0.037 A 
HETATM   19  C17 UNK     1       6.275   7.275  10.558  1.00  0.00    -0.001 A 
HETATM   20  C18 UNK     1       6.248   6.200  11.442  1.00  0.00     0.089 A 
HETATM   21  C19 UNK     1       5.446   8.372  10.804  1.00  0.00     0.014 A 
HETATM   22  O2  UNK     1       7.069   5.077  11.229  1.00  0.00    -0.274 OA
HETATM   23  C20 UNK     1       5.417   6.192  12.562  1.00  0.00     0.038 A 
HETATM   24  C16 UNK     1       7.931   4.993  10.139  1.00  0.00     0.304 A 
HETATM   25  O3  UNK     1       8.644   4.011   9.961  1.00  0.00    -0.259 OA
HETATM   26  C22 UNK     1       4.593   7.290  12.799  1.00  0.00     0.003 A 
HETATM   27  C21 UNK     1       4.607   8.378  11.923  1.00  0.00     0.001 A 
ENDBRANCH   3  17
TORSDOF 3
ENDMDL
MODEL 6
REMARK VINA RESULT:      -8.9     32.441     35.103
REMARK  3 active torsions:
REMARK  status: ('A' for Active; 'I' for Inactive)
REMARK       I    between atoms: C10_14  and  N1_4 
REMARK    1  A    between atoms: C2_6  and  N1_4 
REMARK    2  A    between atoms: C1_5  and  C7_11 
REMARK    3  A    between atoms: C10_14  and  C13_17 
ROOT
HETATM    1  O1  UNK     1      11.076   6.956   6.698  1.00  0.00    -0.267 OA
HETATM    2  N1  UNK     1       9.932   6.846   8.726  1.00  0.00    -0.352 N 
HETATM    3  C10 UNK     1      11.045   6.992   7.923  1.00  0.00     0.258 C 
HETATM    4  H11 UNK     1      10.024   6.910   9.734  1.00  0.00     0.163 HD
ENDROOT
BRANCH   2   5
HETATM    5  C2  UNK     1       8.607   6.624   8.193  1.00  0.00     0.084 C 
HETATM    6  C5  UNK     1       7.652   7.742   8.619  1.00  0.00     0.026 C 
HETATM    7  C3  UNK     1       7.270   7.659  10.098  1.00  0.00     0.011 C 
HETATM    8  C1  UNK     1       6.699   6.276  10.455  1.00  0.00     0.019 C 
HETATM    9  C4  UNK     1       7.679   5.156  10.065  1.00  0.00     0.011 C 
HETATM   10  C6  UNK     1       8.074   5.243   8.588  1.00  0.00     0.026 C 
BRANCH   8  11
HETATM   11  C7  UNK     1       6.300   6.190  11.917  1.00  0.00    -0.054 A 
HETATM   12  C8  UNK     1       6.252   4.952  12.556  1.00  0.00     0.007 A 
HETATM   13  C11 UNK     1       5.886   4.873  13.900  1.00  0.00     0.001 A 
HETATM   14  C14 UNK     1       5.565   6.034  14.604  1.00  0.00     0.000 A 
HETATM   15  C12 UNK     1       5.611   7.273  13.965  1.00  0.00     0.001 A 
HETATM   16  C9  UNK     1       5.979   7.351  12.621  1.00  0.00     0.007 A 
ENDBRANCH   8  11
ENDBRANCH   2   5
BRANCH   3  17
HETATM   17  C13 UNK     1      12.280   7.211   8.698  1.00  0.00     0.108 A 
HETATM   18  C15 UNK     1      13.044   8.241   8.316  1.00  0.00     0.037 A 
HETATM   19  C17 UNK     1      14.282   8.538   9.019  1.00  0.00    -0.001 A 
HETATM   20  C18 UNK     1      14.655   7.734  10.092  1.00  0.00     0.089 A 
HETATM   21  C19 UNK     1      15.109   9.602   8.654  1.00  0.00     0.014 A 
HETATM   22  O2  UNK     1      13.848   6.651  10.490  1.00  0.00    -0.274 OA
HETATM   23  C20 UNK     1      15.829   7.964  10.808  1.00  0.00     0.038 A 
HETATM   24  C16 UNK     1      12.657   6.343   9.836  1.00  0.00     0.304 A 
HETATM   25  O3  UNK     1      11.960   5.398  10.189  1.00  0.00    -0.259 OA
HETATM   26  C22 UNK     1      16.648   9.028  10.437  1.00  0.00     0.003 A 
HETATM   27  C21 UNK     1      16.290   9.845   9.363  1.00  0.00     0.001 A 
ENDBRANCH   3  17
TORSDOF 3
ENDMDL
MODEL 7
REMARK VINA RESULT:      -8.8     32.928     34.793
REMARK  3 active torsions:
REMARK  status: ('A' for Active; 'I' for Inactive)
REMARK       I    between atoms: C10_14  and  N1_4 
REMARK    1  A    between atoms: C2_6  and  N1_4 
REMARK    2  A    between atoms: C1_5  and  C7_11 
REMARK    3  A    between atoms: C10_14  and  C13_17 
ROOT
HETATM    1  O1  UNK     1      14.048   5.421  10.434  1.00  0.00    -0.267 OA
HETATM    2  N1  UNK     1      14.340   7.712  10.115  1.00  0.00    -0.352 N 
HETATM    3  C10 UNK     1      13.790   6.472   9.857  1.00  0.00     0.258 C 
HETATM    4  H11 UNK     1      14.037   8.520   9.582  1.00  0.00     0.163 HD
ENDROOT
BRANCH   2   5
HETATM    5  C2  UNK     1      15.333   7.929  11.144  1.00  0.00     0.084 C 
HETATM    6  C5  UNK     1      15.249   9.356  11.691  1.00  0.00     0.026 C 
HETATM    7  C3  UNK     1      15.779  10.398  10.705  1.00  0.00     0.011 C 
HETATM    8  C1  UNK     1      17.208  10.062  10.246  1.00  0.00     0.019 C 
HETATM    9  C4  UNK     1      17.281   8.643   9.656  1.00  0.00     0.011 C 
HETATM   10  C6  UNK     1      16.740   7.599  10.636  1.00  0.00     0.026 C 
BRANCH   8  11
HETATM   11  C7  UNK     1      17.749  11.102   9.280  1.00  0.00    -0.054 A 
HETATM   12  C8  UNK     1      17.014  11.453   8.148  1.00  0.00     0.007 A 
HETATM   13  C11 UNK     1      17.511  12.408   7.262  1.00  0.00     0.001 A 
HETATM   14  C14 UNK     1      18.745  13.012   7.508  1.00  0.00     0.000 A 
HETATM   15  C12 UNK     1      19.480  12.660   8.639  1.00  0.00     0.001 A 
HETATM   16  C9  UNK     1      18.983  11.706   9.526  1.00  0.00     0.007 A 
ENDBRANCH   8  11
ENDBRANCH   2   5
BRANCH   3  17
HETATM   17  C13 UNK     1      12.800   6.507   8.766  1.00  0.00     0.108 A 
HETATM   18  C15 UNK     1      11.514   6.455   9.131  1.00  0.00     0.037 A 
HETATM   19  C17 UNK     1      10.463   6.484   8.127  1.00  0.00    -0.001 A 
HETATM   20  C18 UNK     1      10.819   6.564   6.784  1.00  0.00     0.089 A 
HETATM   21  C19 UNK     1       9.108   6.433   8.463  1.00  0.00     0.014 A 
HETATM   22  O2  UNK     1      12.174   6.617   6.404  1.00  0.00    -0.274 OA
HETATM   23  C20 UNK     1       9.861   6.595   5.771  1.00  0.00     0.038 A 
HETATM   24  C16 UNK     1      13.202   6.593   7.344  1.00  0.00     0.304 A 
HETATM   25  O3  UNK     1      14.379   6.639   7.004  1.00  0.00    -0.259 OA
HETATM   26  C22 UNK     1       8.512   6.543   6.116  1.00  0.00     0.003 A 
HETATM   27  C21 UNK     1       8.136   6.463   7.458  1.00  0.00     0.001 A 
ENDBRANCH   3  17
TORSDOF 3
ENDMDL
MODEL 8
REMARK VINA RESULT:      -8.7      7.844     10.919
REMARK  3 active torsions:
REMARK  status: ('A' for Active; 'I' for Inactive)
REMARK       I    between atoms: C10_14  and  N1_4 
REMARK    1  A    between atoms: C2_6  and  N1_4 
REMARK    2  A    between atoms: C1_5  and  C7_11 
REMARK    3  A    between atoms: C10_14  and  C13_17 
ROOT
HETATM    1  O1  UNK     1      36.482  -7.243  32.344  1.00  0.00    -0.267 OA
HETATM    2  N1  UNK     1      34.620  -6.289  33.372  1.00  0.00    -0.352 N 
HETATM    3  C10 UNK     1      35.286  -6.974  32.376  1.00  0.00     0.258 C 
HETATM    4  H11 UNK     1      33.620  -6.138  33.300  1.00  0.00     0.163 HD
ENDROOT
BRANCH   2   5
HETATM    5  C2  UNK     1      35.285  -5.783  34.553  1.00  0.00     0.084 C 
HETATM    6  C5  UNK     1      35.148  -6.764  35.719  1.00  0.00     0.026 C 
HETATM    7  C3  UNK     1      33.735  -6.792  36.305  1.00  0.00     0.011 C 
HETATM    8  C1  UNK     1      33.265  -5.384  36.705  1.00  0.00     0.019 C 
HETATM    9  C4  UNK     1      33.363  -4.409  35.519  1.00  0.00     0.011 C 
HETATM   10  C6  UNK     1      34.773  -4.388  34.923  1.00  0.00     0.026 C 
BRANCH   8  11
HETATM   11  C7  UNK     1      31.870  -5.404  37.305  1.00  0.00    -0.054 A 
HETATM   12  C8  UNK     1      31.373  -6.575  37.875  1.00  0.00     0.007 A 
HETATM   13  C11 UNK     1      30.092  -6.593  38.426  1.00  0.00     0.001 A 
HETATM   14  C14 UNK     1      29.308  -5.439  38.406  1.00  0.00     0.000 A 
HETATM   15  C12 UNK     1      29.805  -4.268  37.835  1.00  0.00     0.001 A 
HETATM   16  C9  UNK     1      31.086  -4.250  37.285  1.00  0.00     0.007 A 
ENDBRANCH   8  11
ENDBRANCH   2   5
BRANCH   3  17
HETATM   17  C13 UNK     1      34.393  -7.390  31.279  1.00  0.00     0.108 A 
HETATM   18  C15 UNK     1      33.394  -8.216  31.610  1.00  0.00     0.037 A 
HETATM   19  C17 UNK     1      32.460  -8.682  30.597  1.00  0.00    -0.001 A 
HETATM   20  C18 UNK     1      32.625  -8.254  29.283  1.00  0.00     0.089 A 
HETATM   21  C19 UNK     1      31.404  -9.545  30.898  1.00  0.00     0.014 A 
HETATM   22  O2  UNK     1      33.678  -7.385  28.940  1.00  0.00    -0.274 OA
HETATM   23  C20 UNK     1      31.766  -8.664  28.265  1.00  0.00     0.038 A 
HETATM   24  C16 UNK     1      34.587  -6.922  29.888  1.00  0.00     0.304 A 
HETATM   25  O3  UNK     1      35.502  -6.165  29.580  1.00  0.00    -0.259 OA
HETATM   26  C22 UNK     1      30.714  -9.524  28.574  1.00  0.00     0.003 A 
HETATM   27  C21 UNK     1      30.533  -9.964  29.887  1.00  0.00     0.001 A 
ENDBRANCH   3  17
TORSDOF 3
ENDMDL
MODEL 9
REMARK VINA RESULT:      -8.7     32.160     34.395
REMARK  3 active torsions:
REMARK  status: ('A' for Active; 'I' for Inactive)
REMARK       I    between atoms: C10_14  and  N1_4 
REMARK    1  A    between atoms: C2_6  and  N1_4 
REMARK    2  A    between atoms: C1_5  and  C7_11 
REMARK    3  A    between atoms: C10_14  and  C13_17 
ROOT
HETATM    1  O1  UNK     1       6.932   7.351   8.882  1.00  0.00    -0.267 OA
HETATM    2  N1  UNK     1       8.652   5.885   8.312  1.00  0.00    -0.352 N 
HETATM    3  C10 UNK     1       7.510   6.274   8.982  1.00  0.00     0.258 C 
HETATM    4  H11 UNK     1       9.035   4.957   8.462  1.00  0.00     0.163 HD
ENDROOT
BRANCH   2   5
HETATM    5  C2  UNK     1       9.336   6.740   7.368  1.00  0.00     0.084 C 
HETATM    6  C5  UNK     1      10.365   5.948   6.559  1.00  0.00     0.026 C 
HETATM    7  C3  UNK     1      11.596   5.565   7.382  1.00  0.00     0.011 C 
HETATM    8  C1  UNK     1      12.238   6.798   8.040  1.00  0.00     0.019 C 
HETATM    9  C4  UNK     1      11.212   7.570   8.888  1.00  0.00     0.011 C 
HETATM   10  C6  UNK     1       9.974   7.944   8.071  1.00  0.00     0.026 C 
BRANCH   8  11
HETATM   11  C7  UNK     1      13.472   6.431   8.845  1.00  0.00    -0.054 A 
HETATM   12  C8  UNK     1      14.211   7.426   9.483  1.00  0.00     0.007 A 
HETATM   13  C11 UNK     1      15.344   7.088  10.223  1.00  0.00     0.001 A 
HETATM   14  C14 UNK     1      15.738   5.754  10.323  1.00  0.00     0.000 A 
HETATM   15  C12 UNK     1      15.000   4.758   9.685  1.00  0.00     0.001 A 
HETATM   16  C9  UNK     1      13.866   5.096   8.945  1.00  0.00     0.007 A 
ENDBRANCH   8  11
ENDBRANCH   2   5
BRANCH   3  17
HETATM   17  C13 UNK     1       6.998   5.228   9.886  1.00  0.00     0.108 A 
HETATM   18  C15 UNK     1       6.696   5.618  11.130  1.00  0.00     0.037 A 
HETATM   19  C17 UNK     1       6.183   4.659  12.096  1.00  0.00    -0.001 A 
HETATM   20  C18 UNK     1       6.015   3.334  11.703  1.00  0.00     0.089 A 
HETATM   21  C19 UNK     1       5.854   5.021  13.404  1.00  0.00     0.014 A 
HETATM   22  O2  UNK     1       6.335   2.929  10.393  1.00  0.00    -0.274 OA
HETATM   23  C20 UNK     1       5.529   2.365  12.579  1.00  0.00     0.038 A 
HETATM   24  C16 UNK     1       6.826   3.826   9.447  1.00  0.00     0.304 A 
HETATM   25  O3  UNK     1       7.103   3.465   8.308  1.00  0.00    -0.259 OA
HETATM   26  C22 UNK     1       5.203   2.735  13.882  1.00  0.00     0.003 A 
HETATM   27  C21 UNK     1       5.365   4.059  14.294  1.00  0.00     0.001 A 
ENDBRANCH   3  17
TORSDOF 3
ENDMDL
MODEL 10
REMARK VINA RESULT:      -8.5     18.788     21.323
REMARK  3 active torsions:
REMARK  status: ('A' for Active; 'I' for Inactive)
REMARK       I    between atoms: C10_14  and  N1_4 
REMARK    1  A    between atoms: C2_6  and  N1_4 
REMARK    2  A    between atoms: C1_5  and  C7_11 
REMARK    3  A    between atoms: C10_14  and  C13_17 
ROOT
HETATM    1  O1  UNK     1      15.098  10.642  35.853  1.00  0.00    -0.267 OA
HETATM    2  N1  UNK     1      15.838  10.069  33.719  1.00  0.00    -0.352 N 
HETATM    3  C10 UNK     1      15.693  10.898  34.812  1.00  0.00     0.258 C 
HETATM    4  H11 UNK     1      16.369  10.383  32.913  1.00  0.00     0.163 HD
ENDROOT
BRANCH   2   5
HETATM    5  C2  UNK     1      15.280   8.736  33.668  1.00  0.00     0.084 C 
HETATM    6  C5  UNK     1      16.076   7.776  34.556  1.00  0.00     0.026 C 
HETATM    7  C3  UNK     1      17.442   7.423  33.966  1.00  0.00     0.011 C 
HETATM    8  C1  UNK     1      17.313   6.877  32.534  1.00  0.00     0.019 C 
HETATM    9  C4  UNK     1      16.550   7.863  31.633  1.00  0.00     0.011 C 
HETATM   10  C6  UNK     1      15.187   8.228  32.226  1.00  0.00     0.026 C 
BRANCH   8  11
HETATM   11  C7  UNK     1      18.663   6.506  31.947  1.00  0.00    -0.054 A 
HETATM   12  C8  UNK     1      19.801   6.516  32.754  1.00  0.00     0.007 A 
HETATM   13  C11 UNK     1      21.041   6.175  32.215  1.00  0.00     0.001 A 
HETATM   14  C14 UNK     1      21.143   5.824  30.868  1.00  0.00     0.000 A 
HETATM   15  C12 UNK     1      20.006   5.815  30.062  1.00  0.00     0.001 A 
HETATM   16  C9  UNK     1      18.765   6.155  30.601  1.00  0.00     0.007 A 
ENDBRANCH   8  11
ENDBRANCH   2   5
BRANCH   3  17
HETATM   17  C13 UNK     1      16.352  12.204  34.626  1.00  0.00     0.108 A 
HETATM   18  C15 UNK     1      15.663  13.278  35.029  1.00  0.00     0.037 A 
HETATM   19  C17 UNK     1      16.230  14.610  34.888  1.00  0.00    -0.001 A 
HETATM   20  C18 UNK     1      17.497  14.745  34.326  1.00  0.00     0.089 A 
HETATM   21  C19 UNK     1      15.547  15.758  35.295  1.00  0.00     0.014 A 
HETATM   22  O2  UNK     1      18.217  13.612  33.903  1.00  0.00    -0.274 OA
HETATM   23  C20 UNK     1      18.096  15.992  34.161  1.00  0.00     0.038 A 
HETATM   24  C16 UNK     1      17.700  12.324  34.027  1.00  0.00     0.304 A 
HETATM   25  O3  UNK     1      18.335  11.343  33.655  1.00  0.00    -0.259 OA
HETATM   26  C22 UNK     1      17.408  17.132  34.571  1.00  0.00     0.003 A 
HETATM   27  C21 UNK     1      16.136  17.016  35.136  1.00  0.00     0.001 A 
ENDBRANCH   3  17
TORSDOF 3
ENDMDL
