MODEL 1
REMARK VINA RESULT:      -9.4      0.000      0.000
REMARK  7 active torsions:
REMARK  status: ('A' for Active; 'I' for Inactive)
REMARK    1  A    between atoms: C15_22  and  O3_3 
REMARK    2  A    between atoms: C22_29  and  O3_3 
REMARK    3  A    between atoms: C5_12  and  N1_5 
REMARK    4  A    between atoms: C6_13  and  N2_6 
REMARK    5  A    between atoms: C17_24  and  N3_7 
REMARK       I    between atoms: C9_16  and  N3_7 
REMARK    6  A    between atoms: C5_12  and  C7_14 
REMARK    7  A    between atoms: C6_13  and  C9_16 
ROOT
HETATM    1  N1  UNK     1      19.292  -3.216  36.367  1.00  0.00     0.096 N 
HETATM    2  N2  UNK     1      18.439  -0.493  35.900  1.00  0.00     0.100 N 
HETATM    3  C1  UNK     1      18.821  -2.365  37.466  1.00  0.00     0.303 C 
HETATM    4  C2  UNK     1      19.899  -2.397  35.309  1.00  0.00     0.303 C 
HETATM    5  C3  UNK     1      17.832  -1.311  36.957  1.00  0.00     0.303 C 
HETATM    6  C4  UNK     1      18.909  -1.344  34.800  1.00  0.00     0.303 C 
ENDROOT
BRANCH   1   7
HETATM    7  C5  UNK     1      20.239  -4.218  36.855  1.00  0.00     0.312 C 
BRANCH   7   8
HETATM    8  C7  UNK     1      19.680  -5.597  36.789  1.00  0.00    -0.011 A 
HETATM    9  C10 UNK     1      18.589  -5.867  36.058  1.00  0.00     0.092 A 
HETATM   10  C13 UNK     1      18.001  -7.214  35.962  1.00  0.00     0.288 A 
HETATM   11  O1  UNK     1      18.632  -8.222  36.674  1.00  0.00    -0.275 OA
HETATM   12  O4  UNK     1      17.002  -7.424  35.283  1.00  0.00    -0.260 OA
HETATM   13  C11 UNK     1      19.780  -7.967  37.451  1.00  0.00     0.090 A 
HETATM   14  C8  UNK     1      20.327  -6.686  37.533  1.00  0.00     0.009 A 
HETATM   15  C14 UNK     1      20.331  -9.059  38.126  1.00  0.00     0.041 A 
HETATM   16  C12 UNK     1      21.468  -6.516  38.328  1.00  0.00     0.051 A 
HETATM   17  C15 UNK     1      22.032  -7.599  39.010  1.00  0.00     0.069 A 
HETATM   18  C16 UNK     1      21.465  -8.869  38.910  1.00  0.00     0.039 A 
BRANCH  17  19
HETATM   19  O3  UNK     1      23.141  -7.413  39.778  1.00  0.00    -0.351 OA
BRANCH  19  20
HETATM   20  C22 UNK     1      24.323  -6.970  39.113  1.00  0.00     0.171 C 
HETATM   21  C24 UNK     1      25.162  -8.174  38.745  1.00  0.00     0.034 C 
ENDBRANCH  19  20
ENDBRANCH  17  19
ENDBRANCH   7   8
ENDBRANCH   1   7
BRANCH   2  22
HETATM   22  C6  UNK     1      17.495   0.511  35.413  1.00  0.00     0.375 C 
BRANCH  22  23
HETATM   23  C9  UNK     1      18.260   1.652  34.766  1.00  0.00     0.250 C 
HETATM   24  O2  UNK     1      19.230   2.183  35.297  1.00  0.00    -0.271 OA
HETATM   25  N3  UNK     1      17.701   1.967  33.529  1.00  0.00    -0.326 N 
HETATM   26  H15 UNK     1      16.898   1.423  33.221  1.00  0.00     0.169 HD
BRANCH  25  27
HETATM   27  C17 UNK     1      18.122   2.966  32.620  1.00  0.00     0.034 A 
HETATM   28  C18 UNK     1      18.439   2.623  31.305  1.00  0.00     0.030 A 
HETATM   29  C20 UNK     1      18.854   3.608  30.409  1.00  0.00     0.009 A 
HETATM   30  C23 UNK     1      18.951   4.935  30.826  1.00  0.00    -0.062 A 
HETATM   31  C21 UNK     1      18.634   5.278  32.141  1.00  0.00     0.009 A 
HETATM   32  C25 UNK     1      19.395   5.988  29.868  1.00  0.00     0.048 C 
HETATM   33  C19 UNK     1      18.220   4.292  33.038  1.00  0.00     0.030 A 
ENDBRANCH  25  27
ENDBRANCH  22  23
ENDBRANCH   2  22
TORSDOF 7
ENDMDL
MODEL 2
REMARK VINA RESULT:      -9.1      5.899      8.832
REMARK  7 active torsions:
REMARK  status: ('A' for Active; 'I' for Inactive)
REMARK    1  A    between atoms: C15_22  and  O3_3 
REMARK    2  A    between atoms: C22_29  and  O3_3 
REMARK    3  A    between atoms: C5_12  and  N1_5 
REMARK    4  A    between atoms: C6_13  and  N2_6 
REMARK    5  A    between atoms: C17_24  and  N3_7 
REMARK       I    between atoms: C9_16  and  N3_7 
REMARK    6  A    between atoms: C5_12  and  C7_14 
REMARK    7  A    between atoms: C6_13  and  C9_16 
ROOT
HETATM    1  N1  UNK     1      18.897   3.645  31.301  1.00  0.00     0.096 N 
HETATM    2  N2  UNK     1      19.230   6.309  32.374  1.00  0.00     0.100 N 
HETATM    3  C1  UNK     1      19.370   4.752  30.461  1.00  0.00     0.303 C 
HETATM    4  C2  UNK     1      18.029   4.149  32.373  1.00  0.00     0.303 C 
HETATM    5  C3  UNK     1      20.097   5.805  31.302  1.00  0.00     0.303 C 
HETATM    6  C4  UNK     1      18.759   5.202  33.215  1.00  0.00     0.303 C 
ENDROOT
BRANCH   1   7
HETATM    7  C5  UNK     1      18.199   2.643  30.496  1.00  0.00     0.312 C 
BRANCH   7   8
HETATM    8  C7  UNK     1      18.928   1.345  30.460  1.00  0.00    -0.011 A 
HETATM    9  C10 UNK     1      19.587   0.951  29.361  1.00  0.00     0.092 A 
HETATM   10  C13 UNK     1      20.321  -0.323  29.279  1.00  0.00     0.288 A 
HETATM   11  O1  UNK     1      20.306  -1.125  30.409  1.00  0.00    -0.275 OA
HETATM   12  O4  UNK     1      20.913  -0.650  28.256  1.00  0.00    -0.260 OA
HETATM   13  C11 UNK     1      19.622  -0.738  31.578  1.00  0.00     0.090 A 
HETATM   14  C8  UNK     1      18.930   0.473  31.643  1.00  0.00     0.009 A 
HETATM   15  C14 UNK     1      19.675  -1.626  32.655  1.00  0.00     0.041 A 
HETATM   16  C12 UNK     1      18.274   0.783  32.842  1.00  0.00     0.051 A 
HETATM   17  C15 UNK     1      18.318  -0.096  33.929  1.00  0.00     0.069 A 
HETATM   18  C16 UNK     1      19.017  -1.298  33.837  1.00  0.00     0.039 A 
BRANCH  17  19
HETATM   19  O3  UNK     1      17.673   0.225  35.085  1.00  0.00    -0.351 OA
BRANCH  19  20
HETATM   20  C22 UNK     1      18.486   0.529  36.218  1.00  0.00     0.171 C 
HETATM   21  C24 UNK     1      18.989   1.951  36.096  1.00  0.00     0.034 C 
ENDBRANCH  19  20
ENDBRANCH  17  19
ENDBRANCH   7   8
ENDBRANCH   1   7
BRANCH   2  22
HETATM   22  C6  UNK     1      19.925   7.312  33.177  1.00  0.00     0.375 C 
BRANCH  22  23
HETATM   23  C9  UNK     1      18.936   7.985  34.112  1.00  0.00     0.250 C 
HETATM   24  O2  UNK     1      19.036   7.926  35.334  1.00  0.00    -0.271 OA
HETATM   25  N3  UNK     1      17.956   8.651  33.380  1.00  0.00    -0.326 N 
HETATM   26  H15 UNK     1      18.017   8.614  32.364  1.00  0.00     0.169 HD
BRANCH  25  27
HETATM   27  C17 UNK     1      16.861   9.395  33.878  1.00  0.00     0.034 A 
HETATM   28  C18 UNK     1      15.621   8.781  34.050  1.00  0.00     0.030 A 
HETATM   29  C20 UNK     1      14.541   9.515  34.542  1.00  0.00     0.009 A 
HETATM   30  C23 UNK     1      14.702  10.863  34.863  1.00  0.00    -0.062 A 
HETATM   31  C21 UNK     1      15.943  11.477  34.691  1.00  0.00     0.009 A 
HETATM   32  C25 UNK     1      13.548  11.647  35.389  1.00  0.00     0.048 C 
HETATM   33  C19 UNK     1      17.022  10.743  34.198  1.00  0.00     0.030 A 
ENDBRANCH  25  27
ENDBRANCH  22  23
ENDBRANCH   2  22
TORSDOF 7
ENDMDL
MODEL 3
REMARK VINA RESULT:      -8.7      2.550     11.546
REMARK  7 active torsions:
REMARK  status: ('A' for Active; 'I' for Inactive)
REMARK    1  A    between atoms: C15_22  and  O3_3 
REMARK    2  A    between atoms: C22_29  and  O3_3 
REMARK    3  A    between atoms: C5_12  and  N1_5 
REMARK    4  A    between atoms: C6_13  and  N2_6 
REMARK    5  A    between atoms: C17_24  and  N3_7 
REMARK       I    between atoms: C9_16  and  N3_7 
REMARK    6  A    between atoms: C5_12  and  C7_14 
REMARK    7  A    between atoms: C6_13  and  C9_16 
ROOT
HETATM    1  N1  UNK     1      17.887   1.480  35.169  1.00  0.00     0.096 N 
HETATM    2  N2  UNK     1      18.218  -1.031  36.564  1.00  0.00     0.100 N 
HETATM    3  C1  UNK     1      18.961   0.544  34.812  1.00  0.00     0.303 C 
HETATM    4  C2  UNK     1      17.542   1.345  36.591  1.00  0.00     0.303 C 
HETATM    5  C3  UNK     1      18.563  -0.897  35.144  1.00  0.00     0.303 C 
HETATM    6  C4  UNK     1      17.144  -0.097  36.921  1.00  0.00     0.303 C 
ENDROOT
BRANCH   1   7
HETATM    7  C5  UNK     1      18.271   2.855  34.856  1.00  0.00     0.312 C 
BRANCH   7   8
HETATM    8  C7  UNK     1      18.320   3.104  33.389  1.00  0.00    -0.011 A 
HETATM    9  C10 UNK     1      18.340   2.088  32.514  1.00  0.00     0.092 A 
HETATM   10  C13 UNK     1      18.388   2.285  31.056  1.00  0.00     0.288 A 
HETATM   11  O1  UNK     1      18.413   3.595  30.604  1.00  0.00    -0.275 OA
HETATM   12  O4  UNK     1      18.406   1.330  30.286  1.00  0.00    -0.260 OA
HETATM   13  C11 UNK     1      18.392   4.683  31.499  1.00  0.00     0.090 A 
HETATM   14  C8  UNK     1      18.347   4.482  32.879  1.00  0.00     0.009 A 
HETATM   15  C14 UNK     1      18.421   5.959  30.931  1.00  0.00     0.041 A 
HETATM   16  C12 UNK     1      18.330   5.617  33.701  1.00  0.00     0.051 A 
HETATM   17  C15 UNK     1      18.359   6.901  33.148  1.00  0.00     0.069 A 
HETATM   18  C16 UNK     1      18.404   7.073  31.765  1.00  0.00     0.039 A 
BRANCH  17  19
HETATM   19  O3  UNK     1      18.343   7.991  33.964  1.00  0.00    -0.351 OA
BRANCH  19  20
HETATM   20  C22 UNK     1      19.423   8.126  34.887  1.00  0.00     0.171 C 
HETATM   21  C24 UNK     1      20.282   9.300  34.470  1.00  0.00     0.034 C 
ENDBRANCH  19  20
ENDBRANCH  17  19
ENDBRANCH   7   8
ENDBRANCH   1   7
BRANCH   2  22
HETATM   22  C6  UNK     1      17.837  -2.406  36.879  1.00  0.00     0.375 C 
BRANCH  22  23
HETATM   23  C9  UNK     1      19.070  -3.292  36.848  1.00  0.00     0.250 C 
HETATM   24  O2  UNK     1      20.200  -2.860  37.054  1.00  0.00    -0.271 OA
HETATM   25  N3  UNK     1      18.711  -4.609  36.569  1.00  0.00    -0.326 N 
HETATM   26  H15 UNK     1      17.722  -4.811  36.432  1.00  0.00     0.169 HD
BRANCH  25  27
HETATM   27  C17 UNK     1      19.564  -5.732  36.455  1.00  0.00     0.034 A 
HETATM   28  C18 UNK     1      20.231  -6.218  37.579  1.00  0.00     0.030 A 
HETATM   29  C20 UNK     1      21.072  -7.324  37.467  1.00  0.00     0.009 A 
HETATM   30  C23 UNK     1      21.246  -7.946  36.230  1.00  0.00    -0.062 A 
HETATM   31  C21 UNK     1      20.579  -7.460  35.105  1.00  0.00     0.009 A 
HETATM   32  C25 UNK     1      22.146  -9.130  36.111  1.00  0.00     0.048 C 
HETATM   33  C19 UNK     1      19.739  -6.352  35.218  1.00  0.00     0.030 A 
ENDBRANCH  25  27
ENDBRANCH  22  23
ENDBRANCH   2  22
TORSDOF 7
ENDMDL
MODEL 4
REMARK VINA RESULT:      -8.7      6.967     13.177
REMARK  7 active torsions:
REMARK  status: ('A' for Active; 'I' for Inactive)
REMARK    1  A    between atoms: C15_22  and  O3_3 
REMARK    2  A    between atoms: C22_29  and  O3_3 
REMARK    3  A    between atoms: C5_12  and  N1_5 
REMARK    4  A    between atoms: C6_13  and  N2_6 
REMARK    5  A    between atoms: C17_24  and  N3_7 
REMARK       I    between atoms: C9_16  and  N3_7 
REMARK    6  A    between atoms: C5_12  and  C7_14 
REMARK    7  A    between atoms: C6_13  and  C9_16 
ROOT
HETATM    1  N1  UNK     1      18.298   5.737  33.007  1.00  0.00     0.096 N 
HETATM    2  N2  UNK     1      18.808   4.178  30.627  1.00  0.00     0.100 N 
HETATM    3  C1  UNK     1      19.241   6.198  31.981  1.00  0.00     0.303 C 
HETATM    4  C2  UNK     1      18.242   4.269  33.030  1.00  0.00     0.303 C 
HETATM    5  C3  UNK     1      18.863   5.645  30.604  1.00  0.00     0.303 C 
HETATM    6  C4  UNK     1      17.864   3.717  31.651  1.00  0.00     0.303 C 
ENDROOT
BRANCH   1   7
HETATM    7  C5  UNK     1      18.663   6.262  34.322  1.00  0.00     0.312 C 
BRANCH   7   8
HETATM    8  C7  UNK     1      18.857   7.739  34.302  1.00  0.00    -0.011 A 
HETATM    9  C10 UNK     1      20.081   8.277  34.404  1.00  0.00     0.092 A 
HETATM   10  C13 UNK     1      20.322   9.730  34.390  1.00  0.00     0.288 A 
HETATM   11  O1  UNK     1      19.209  10.546  34.263  1.00  0.00    -0.275 OA
HETATM   12  O4  UNK     1      21.456  10.186  34.485  1.00  0.00    -0.260 OA
HETATM   13  C11 UNK     1      17.910  10.008  34.155  1.00  0.00     0.090 A 
HETATM   14  C8  UNK     1      17.696   8.630  34.170  1.00  0.00     0.009 A 
HETATM   15  C14 UNK     1      16.864  10.925  34.032  1.00  0.00     0.041 A 
HETATM   16  C12 UNK     1      16.375   8.176  34.058  1.00  0.00     0.051 A 
HETATM   17  C15 UNK     1      15.316   9.082  33.936  1.00  0.00     0.069 A 
HETATM   18  C16 UNK     1      15.560  10.454  33.923  1.00  0.00     0.039 A 
BRANCH  17  19
HETATM   19  O3  UNK     1      14.039   8.620  33.828  1.00  0.00    -0.351 OA
BRANCH  19  20
HETATM   20  C22 UNK     1      13.873   7.249  33.470  1.00  0.00     0.171 C 
HETATM   21  C24 UNK     1      13.850   7.134  31.961  1.00  0.00     0.034 C 
ENDBRANCH  19  20
ENDBRANCH  17  19
ENDBRANCH   7   8
ENDBRANCH   1   7
BRANCH   2  22
HETATM   22  C6  UNK     1      18.446   3.651  29.312  1.00  0.00     0.375 C 
BRANCH  22  23
HETATM   23  C9  UNK     1      18.441   2.133  29.360  1.00  0.00     0.250 C 
HETATM   24  O2  UNK     1      17.541   1.459  28.867  1.00  0.00    -0.271 OA
HETATM   25  N3  UNK     1      19.576   1.667  30.020  1.00  0.00    -0.326 N 
HETATM   26  H15 UNK     1      20.239   2.358  30.366  1.00  0.00     0.169 HD
BRANCH  25  27
HETATM   27  C17 UNK     1      19.939   0.323  30.270  1.00  0.00     0.034 A 
HETATM   28  C18 UNK     1      19.663  -0.254  31.510  1.00  0.00     0.030 A 
HETATM   29  C20 UNK     1      20.021  -1.579  31.757  1.00  0.00     0.009 A 
HETATM   30  C23 UNK     1      20.653  -2.328  30.765  1.00  0.00    -0.062 A 
HETATM   31  C21 UNK     1      20.929  -1.751  29.525  1.00  0.00     0.009 A 
HETATM   32  C25 UNK     1      21.035  -3.745  31.030  1.00  0.00     0.048 C 
HETATM   33  C19 UNK     1      20.572  -0.425  29.278  1.00  0.00     0.030 A 
ENDBRANCH  25  27
ENDBRANCH  22  23
ENDBRANCH   2  22
TORSDOF 7
ENDMDL
MODEL 5
REMARK VINA RESULT:      -8.7      2.437     10.965
REMARK  7 active torsions:
REMARK  status: ('A' for Active; 'I' for Inactive)
REMARK    1  A    between atoms: C15_22  and  O3_3 
REMARK    2  A    between atoms: C22_29  and  O3_3 
REMARK    3  A    between atoms: C5_12  and  N1_5 
REMARK    4  A    between atoms: C6_13  and  N2_6 
REMARK    5  A    between atoms: C17_24  and  N3_7 
REMARK       I    between atoms: C9_16  and  N3_7 
REMARK    6  A    between atoms: C5_12  and  C7_14 
REMARK    7  A    between atoms: C6_13  and  C9_16 
ROOT
HETATM    1  N1  UNK     1      18.761  -0.990  35.093  1.00  0.00     0.096 N 
HETATM    2  N2  UNK     1      19.727  -3.002  36.930  1.00  0.00     0.100 N 
HETATM    3  C1  UNK     1      17.951  -1.432  36.235  1.00  0.00     0.303 C 
HETATM    4  C2  UNK     1      19.645  -2.073  34.642  1.00  0.00     0.303 C 
HETATM    5  C3  UNK     1      18.844  -1.920  37.381  1.00  0.00     0.303 C 
HETATM    6  C4  UNK     1      20.537  -2.561  35.789  1.00  0.00     0.303 C 
ENDROOT
BRANCH   1   7
HETATM    7  C5  UNK     1      17.907  -0.529  33.999  1.00  0.00     0.312 C 
BRANCH   7   8
HETATM    8  C7  UNK     1      18.640  -0.465  32.704  1.00  0.00    -0.011 A 
HETATM    9  C10 UNK     1      19.258  -1.544  32.204  1.00  0.00     0.092 A 
HETATM   10  C13 UNK     1      19.995  -1.529  30.929  1.00  0.00     0.288 A 
HETATM   11  O1  UNK     1      20.028  -0.325  30.243  1.00  0.00    -0.275 OA
HETATM   12  O4  UNK     1      20.548  -2.537  30.502  1.00  0.00    -0.260 OA
HETATM   13  C11 UNK     1      19.388   0.826  30.743  1.00  0.00     0.090 A 
HETATM   14  C8  UNK     1      18.694   0.797  31.954  1.00  0.00     0.009 A 
HETATM   15  C14 UNK     1      19.489   1.983  29.968  1.00  0.00     0.041 A 
HETATM   16  C12 UNK     1      18.086   1.985  32.382  1.00  0.00     0.051 A 
HETATM   17  C15 UNK     1      18.178   3.152  31.617  1.00  0.00     0.069 A 
HETATM   18  C16 UNK     1      18.878   3.152  30.411  1.00  0.00     0.039 A 
BRANCH  17  19
HETATM   19  O3  UNK     1      17.581   4.296  32.052  1.00  0.00    -0.351 OA
BRANCH  19  20
HETATM   20  C22 UNK     1      18.105   4.891  33.238  1.00  0.00     0.171 C 
HETATM   21  C24 UNK     1      19.139   5.927  32.855  1.00  0.00     0.034 C 
ENDBRANCH  19  20
ENDBRANCH  17  19
ENDBRANCH   7   8
ENDBRANCH   1   7
BRANCH   2  22
HETATM   22  C6  UNK     1      20.579  -3.466  38.023  1.00  0.00     0.375 C 
BRANCH  22  23
HETATM   23  C9  UNK     1      20.882  -4.943  37.836  1.00  0.00     0.250 C 
HETATM   24  O2  UNK     1      21.924  -5.345  37.327  1.00  0.00    -0.271 OA
HETATM   25  N3  UNK     1      19.830  -5.716  38.323  1.00  0.00    -0.326 N 
HETATM   26  H15 UNK     1      19.033  -5.230  38.728  1.00  0.00     0.169 HD
BRANCH  25  27
HETATM   27  C17 UNK     1      19.729  -7.127  38.334  1.00  0.00     0.034 A 
HETATM   28  C18 UNK     1      19.132  -7.791  37.262  1.00  0.00     0.030 A 
HETATM   29  C20 UNK     1      19.032  -9.182  37.272  1.00  0.00     0.009 A 
HETATM   30  C23 UNK     1      19.529  -9.910  38.353  1.00  0.00    -0.062 A 
HETATM   31  C21 UNK     1      20.126  -9.246  39.426  1.00  0.00     0.009 A 
HETATM   32  C25 UNK     1      19.422 -11.397  38.364  1.00  0.00     0.048 C 
HETATM   33  C19 UNK     1      20.225  -7.854  39.415  1.00  0.00     0.030 A 
ENDBRANCH  25  27
ENDBRANCH  22  23
ENDBRANCH   2  22
TORSDOF 7
ENDMDL
MODEL 6
REMARK VINA RESULT:      -8.4      8.181     12.375
REMARK  7 active torsions:
REMARK  status: ('A' for Active; 'I' for Inactive)
REMARK    1  A    between atoms: C15_22  and  O3_3 
REMARK    2  A    between atoms: C22_29  and  O3_3 
REMARK    3  A    between atoms: C5_12  and  N1_5 
REMARK    4  A    between atoms: C6_13  and  N2_6 
REMARK    5  A    between atoms: C17_24  and  N3_7 
REMARK       I    between atoms: C9_16  and  N3_7 
REMARK    6  A    between atoms: C5_12  and  C7_14 
REMARK    7  A    between atoms: C6_13  and  C9_16 
ROOT
HETATM    1  N1  UNK     1      26.860  -9.462  37.559  1.00  0.00     0.096 N 
HETATM    2  N2  UNK     1      29.692  -9.131  38.033  1.00  0.00     0.100 N 
HETATM    3  C1  UNK     1      27.710  -8.723  36.617  1.00  0.00     0.303 C 
HETATM    4  C2  UNK     1      27.399  -9.362  38.921  1.00  0.00     0.303 C 
HETATM    5  C3  UNK     1      29.154  -9.231  36.671  1.00  0.00     0.303 C 
HETATM    6  C4  UNK     1      28.843  -9.871  38.974  1.00  0.00     0.303 C 
ENDROOT
BRANCH   1   7
HETATM    7  C5  UNK     1      25.483  -8.973  37.509  1.00  0.00     0.312 C 
BRANCH   7   8
HETATM    8  C7  UNK     1      24.580  -9.910  36.783  1.00  0.00    -0.011 A 
HETATM    9  C10 UNK     1      25.025 -11.093  36.337  1.00  0.00     0.092 A 
HETATM   10  C13 UNK     1      24.171 -12.051  35.615  1.00  0.00     0.288 A 
HETATM   11  O1  UNK     1      22.853 -11.677  35.406  1.00  0.00    -0.275 OA
HETATM   12  O4  UNK     1      24.614 -13.125  35.222  1.00  0.00    -0.260 OA
HETATM   13  C11 UNK     1      22.358 -10.439  35.863  1.00  0.00     0.090 A 
HETATM   14  C8  UNK     1      23.178  -9.541  36.546  1.00  0.00     0.009 A 
HETATM   15  C14 UNK     1      21.014 -10.168  35.595  1.00  0.00     0.041 A 
HETATM   16  C12 UNK     1      22.609  -8.331  36.966  1.00  0.00     0.051 A 
HETATM   17  C15 UNK     1      21.265  -8.044  36.705  1.00  0.00     0.069 A 
HETATM   18  C16 UNK     1      20.468  -8.961  36.020  1.00  0.00     0.039 A 
BRANCH  17  19
HETATM   19  O3  UNK     1      20.731  -6.863  37.121  1.00  0.00    -0.351 OA
BRANCH  19  20
HETATM   20  C22 UNK     1      19.616  -6.932  38.008  1.00  0.00     0.171 C 
HETATM   21  C24 UNK     1      20.089  -6.648  39.417  1.00  0.00     0.034 C 
ENDBRANCH  19  20
ENDBRANCH  17  19
ENDBRANCH   7   8
ENDBRANCH   1   7
BRANCH   2  22
HETATM   22  C6  UNK     1      31.070  -9.617  38.084  1.00  0.00     0.375 C 
BRANCH  22  23
HETATM   23  C9  UNK     1      31.906  -8.874  37.056  1.00  0.00     0.250 C 
HETATM   24  O2  UNK     1      32.453  -9.440  36.114  1.00  0.00    -0.271 OA
HETATM   25  N3  UNK     1      31.935  -7.513  37.351  1.00  0.00    -0.326 N 
HETATM   26  H15 UNK     1      31.418  -7.195  38.169  1.00  0.00     0.169 HD
BRANCH  25  27
HETATM   27  C17 UNK     1      32.601  -6.488  36.639  1.00  0.00     0.034 A 
HETATM   28  C18 UNK     1      31.892  -5.687  35.744  1.00  0.00     0.030 A 
HETATM   29  C20 UNK     1      32.549  -4.676  35.042  1.00  0.00     0.009 A 
HETATM   30  C23 UNK     1      33.914  -4.467  35.234  1.00  0.00    -0.062 A 
HETATM   31  C21 UNK     1      34.624  -5.269  36.129  1.00  0.00     0.009 A 
HETATM   32  C25 UNK     1      34.616  -3.386  34.483  1.00  0.00     0.048 C 
HETATM   33  C19 UNK     1      33.966  -6.280  36.831  1.00  0.00     0.030 A 
ENDBRANCH  25  27
ENDBRANCH  22  23
ENDBRANCH   2  22
TORSDOF 7
ENDMDL
MODEL 7
REMARK VINA RESULT:      -8.3      5.639     10.802
REMARK  7 active torsions:
REMARK  status: ('A' for Active; 'I' for Inactive)
REMARK    1  A    between atoms: C15_22  and  O3_3 
REMARK    2  A    between atoms: C22_29  and  O3_3 
REMARK    3  A    between atoms: C5_12  and  N1_5 
REMARK    4  A    between atoms: C6_13  and  N2_6 
REMARK    5  A    between atoms: C17_24  and  N3_7 
REMARK       I    between atoms: C9_16  and  N3_7 
REMARK    6  A    between atoms: C5_12  and  C7_14 
REMARK    7  A    between atoms: C6_13  and  C9_16 
ROOT
HETATM    1  N1  UNK     1      23.809  -9.386  37.187  1.00  0.00     0.096 N 
HETATM    2  N2  UNK     1      26.310  -8.491  38.328  1.00  0.00     0.100 N 
HETATM    3  C1  UNK     1      25.095  -9.710  36.556  1.00  0.00     0.303 C 
HETATM    4  C2  UNK     1      23.902  -8.116  37.918  1.00  0.00     0.303 C 
HETATM    5  C3  UNK     1      26.216  -9.761  37.597  1.00  0.00     0.303 C 
HETATM    6  C4  UNK     1      25.025  -8.169  38.960  1.00  0.00     0.303 C 
ENDROOT
BRANCH   1   7
HETATM    7  C5  UNK     1      22.740  -9.334  36.190  1.00  0.00     0.312 C 
BRANCH   7   8
HETATM    8  C7  UNK     1      21.390  -9.447  36.809  1.00  0.00    -0.011 A 
HETATM    9  C10 UNK     1      20.979 -10.594  37.368  1.00  0.00     0.092 A 
HETATM   10  C13 UNK     1      19.654 -10.754  37.991  1.00  0.00     0.288 A 
HETATM   11  O1  UNK     1      18.822  -9.645  37.980  1.00  0.00    -0.275 OA
HETATM   12  O4  UNK     1      19.312 -11.819  38.493  1.00  0.00    -0.260 OA
HETATM   13  C11 UNK     1      19.227  -8.426  37.400  1.00  0.00     0.090 A 
HETATM   14  C8  UNK     1      20.486  -8.289  36.813  1.00  0.00     0.009 A 
HETATM   15  C14 UNK     1      18.306  -7.377  37.446  1.00  0.00     0.041 A 
HETATM   16  C12 UNK     1      20.811  -7.045  36.256  1.00  0.00     0.051 A 
HETATM   17  C15 UNK     1      19.900  -5.984  36.294  1.00  0.00     0.069 A 
HETATM   18  C16 UNK     1      18.649  -6.149  36.888  1.00  0.00     0.039 A 
BRANCH  17  19
HETATM   19  O3  UNK     1      20.236  -4.783  35.748  1.00  0.00    -0.351 OA
BRANCH  19  20
HETATM   20  C22 UNK     1      20.376  -3.680  36.642  1.00  0.00     0.171 C 
HETATM   21  C24 UNK     1      19.494  -2.546  36.168  1.00  0.00     0.034 C 
ENDBRANCH  19  20
ENDBRANCH  17  19
ENDBRANCH   7   8
ENDBRANCH   1   7
BRANCH   2  22
HETATM   22  C6  UNK     1      27.380  -8.542  39.322  1.00  0.00     0.375 C 
BRANCH  22  23
HETATM   23  C9  UNK     1      28.705  -8.220  38.655  1.00  0.00     0.250 C 
HETATM   24  O2  UNK     1      29.571  -9.068  38.461  1.00  0.00    -0.271 OA
HETATM   25  N3  UNK     1      28.759  -6.869  38.315  1.00  0.00    -0.326 N 
HETATM   26  H15 UNK     1      27.949  -6.294  38.536  1.00  0.00     0.169 HD
BRANCH  25  27
HETATM   27  C17 UNK     1      29.818  -6.180  37.680  1.00  0.00     0.034 A 
HETATM   28  C18 UNK     1      29.938  -6.213  36.291  1.00  0.00     0.030 A 
HETATM   29  C20 UNK     1      30.982  -5.533  35.664  1.00  0.00     0.009 A 
HETATM   30  C23 UNK     1      31.907  -4.819  36.427  1.00  0.00    -0.062 A 
HETATM   31  C21 UNK     1      31.787  -4.787  37.817  1.00  0.00     0.009 A 
HETATM   32  C25 UNK     1      33.023  -4.092  35.757  1.00  0.00     0.048 C 
HETATM   33  C19 UNK     1      30.743  -5.467  38.443  1.00  0.00     0.030 A 
ENDBRANCH  25  27
ENDBRANCH  22  23
ENDBRANCH   2  22
TORSDOF 7
ENDMDL
MODEL 8
REMARK VINA RESULT:      -8.3      7.630     10.252
REMARK  7 active torsions:
REMARK  status: ('A' for Active; 'I' for Inactive)
REMARK    1  A    between atoms: C15_22  and  O3_3 
REMARK    2  A    between atoms: C22_29  and  O3_3 
REMARK    3  A    between atoms: C5_12  and  N1_5 
REMARK    4  A    between atoms: C6_13  and  N2_6 
REMARK    5  A    between atoms: C17_24  and  N3_7 
REMARK       I    between atoms: C9_16  and  N3_7 
REMARK    6  A    between atoms: C5_12  and  C7_14 
REMARK    7  A    between atoms: C6_13  and  C9_16 
ROOT
HETATM    1  N1  UNK     1      25.491  -7.962  38.559  1.00  0.00     0.096 N 
HETATM    2  N2  UNK     1      28.310  -7.338  38.712  1.00  0.00     0.100 N 
HETATM    3  C1  UNK     1      25.956  -6.612  38.900  1.00  0.00     0.303 C 
HETATM    4  C2  UNK     1      26.473  -8.966  38.991  1.00  0.00     0.303 C 
HETATM    5  C3  UNK     1      27.329  -6.334  38.281  1.00  0.00     0.303 C 
HETATM    6  C4  UNK     1      27.846  -8.688  38.370  1.00  0.00     0.303 C 
ENDROOT
BRANCH   1   7
HETATM    7  C5  UNK     1      24.183  -8.227  39.155  1.00  0.00     0.312 C 
BRANCH   7   8
HETATM    8  C7  UNK     1      23.066  -7.758  38.288  1.00  0.00    -0.011 A 
HETATM    9  C10 UNK     1      22.437  -6.600  38.537  1.00  0.00     0.092 A 
HETATM   10  C13 UNK     1      21.328  -6.096  37.708  1.00  0.00     0.288 A 
HETATM   11  O1  UNK     1      20.946  -6.881  36.632  1.00  0.00    -0.275 OA
HETATM   12  O4  UNK     1      20.776  -5.031  37.966  1.00  0.00    -0.260 OA
HETATM   13  C11 UNK     1      21.589  -8.102  36.347  1.00  0.00     0.090 A 
HETATM   14  C8  UNK     1      22.638  -8.569  37.140  1.00  0.00     0.009 A 
HETATM   15  C14 UNK     1      21.120  -8.810  35.238  1.00  0.00     0.041 A 
HETATM   16  C12 UNK     1      23.224  -9.793  36.790  1.00  0.00     0.051 A 
HETATM   17  C15 UNK     1      22.765 -10.514  35.682  1.00  0.00     0.069 A 
HETATM   18  C16 UNK     1      21.715 -10.023  34.907  1.00  0.00     0.039 A 
BRANCH  17  19
HETATM   19  O3  UNK     1      23.347 -11.702  35.359  1.00  0.00    -0.351 OA
BRANCH  19  20
HETATM   20  C22 UNK     1      24.587 -12.010  35.994  1.00  0.00     0.171 C 
HETATM   21  C24 UNK     1      24.705 -13.512  36.141  1.00  0.00     0.034 C 
ENDBRANCH  19  20
ENDBRANCH  17  19
ENDBRANCH   7   8
ENDBRANCH   1   7
BRANCH   2  22
HETATM   22  C6  UNK     1      29.619  -7.073  38.120  1.00  0.00     0.375 C 
BRANCH  22  23
HETATM   23  C9  UNK     1      29.590  -7.438  36.646  1.00  0.00     0.250 C 
HETATM   24  O2  UNK     1      29.804  -8.578  36.242  1.00  0.00    -0.271 OA
HETATM   25  N3  UNK     1      29.288  -6.317  35.876  1.00  0.00    -0.326 N 
HETATM   26  H15 UNK     1      29.126  -5.438  36.364  1.00  0.00     0.169 HD
BRANCH  25  27
HETATM   27  C17 UNK     1      29.167  -6.242  34.469  1.00  0.00     0.034 A 
HETATM   28  C18 UNK     1      27.924  -6.437  33.865  1.00  0.00     0.030 A 
HETATM   29  C20 UNK     1      27.805  -6.363  32.477  1.00  0.00     0.009 A 
HETATM   30  C23 UNK     1      28.926  -6.092  31.693  1.00  0.00    -0.062 A 
HETATM   31  C21 UNK     1      30.169  -5.897  32.298  1.00  0.00     0.009 A 
HETATM   32  C25 UNK     1      28.798  -6.013  30.210  1.00  0.00     0.048 C 
HETATM   33  C19 UNK     1      30.288  -5.972  33.686  1.00  0.00     0.030 A 
ENDBRANCH  25  27
ENDBRANCH  22  23
ENDBRANCH   2  22
TORSDOF 7
ENDMDL
MODEL 9
REMARK VINA RESULT:      -8.3      8.009     11.879
REMARK  7 active torsions:
REMARK  status: ('A' for Active; 'I' for Inactive)
REMARK    1  A    between atoms: C15_22  and  O3_3 
REMARK    2  A    between atoms: C22_29  and  O3_3 
REMARK    3  A    between atoms: C5_12  and  N1_5 
REMARK    4  A    between atoms: C6_13  and  N2_6 
REMARK    5  A    between atoms: C17_24  and  N3_7 
REMARK       I    between atoms: C9_16  and  N3_7 
REMARK    6  A    between atoms: C5_12  and  C7_14 
REMARK    7  A    between atoms: C6_13  and  C9_16 
ROOT
HETATM    1  N1  UNK     1      28.269  -9.578  38.270  1.00  0.00     0.096 N 
HETATM    2  N2  UNK     1      25.916 -10.457  36.838  1.00  0.00     0.100 N 
HETATM    3  C1  UNK     1      27.127 -10.177  38.973  1.00  0.00     0.303 C 
HETATM    4  C2  UNK     1      27.819  -8.895  37.050  1.00  0.00     0.303 C 
HETATM    5  C3  UNK     1      26.366 -11.140  38.057  1.00  0.00     0.303 C 
HETATM    6  C4  UNK     1      27.057  -9.860  36.135  1.00  0.00     0.303 C 
ENDROOT
BRANCH   1   7
HETATM    7  C5  UNK     1      28.992  -8.656  39.144  1.00  0.00     0.312 C 
BRANCH   7   8
HETATM    8  C7  UNK     1      28.647  -7.234  38.867  1.00  0.00    -0.011 A 
HETATM    9  C10 UNK     1      27.389  -6.788  38.997  1.00  0.00     0.092 A 
HETATM   10  C13 UNK     1      27.001  -5.392  38.735  1.00  0.00     0.288 A 
HETATM   11  O1  UNK     1      28.010  -4.529  38.337  1.00  0.00    -0.275 OA
HETATM   12  O4  UNK     1      25.840  -5.021  38.865  1.00  0.00    -0.260 OA
HETATM   13  C11 UNK     1      29.341  -4.969  38.191  1.00  0.00     0.090 A 
HETATM   14  C8  UNK     1      29.695  -6.295  38.443  1.00  0.00     0.009 A 
HETATM   15  C14 UNK     1      30.273  -4.011  37.784  1.00  0.00     0.041 A 
HETATM   16  C12 UNK     1      31.039  -6.652  38.274  1.00  0.00     0.051 A 
HETATM   17  C15 UNK     1      31.985  -5.705  37.866  1.00  0.00     0.069 A 
HETATM   18  C16 UNK     1      31.603  -4.386  37.622  1.00  0.00     0.039 A 
BRANCH  17  19
HETATM   19  O3  UNK     1      33.286  -6.073  37.707  1.00  0.00    -0.351 OA
BRANCH  19  20
HETATM   20  C22 UNK     1      33.783  -6.136  36.372  1.00  0.00     0.171 C 
HETATM   21  C24 UNK     1      35.204  -5.614  36.349  1.00  0.00     0.034 C 
ENDBRANCH  19  20
ENDBRANCH  17  19
ENDBRANCH   7   8
ENDBRANCH   1   7
BRANCH   2  22
HETATM   22  C6  UNK     1      25.191 -11.377  35.965  1.00  0.00     0.375 C 
BRANCH  22  23
HETATM   23  C9  UNK     1      23.731 -10.965  35.897  1.00  0.00     0.250 C 
HETATM   24  O2  UNK     1      22.901 -11.576  35.230  1.00  0.00    -0.271 OA
HETATM   25  N3  UNK     1      23.511  -9.838  36.687  1.00  0.00    -0.326 N 
HETATM   26  H15 UNK     1      24.306  -9.451  37.191  1.00  0.00     0.169 HD
BRANCH  25  27
HETATM   27  C17 UNK     1      22.291  -9.150  36.889  1.00  0.00     0.034 A 
HETATM   28  C18 UNK     1      21.597  -8.627  35.798  1.00  0.00     0.030 A 
HETATM   29  C20 UNK     1      20.395  -7.948  35.998  1.00  0.00     0.009 A 
HETATM   30  C23 UNK     1      19.885  -7.793  37.287  1.00  0.00    -0.062 A 
HETATM   31  C21 UNK     1      20.581  -8.317  38.378  1.00  0.00     0.009 A 
HETATM   32  C25 UNK     1      18.600  -7.068  37.500  1.00  0.00     0.048 C 
HETATM   33  C19 UNK     1      21.783  -8.995  38.179  1.00  0.00     0.030 A 
ENDBRANCH  25  27
ENDBRANCH  22  23
ENDBRANCH   2  22
TORSDOF 7
ENDMDL
MODEL 10
REMARK VINA RESULT:      -8.2     11.772     16.710
REMARK  7 active torsions:
REMARK  status: ('A' for Active; 'I' for Inactive)
REMARK    1  A    between atoms: C15_22  and  O3_3 
REMARK    2  A    between atoms: C22_29  and  O3_3 
REMARK    3  A    between atoms: C5_12  and  N1_5 
REMARK    4  A    between atoms: C6_13  and  N2_6 
REMARK    5  A    between atoms: C17_24  and  N3_7 
REMARK       I    between atoms: C9_16  and  N3_7 
REMARK    6  A    between atoms: C5_12  and  C7_14 
REMARK    7  A    between atoms: C6_13  and  C9_16 
ROOT
HETATM    1  N1  UNK     1      32.393  -5.726  35.866  1.00  0.00     0.096 N 
HETATM    2  N2  UNK     1      35.006  -6.382  34.818  1.00  0.00     0.100 N 
HETATM    3  C1  UNK     1      32.583  -6.847  34.937  1.00  0.00     0.303 C 
HETATM    4  C2  UNK     1      33.402  -4.686  35.627  1.00  0.00     0.303 C 
HETATM    5  C3  UNK     1      33.997  -7.422  35.058  1.00  0.00     0.303 C 
HETATM    6  C4  UNK     1      34.817  -5.262  35.748  1.00  0.00     0.303 C 
ENDROOT
BRANCH   1   7
HETATM    7  C5  UNK     1      31.043  -5.176  35.747  1.00  0.00     0.312 C 
BRANCH   7   8
HETATM    8  C7  UNK     1      30.273  -5.298  37.016  1.00  0.00    -0.011 A 
HETATM    9  C10 UNK     1      30.316  -4.334  37.947  1.00  0.00     0.092 A 
HETATM   10  C13 UNK     1      29.572  -4.411  39.216  1.00  0.00     0.288 A 
HETATM   11  O1  UNK     1      28.804  -5.546  39.421  1.00  0.00    -0.275 OA
HETATM   12  O4  UNK     1      29.636  -3.509  40.044  1.00  0.00    -0.260 OA
HETATM   13  C11 UNK     1      28.740  -6.575  38.460  1.00  0.00     0.090 A 
HETATM   14  C8  UNK     1      29.450  -6.490  37.262  1.00  0.00     0.009 A 
HETATM   15  C14 UNK     1      27.935  -7.672  38.774  1.00  0.00     0.041 A 
HETATM   16  C12 UNK     1      29.334  -7.556  36.360  1.00  0.00     0.051 A 
HETATM   17  C15 UNK     1      28.532  -8.662  36.660  1.00  0.00     0.069 A 
HETATM   18  C16 UNK     1      27.833  -8.721  37.865  1.00  0.00     0.039 A 
BRANCH  17  19
HETATM   19  O3  UNK     1      28.433  -9.688  35.770  1.00  0.00    -0.351 OA
BRANCH  19  20
HETATM   20  C22 UNK     1      29.530  -9.882  34.879  1.00  0.00     0.171 C 
HETATM   21  C24 UNK     1      28.994 -10.143  33.488  1.00  0.00     0.034 C 
ENDBRANCH  19  20
ENDBRANCH  17  19
ENDBRANCH   7   8
ENDBRANCH   1   7
BRANCH   2  22
HETATM   22  C6  UNK     1      36.356  -6.931  34.935  1.00  0.00     0.375 C 
BRANCH  22  23
HETATM   23  C9  UNK     1      36.655  -7.797  33.723  1.00  0.00     0.250 C 
HETATM   24  O2  UNK     1      36.594  -7.370  32.574  1.00  0.00    -0.271 OA
HETATM   25  N3  UNK     1      36.999  -9.086  34.125  1.00  0.00    -0.326 N 
HETATM   26  H15 UNK     1      37.014  -9.282  35.124  1.00  0.00     0.169 HD
BRANCH  25  27
HETATM   27  C17 UNK     1      37.346 -10.183  33.302  1.00  0.00     0.034 A 
HETATM   28  C18 UNK     1      38.601 -10.229  32.694  1.00  0.00     0.030 A 
HETATM   29  C20 UNK     1      38.943 -11.310  31.882  1.00  0.00     0.009 A 
HETATM   30  C23 UNK     1      38.033 -12.348  31.680  1.00  0.00    -0.062 A 
HETATM   31  C21 UNK     1      36.778 -12.302  32.289  1.00  0.00     0.009 A 
HETATM   32  C25 UNK     1      38.399 -13.504  30.814  1.00  0.00     0.048 C 
HETATM   33  C19 UNK     1      36.435 -11.219  33.100  1.00  0.00     0.030 A 
ENDBRANCH  25  27
ENDBRANCH  22  23
ENDBRANCH   2  22
TORSDOF 7
ENDMDL
