MODEL 1
REMARK VINA RESULT:     -11.5      0.000      0.000
REMARK  2 active torsions:
REMARK  status: ('A' for Active; 'I' for Inactive)
REMARK    1  A    between atoms: C4_9  and  N1_3 
REMARK    2  A    between atoms: C13_18  and  C17_22 
ROOT
HETATM    1  O1  UNK     1      17.781   3.302  32.893  1.00  0.00    -0.274 OA
HETATM    2  O2  UNK     1      18.171   1.054  32.847  1.00  0.00    -0.259 OA
HETATM    3  C4  UNK     1      17.467   6.927  32.385  1.00  0.00     0.082 A 
HETATM    4  C6  UNK     1      18.451   4.689  31.015  1.00  0.00    -0.001 A 
HETATM    5  C7  UNK     1      17.878   4.563  32.275  1.00  0.00     0.092 A 
HETATM    6  C8  UNK     1      17.384   5.666  32.970  1.00  0.00     0.071 A 
HETATM    7  C10 UNK     1      18.040   7.073  31.119  1.00  0.00     0.034 A 
HETATM    8  C12 UNK     1      18.530   5.957  30.434  1.00  0.00     0.017 A 
HETATM    9  C13 UNK     1      18.854   2.293  30.932  1.00  0.00     0.051 A 
HETATM   10  C14 UNK     1      18.943   3.497  30.345  1.00  0.00     0.032 A 
HETATM   11  C18 UNK     1      18.251   2.142  32.284  1.00  0.00     0.299 A 
ENDROOT
BRANCH   3  12
HETATM   12  N1  UNK     1      16.983   8.038  33.058  1.00  0.00    -0.150 N 
HETATM   13  N2  UNK     1      17.706   9.157  33.116  1.00  0.00    -0.147 NA
HETATM   14  C1  UNK     1      16.915   9.973  33.834  1.00  0.00     0.120 A 
HETATM   15  C2  UNK     1      17.115  11.324  34.249  1.00  0.00     0.007 A 
HETATM   16  C3  UNK     1      15.693   9.231  34.175  1.00  0.00     0.110 A 
HETATM   17  C15 UNK     1      18.269  12.071  33.942  1.00  0.00     0.015 A 
HETATM   18  C5  UNK     1      16.048  11.884  35.010  1.00  0.00    -0.023 A 
HETATM   19  C19 UNK     1      18.374  13.384  34.391  1.00  0.00     0.001 A 
HETATM   20  C20 UNK     1      17.342  13.951  35.138  1.00  0.00     0.001 A 
HETATM   21  C16 UNK     1      16.194  13.210  35.443  1.00  0.00     0.012 A 
HETATM   22  C11 UNK     1      14.874  11.136  35.324  1.00  0.00     0.015 A 
HETATM   23  C9  UNK     1      14.652   9.803  34.927  1.00  0.00     0.037 A 
HETATM   24  N3  UNK     1      15.790   7.998  33.653  1.00  0.00    -0.147 NA
ENDBRANCH   3  12
BRANCH   9  25
HETATM   25  C17 UNK     1      19.342   1.140  30.241  1.00  0.00    -0.020 A 
HETATM   26  C21 UNK     1      20.280   0.307  30.851  1.00  0.00     0.012 A 
HETATM   27  C23 UNK     1      20.755  -0.818  30.178  1.00  0.00     0.001 A 
HETATM   28  C25 UNK     1      20.292  -1.110  28.895  1.00  0.00     0.000 A 
HETATM   29  C24 UNK     1      19.354  -0.277  28.285  1.00  0.00     0.001 A 
HETATM   30  C22 UNK     1      18.879   0.849  28.959  1.00  0.00     0.012 A 
ENDBRANCH   9  25
TORSDOF 2
ENDMDL
MODEL 2
REMARK VINA RESULT:     -11.0      1.071      2.080
REMARK  2 active torsions:
REMARK  status: ('A' for Active; 'I' for Inactive)
REMARK    1  A    between atoms: C4_9  and  N1_3 
REMARK    2  A    between atoms: C13_18  and  C17_22 
ROOT
HETATM    1  O1  UNK     1      17.867   3.402  32.757  1.00  0.00    -0.274 OA
HETATM    2  O2  UNK     1      18.143   1.138  32.856  1.00  0.00    -0.259 OA
HETATM    3  C4  UNK     1      17.744   6.998  32.020  1.00  0.00     0.082 A 
HETATM    4  C6  UNK     1      18.628   4.633  30.806  1.00  0.00    -0.001 A 
HETATM    5  C7  UNK     1      18.035   4.615  32.063  1.00  0.00     0.092 A 
HETATM    6  C8  UNK     1      17.590   5.782  32.681  1.00  0.00     0.071 A 
HETATM    7  C10 UNK     1      18.338   7.035  30.756  1.00  0.00     0.034 A 
HETATM    8  C12 UNK     1      18.779   5.856  30.149  1.00  0.00     0.017 A 
HETATM    9  C13 UNK     1      18.910   2.219  30.878  1.00  0.00     0.051 A 
HETATM   10  C14 UNK     1      19.068   3.378  30.219  1.00  0.00     0.032 A 
HETATM   11  C18 UNK     1      18.285   2.183  32.227  1.00  0.00     0.299 A 
ENDROOT
BRANCH   3  12
HETATM   12  N1  UNK     1      17.309   8.172  32.615  1.00  0.00    -0.150 N 
HETATM   13  N2  UNK     1      16.034   8.548  32.509  1.00  0.00    -0.147 NA
HETATM   14  C1  UNK     1      16.016   9.701  33.200  1.00  0.00     0.120 A 
HETATM   15  C2  UNK     1      14.942  10.603  33.464  1.00  0.00     0.007 A 
HETATM   16  C3  UNK     1      17.375   9.946  33.704  1.00  0.00     0.110 A 
HETATM   17  C15 UNK     1      13.626  10.405  33.003  1.00  0.00     0.015 A 
HETATM   18  C5  UNK     1      15.292  11.744  34.244  1.00  0.00    -0.023 A 
HETATM   19  C19 UNK     1      12.644  11.341  33.312  1.00  0.00     0.001 A 
HETATM   20  C20 UNK     1      12.966  12.464  34.073  1.00  0.00     0.001 A 
HETATM   21  C16 UNK     1      14.273  12.663  34.533  1.00  0.00     0.012 A 
HETATM   22  C11 UNK     1      16.622  11.952  34.717  1.00  0.00     0.015 A 
HETATM   23  C9  UNK     1      17.698  11.078  34.471  1.00  0.00     0.037 A 
HETATM   24  N3  UNK     1      18.162   8.936  33.300  1.00  0.00    -0.147 NA
ENDBRANCH   3  12
BRANCH   9  25
HETATM   25  C17 UNK     1      19.347   1.002  30.267  1.00  0.00    -0.020 A 
HETATM   26  C21 UNK     1      20.088   0.079  31.005  1.00  0.00     0.012 A 
HETATM   27  C23 UNK     1      20.513  -1.108  30.410  1.00  0.00     0.001 A 
HETATM   28  C25 UNK     1      20.197  -1.373  29.077  1.00  0.00     0.000 A 
HETATM   29  C24 UNK     1      19.455  -0.450  28.340  1.00  0.00     0.001 A 
HETATM   30  C22 UNK     1      19.031   0.738  28.936  1.00  0.00     0.012 A 
ENDBRANCH   9  25
TORSDOF 2
ENDMDL
MODEL 3
REMARK VINA RESULT:     -10.7      8.047     13.423
REMARK  2 active torsions:
REMARK  status: ('A' for Active; 'I' for Inactive)
REMARK    1  A    between atoms: C4_9  and  N1_3 
REMARK    2  A    between atoms: C13_18  and  C17_22 
ROOT
HETATM    1  O1  UNK     1      20.647  -2.162  32.137  1.00  0.00    -0.274 OA
HETATM    2  O2  UNK     1      20.818  -1.158  30.095  1.00  0.00    -0.259 OA
HETATM    3  C4  UNK     1      19.971  -3.271  35.573  1.00  0.00     0.082 A 
HETATM    4  C6  UNK     1      19.185  -1.221  33.834  1.00  0.00    -0.001 A 
HETATM    5  C7  UNK     1      20.096  -2.191  33.432  1.00  0.00     0.092 A 
HETATM    6  C8  UNK     1      20.497  -3.217  34.285  1.00  0.00     0.071 A 
HETATM    7  C10 UNK     1      19.054  -2.305  35.994  1.00  0.00     0.034 A 
HETATM    8  C12 UNK     1      18.661  -1.281  35.127  1.00  0.00     0.017 A 
HETATM    9  C13 UNK     1      19.332  -0.148  31.656  1.00  0.00     0.051 A 
HETATM   10  C14 UNK     1      18.808  -0.180  32.892  1.00  0.00     0.032 A 
HETATM   11  C18 UNK     1      20.314  -1.174  31.214  1.00  0.00     0.299 A 
ENDROOT
BRANCH   3  12
HETATM   12  N1  UNK     1      20.357  -4.283  36.439  1.00  0.00    -0.150 N 
HETATM   13  N2  UNK     1      19.644  -5.408  36.519  1.00  0.00    -0.147 NA
HETATM   14  C1  UNK     1      20.324  -6.113  37.440  1.00  0.00     0.120 A 
HETATM   15  C2  UNK     1      20.076  -7.412  37.977  1.00  0.00     0.007 A 
HETATM   16  C3  UNK     1      21.471  -5.302  37.873  1.00  0.00     0.110 A 
HETATM   17  C15 UNK     1      18.990  -8.221  37.590  1.00  0.00     0.015 A 
HETATM   18  C5  UNK     1      21.018  -7.850  38.954  1.00  0.00    -0.023 A 
HETATM   19  C19 UNK     1      18.830  -9.476  38.171  1.00  0.00     0.001 A 
HETATM   20  C20 UNK     1      19.741  -9.923  39.127  1.00  0.00     0.001 A 
HETATM   21  C16 UNK     1      20.820  -9.120  39.514  1.00  0.00     0.012 A 
HETATM   22  C11 UNK     1      22.121  -7.037  39.352  1.00  0.00     0.015 A 
HETATM   23  C9  UNK     1      22.389  -5.754  38.837  1.00  0.00     0.037 A 
HETATM   24  N3  UNK     1      21.444  -4.141  37.200  1.00  0.00    -0.147 NA
ENDBRANCH   3  12
BRANCH   9  25
HETATM   25  C17 UNK     1      18.932   0.886  30.754  1.00  0.00    -0.020 A 
HETATM   26  C21 UNK     1      18.553   0.566  29.450  1.00  0.00     0.012 A 
HETATM   27  C23 UNK     1      18.163   1.575  28.570  1.00  0.00     0.001 A 
HETATM   28  C25 UNK     1      18.152   2.904  28.994  1.00  0.00     0.000 A 
HETATM   29  C24 UNK     1      18.530   3.224  30.297  1.00  0.00     0.001 A 
HETATM   30  C22 UNK     1      18.921   2.215  31.177  1.00  0.00     0.012 A 
ENDBRANCH   9  25
TORSDOF 2
ENDMDL
MODEL 4
REMARK VINA RESULT:     -10.7      2.720     10.489
REMARK  2 active torsions:
REMARK  status: ('A' for Active; 'I' for Inactive)
REMARK    1  A    between atoms: C4_9  and  N1_3 
REMARK    2  A    between atoms: C13_18  and  C17_22 
ROOT
HETATM    1  O1  UNK     1      17.466   5.600  33.792  1.00  0.00    -0.274 OA
HETATM    2  O2  UNK     1      16.674   7.079  35.340  1.00  0.00    -0.259 OA
HETATM    3  C4  UNK     1      18.756   3.745  30.896  1.00  0.00     0.082 A 
HETATM    4  C6  UNK     1      18.104   6.382  31.583  1.00  0.00    -0.001 A 
HETATM    5  C7  UNK     1      17.953   5.346  32.497  1.00  0.00     0.092 A 
HETATM    6  C8  UNK     1      18.273   4.029  32.171  1.00  0.00     0.071 A 
HETATM    7  C10 UNK     1      18.914   4.774  29.965  1.00  0.00     0.034 A 
HETATM    8  C12 UNK     1      18.589   6.090  30.306  1.00  0.00     0.017 A 
HETATM    9  C13 UNK     1      17.287   7.980  33.223  1.00  0.00     0.051 A 
HETATM   10  C14 UNK     1      17.754   7.733  31.989  1.00  0.00     0.032 A 
HETATM   11  C18 UNK     1      17.112   6.881  34.211  1.00  0.00     0.299 A 
ENDROOT
BRANCH   3  12
HETATM   12  N1  UNK     1      19.080   2.442  30.551  1.00  0.00    -0.150 N 
HETATM   13  N2  UNK     1      19.495   1.582  31.482  1.00  0.00    -0.147 NA
HETATM   14  C1  UNK     1      19.701   0.462  30.767  1.00  0.00     0.120 A 
HETATM   15  C2  UNK     1      20.152  -0.827  31.180  1.00  0.00     0.007 A 
HETATM   16  C3  UNK     1      19.372   0.755  29.365  1.00  0.00     0.110 A 
HETATM   17  C15 UNK     1      20.477  -1.150  32.512  1.00  0.00     0.015 A 
HETATM   18  C5  UNK     1      20.257  -1.792  30.135  1.00  0.00    -0.023 A 
HETATM   19  C19 UNK     1      20.909  -2.437  32.819  1.00  0.00     0.001 A 
HETATM   20  C20 UNK     1      21.018  -3.395  31.811  1.00  0.00     0.001 A 
HETATM   21  C16 UNK     1      20.696  -3.076  30.487  1.00  0.00     0.012 A 
HETATM   22  C11 UNK     1      19.929  -1.474  28.783  1.00  0.00     0.015 A 
HETATM   23  C9  UNK     1      19.481  -0.211  28.350  1.00  0.00     0.037 A 
HETATM   24  N3  UNK     1      18.979   2.037  29.283  1.00  0.00    -0.147 NA
ENDBRANCH   3  12
BRANCH   9  25
HETATM   25  C17 UNK     1      16.960   9.322  33.592  1.00  0.00    -0.020 A 
HETATM   26  C21 UNK     1      17.968  10.206  33.975  1.00  0.00     0.012 A 
HETATM   27  C23 UNK     1      17.649  11.515  34.333  1.00  0.00     0.001 A 
HETATM   28  C25 UNK     1      16.321  11.940  34.308  1.00  0.00     0.000 A 
HETATM   29  C24 UNK     1      15.312  11.057  33.923  1.00  0.00     0.001 A 
HETATM   30  C22 UNK     1      15.632   9.747  33.565  1.00  0.00     0.012 A 
ENDBRANCH   9  25
TORSDOF 2
ENDMDL
MODEL 5
REMARK VINA RESULT:     -10.5      2.605     10.311
REMARK  2 active torsions:
REMARK  status: ('A' for Active; 'I' for Inactive)
REMARK    1  A    between atoms: C4_9  and  N1_3 
REMARK    2  A    between atoms: C13_18  and  C17_22 
ROOT
HETATM    1  O1  UNK     1      16.814   6.920  34.798  1.00  0.00    -0.274 OA
HETATM    2  O2  UNK     1      16.058   8.711  35.995  1.00  0.00    -0.259 OA
HETATM    3  C4  UNK     1      18.066   4.467  32.367  1.00  0.00     0.082 A 
HETATM    4  C6  UNK     1      17.490   7.207  32.482  1.00  0.00    -0.001 A 
HETATM    5  C7  UNK     1      17.302   6.388  33.590  1.00  0.00     0.092 A 
HETATM    6  C8  UNK     1      17.583   5.024  33.550  1.00  0.00     0.071 A 
HETATM    7  C10 UNK     1      18.261   5.274  31.244  1.00  0.00     0.034 A 
HETATM    8  C12 UNK     1      17.974   6.642  31.301  1.00  0.00     0.017 A 
HETATM    9  C13 UNK     1      16.712   9.134  33.745  1.00  0.00     0.051 A 
HETATM   10  C14 UNK     1      17.178   8.622  32.595  1.00  0.00     0.032 A 
HETATM   11  C18 UNK     1      16.497   8.270  34.937  1.00  0.00     0.299 A 
ENDROOT
BRANCH   3  12
HETATM   12  N1  UNK     1      18.352   3.112  32.304  1.00  0.00    -0.150 N 
HETATM   13  N2  UNK     1      18.948   2.600  31.226  1.00  0.00    -0.147 NA
HETATM   14  C1  UNK     1      19.047   1.298  31.545  1.00  0.00     0.120 A 
HETATM   15  C2  UNK     1      19.595   0.206  30.807  1.00  0.00     0.007 A 
HETATM   16  C3  UNK     1      18.464   1.114  32.881  1.00  0.00     0.110 A 
HETATM   17  C15 UNK     1      20.164   0.338  29.525  1.00  0.00     0.015 A 
HETATM   18  C5  UNK     1      19.530  -1.058  31.464  1.00  0.00    -0.023 A 
HETATM   19  C19 UNK     1      20.674  -0.787  28.883  1.00  0.00     0.001 A 
HETATM   20  C20 UNK     1      20.620  -2.032  29.509  1.00  0.00     0.001 A 
HETATM   21  C16 UNK     1      20.055  -2.165  30.782  1.00  0.00     0.012 A 
HETATM   22  C11 UNK     1      18.956  -1.201  32.763  1.00  0.00     0.015 A 
HETATM   23  C9  UNK     1      18.410  -0.141  33.511  1.00  0.00     0.037 A 
HETATM   24  N3  UNK     1      18.035   2.308  33.321  1.00  0.00    -0.147 NA
ENDBRANCH   3  12
BRANCH   9  25
HETATM   25  C17 UNK     1      16.423  10.532  33.822  1.00  0.00    -0.020 A 
HETATM   26  C21 UNK     1      17.429  11.433  34.170  1.00  0.00     0.012 A 
HETATM   27  C23 UNK     1      17.147  12.797  34.244  1.00  0.00     0.001 A 
HETATM   28  C25 UNK     1      15.860  13.259  33.970  1.00  0.00     0.000 A 
HETATM   29  C24 UNK     1      14.854  12.358  33.621  1.00  0.00     0.001 A 
HETATM   30  C22 UNK     1      15.136  10.993  33.547  1.00  0.00     0.012 A 
ENDBRANCH   9  25
TORSDOF 2
ENDMDL
MODEL 6
REMARK VINA RESULT:     -10.4     16.504     20.670
REMARK  2 active torsions:
REMARK  status: ('A' for Active; 'I' for Inactive)
REMARK    1  A    between atoms: C4_9  and  N1_3 
REMARK    2  A    between atoms: C13_18  and  C17_22 
ROOT
HETATM    1  O1  UNK     1      19.868  -1.916  10.874  1.00  0.00    -0.274 OA
HETATM    2  O2  UNK     1      20.183  -2.581   8.713  1.00  0.00    -0.259 OA
HETATM    3  C4  UNK     1      19.112  -1.455  14.439  1.00  0.00     0.082 A 
HETATM    4  C6  UNK     1      18.981  -3.480  12.507  1.00  0.00    -0.001 A 
HETATM    5  C7  UNK     1      19.449  -2.212  12.185  1.00  0.00     0.092 A 
HETATM    6  C8  UNK     1      19.520  -1.193  13.133  1.00  0.00     0.071 A 
HETATM    7  C10 UNK     1      18.638  -2.724  14.781  1.00  0.00     0.034 A 
HETATM    8  C12 UNK     1      18.573  -3.735  13.818  1.00  0.00     0.017 A 
HETATM    9  C13 UNK     1      19.332  -4.219  10.218  1.00  0.00     0.051 A 
HETATM   10  C14 UNK     1      18.935  -4.497  11.470  1.00  0.00     0.032 A 
HETATM   11  C18 UNK     1      19.828  -2.864   9.854  1.00  0.00     0.299 A 
ENDROOT
BRANCH   3  12
HETATM   12  N1  UNK     1      19.173  -0.457  15.398  1.00  0.00    -0.150 N 
HETATM   13  N2  UNK     1      19.160  -0.768  16.696  1.00  0.00    -0.147 NA
HETATM   14  C1  UNK     1      19.232   0.439  17.282  1.00  0.00     0.120 A 
HETATM   15  C2  UNK     1      19.257   0.795  18.664  1.00  0.00     0.007 A 
HETATM   16  C3  UNK     1      19.288   1.454  16.220  1.00  0.00     0.110 A 
HETATM   17  C15 UNK     1      19.207  -0.145  19.712  1.00  0.00     0.015 A 
HETATM   18  C5  UNK     1      19.339   2.194  18.924  1.00  0.00    -0.023 A 
HETATM   19  C19 UNK     1      19.238   0.298  21.031  1.00  0.00     0.001 A 
HETATM   20  C20 UNK     1      19.317   1.663  21.307  1.00  0.00     0.001 A 
HETATM   21  C16 UNK     1      19.367   2.598  20.267  1.00  0.00     0.012 A 
HETATM   22  C11 UNK     1      19.391   3.153  17.869  1.00  0.00     0.015 A 
HETATM   23  C9  UNK     1      19.369   2.829  16.499  1.00  0.00     0.037 A 
HETATM   24  N3  UNK     1      19.247   0.825  15.034  1.00  0.00    -0.147 NA
ENDBRANCH   3  12
BRANCH   9  25
HETATM   25  C17 UNK     1      19.281  -5.245   9.223  1.00  0.00    -0.020 A 
HETATM   26  C21 UNK     1      18.133  -5.408   8.448  1.00  0.00     0.012 A 
HETATM   27  C23 UNK     1      18.084  -6.407   7.477  1.00  0.00     0.001 A 
HETATM   28  C25 UNK     1      19.182  -7.245   7.282  1.00  0.00     0.000 A 
HETATM   29  C24 UNK     1      20.331  -7.082   8.057  1.00  0.00     0.001 A 
HETATM   30  C22 UNK     1      20.379  -6.081   9.028  1.00  0.00     0.012 A 
ENDBRANCH   9  25
TORSDOF 2
ENDMDL
MODEL 7
REMARK VINA RESULT:     -10.4      2.755     10.621
REMARK  2 active torsions:
REMARK  status: ('A' for Active; 'I' for Inactive)
REMARK    1  A    between atoms: C4_9  and  N1_3 
REMARK    2  A    between atoms: C13_18  and  C17_22 
ROOT
HETATM    1  O1  UNK     1      16.564   6.881  31.389  1.00  0.00    -0.274 OA
HETATM    2  O2  UNK     1      15.589   8.944  31.314  1.00  0.00    -0.259 OA
HETATM    3  C4  UNK     1      18.234   3.699  32.150  1.00  0.00     0.082 A 
HETATM    4  C6  UNK     1      17.393   6.007  33.499  1.00  0.00    -0.001 A 
HETATM    5  C7  UNK     1      17.194   5.864  32.130  1.00  0.00     0.092 A 
HETATM    6  C8  UNK     1      17.606   4.722  31.445  1.00  0.00     0.071 A 
HETATM    7  C10 UNK     1      18.443   3.825  33.526  1.00  0.00     0.034 A 
HETATM    8  C12 UNK     1      18.023   4.977  34.200  1.00  0.00     0.017 A 
HETATM    9  C13 UNK     1      16.336   8.196  33.448  1.00  0.00     0.051 A 
HETATM   10  C14 UNK     1      16.936   7.222  34.151  1.00  0.00     0.032 A 
HETATM   11  C18 UNK     1      16.123   8.062  31.981  1.00  0.00     0.299 A 
ENDROOT
BRANCH   3  12
HETATM   12  N1  UNK     1      18.653   2.555  31.489  1.00  0.00    -0.150 N 
HETATM   13  N2  UNK     1      19.101   1.505  32.179  1.00  0.00    -0.147 NA
HETATM   14  C1  UNK     1      19.399   0.628  31.205  1.00  0.00     0.120 A 
HETATM   15  C2  UNK     1      19.926  -0.696  31.284  1.00  0.00     0.007 A 
HETATM   16  C3  UNK     1      19.086   1.261  29.916  1.00  0.00     0.110 A 
HETATM   17  C15 UNK     1      20.239  -1.340  32.497  1.00  0.00     0.015 A 
HETATM   18  C5  UNK     1      20.120  -1.343  30.028  1.00  0.00    -0.023 A 
HETATM   19  C19 UNK     1      20.748  -2.635  32.474  1.00  0.00     0.001 A 
HETATM   20  C20 UNK     1      20.946  -3.285  31.256  1.00  0.00     0.001 A 
HETATM   21  C16 UNK     1      20.636  -2.647  30.049  1.00  0.00     0.012 A 
HETATM   22  C11 UNK     1      19.805  -0.700  28.794  1.00  0.00     0.015 A 
HETATM   23  C9  UNK     1      19.284   0.605  28.689  1.00  0.00     0.037 A 
HETATM   24  N3  UNK     1      18.610   2.494  30.157  1.00  0.00    -0.147 NA
ENDBRANCH   3  12
BRANCH   9  25
HETATM   25  C17 UNK     1      15.892   9.375  34.123  1.00  0.00    -0.020 A 
HETATM   26  C21 UNK     1      16.734  10.483  34.218  1.00  0.00     0.012 A 
HETATM   27  C23 UNK     1      16.301  11.634  34.875  1.00  0.00     0.001 A 
HETATM   28  C25 UNK     1      15.025  11.677  35.438  1.00  0.00     0.000 A 
HETATM   29  C24 UNK     1      14.183  10.569  35.343  1.00  0.00     0.001 A 
HETATM   30  C22 UNK     1      14.617   9.418  34.686  1.00  0.00     0.012 A 
ENDBRANCH   9  25
TORSDOF 2
ENDMDL
MODEL 8
REMARK VINA RESULT:     -10.1      6.544      9.210
REMARK  2 active torsions:
REMARK  status: ('A' for Active; 'I' for Inactive)
REMARK    1  A    between atoms: C4_9  and  N1_3 
REMARK    2  A    between atoms: C13_18  and  C17_22 
ROOT
HETATM    1  O1  UNK     1      20.136  -4.027  34.632  1.00  0.00    -0.274 OA
HETATM    2  O2  UNK     1      20.776  -6.186  35.009  1.00  0.00    -0.259 OA
HETATM    3  C4  UNK     1      18.871  -0.579  34.646  1.00  0.00     0.082 A 
HETATM    4  C6  UNK     1      19.090  -2.744  36.410  1.00  0.00    -0.001 A 
HETATM    5  C7  UNK     1      19.550  -2.837  35.102  1.00  0.00     0.092 A 
HETATM    6  C8  UNK     1      19.449  -1.769  34.211  1.00  0.00     0.071 A 
HETATM    7  C10 UNK     1      18.404  -0.467  35.958  1.00  0.00     0.034 A 
HETATM    8  C12 UNK     1      18.513  -1.547  36.839  1.00  0.00     0.017 A 
HETATM    9  C13 UNK     1      19.787  -5.033  36.843  1.00  0.00     0.051 A 
HETATM   10  C14 UNK     1      19.230  -3.895  37.286  1.00  0.00     0.032 A 
HETATM   11  C18 UNK     1      20.276  -5.152  35.442  1.00  0.00     0.299 A 
ENDROOT
BRANCH   3  12
HETATM   12  N1  UNK     1      18.760   0.496  33.778  1.00  0.00    -0.150 N 
HETATM   13  N2  UNK     1      18.554   1.726  34.252  1.00  0.00    -0.147 NA
HETATM   14  C1  UNK     1      18.505   2.462  33.128  1.00  0.00     0.120 A 
HETATM   15  C2  UNK     1      18.308   3.865  32.951  1.00  0.00     0.007 A 
HETATM   16  C3  UNK     1      18.699   1.557  31.987  1.00  0.00     0.110 A 
HETATM   17  C15 UNK     1      18.120   4.767  34.017  1.00  0.00     0.015 A 
HETATM   18  C5  UNK     1      18.314   4.307  31.596  1.00  0.00    -0.023 A 
HETATM   19  C19 UNK     1      17.936   6.119  33.745  1.00  0.00     0.001 A 
HETATM   20  C20 UNK     1      17.939   6.572  32.426  1.00  0.00     0.001 A 
HETATM   21  C16 UNK     1      18.125   5.678  31.366  1.00  0.00     0.012 A 
HETATM   22  C11 UNK     1      18.505   3.401  30.510  1.00  0.00     0.015 A 
HETATM   23  C9  UNK     1      18.702   2.015  30.658  1.00  0.00     0.037 A 
HETATM   24  N3  UNK     1      18.857   0.310  32.460  1.00  0.00    -0.147 NA
ENDBRANCH   3  12
BRANCH   9  25
HETATM   25  C17 UNK     1      19.915  -6.144  37.734  1.00  0.00    -0.020 A 
HETATM   26  C21 UNK     1      21.003  -6.218  38.604  1.00  0.00     0.012 A 
HETATM   27  C23 UNK     1      21.127  -7.300  39.474  1.00  0.00     0.001 A 
HETATM   28  C25 UNK     1      20.163  -8.309  39.474  1.00  0.00     0.000 A 
HETATM   29  C24 UNK     1      19.075  -8.235  38.605  1.00  0.00     0.001 A 
HETATM   30  C22 UNK     1      18.952  -7.151  37.734  1.00  0.00     0.012 A 
ENDBRANCH   9  25
TORSDOF 2
ENDMDL
MODEL 9
REMARK VINA RESULT:     -10.0     15.948     20.190
REMARK  2 active torsions:
REMARK  status: ('A' for Active; 'I' for Inactive)
REMARK    1  A    between atoms: C4_9  and  N1_3 
REMARK    2  A    between atoms: C13_18  and  C17_22 
ROOT
HETATM    1  O1  UNK     1      18.340  -4.909  13.962  1.00  0.00    -0.274 OA
HETATM    2  O2  UNK     1      17.944  -7.072  13.347  1.00  0.00    -0.259 OA
HETATM    3  C4  UNK     1      19.164  -1.348  14.322  1.00  0.00     0.082 A 
HETATM    4  C6  UNK     1      19.080  -3.293  12.307  1.00  0.00    -0.001 A 
HETATM    5  C7  UNK     1      18.737  -3.604  13.618  1.00  0.00     0.092 A 
HETATM    6  C8  UNK     1      18.773  -2.648  14.632  1.00  0.00     0.071 A 
HETATM    7  C10 UNK     1      19.513  -1.017  13.011  1.00  0.00     0.034 A 
HETATM    8  C12 UNK     1      19.471  -1.987  12.004  1.00  0.00     0.017 A 
HETATM    9  C13 UNK     1      18.640  -5.584  11.623  1.00  0.00     0.051 A 
HETATM   10  C14 UNK     1      19.018  -4.338  11.299  1.00  0.00     0.032 A 
HETATM   11  C18 UNK     1      18.278  -5.936  13.023  1.00  0.00     0.299 A 
ENDROOT
BRANCH   3  12
HETATM   12  N1  UNK     1      19.208  -0.382  15.315  1.00  0.00    -0.150 N 
HETATM   13  N2  UNK     1      19.167  -0.734  16.601  1.00  0.00    -0.147 NA
HETATM   14  C1  UNK     1      19.230   0.453  17.227  1.00  0.00     0.120 A 
HETATM   15  C2  UNK     1      19.228   0.765  18.620  1.00  0.00     0.007 A 
HETATM   16  C3  UNK     1      19.309   1.501  16.199  1.00  0.00     0.110 A 
HETATM   17  C15 UNK     1      19.155  -0.208  19.636  1.00  0.00     0.015 A 
HETATM   18  C5  UNK     1      19.307   2.155  18.926  1.00  0.00    -0.023 A 
HETATM   19  C19 UNK     1      19.160   0.193  20.969  1.00  0.00     0.001 A 
HETATM   20  C20 UNK     1      19.236   1.547  21.289  1.00  0.00     0.001 A 
HETATM   21  C16 UNK     1      19.309   2.515  20.281  1.00  0.00     0.012 A 
HETATM   22  C11 UNK     1      19.383   3.147  17.904  1.00  0.00     0.015 A 
HETATM   23  C9  UNK     1      19.388   2.867  16.523  1.00  0.00     0.037 A 
HETATM   24  N3  UNK     1      19.292   0.911  14.993  1.00  0.00    -0.147 NA
ENDBRANCH   3  12
BRANCH   9  25
HETATM   25  C17 UNK     1      18.583  -6.586  10.604  1.00  0.00    -0.020 A 
HETATM   26  C21 UNK     1      19.760  -7.157  10.121  1.00  0.00     0.012 A 
HETATM   27  C23 UNK     1      19.704  -8.134   9.128  1.00  0.00     0.001 A 
HETATM   28  C25 UNK     1      18.470  -8.540   8.618  1.00  0.00     0.000 A 
HETATM   29  C24 UNK     1      17.293  -7.970   9.101  1.00  0.00     0.001 A 
HETATM   30  C22 UNK     1      17.350  -6.991  10.095  1.00  0.00     0.012 A 
ENDBRANCH   9  25
TORSDOF 2
ENDMDL
MODEL 10
REMARK VINA RESULT:     -10.0     16.802     18.758
REMARK  2 active torsions:
REMARK  status: ('A' for Active; 'I' for Inactive)
REMARK    1  A    between atoms: C4_9  and  N1_3 
REMARK    2  A    between atoms: C13_18  and  C17_22 
ROOT
HETATM    1  O1  UNK     1      29.045  -5.484  38.611  1.00  0.00    -0.274 OA
HETATM    2  O2  UNK     1      31.005  -4.344  38.875  1.00  0.00    -0.259 OA
HETATM    3  C4  UNK     1      26.227  -7.672  37.737  1.00  0.00     0.082 A 
HETATM    4  C6  UNK     1      28.938  -7.377  37.093  1.00  0.00    -0.001 A 
HETATM    5  C7  UNK     1      28.319  -6.522  37.997  1.00  0.00     0.092 A 
HETATM    6  C8  UNK     1      26.972  -6.655  38.329  1.00  0.00     0.071 A 
HETATM    7  C10 UNK     1      26.831  -8.540  36.825  1.00  0.00     0.034 A 
HETATM    8  C12 UNK     1      28.184  -8.395  36.503  1.00  0.00     0.017 A 
HETATM    9  C13 UNK     1      31.043  -6.194  37.376  1.00  0.00     0.051 A 
HETATM   10  C14 UNK     1      30.347  -7.184  36.795  1.00  0.00     0.032 A 
HETATM   11  C18 UNK     1      30.394  -5.265  38.340  1.00  0.00     0.299 A 
ENDROOT
BRANCH   3  12
HETATM   12  N1  UNK     1      24.885  -7.822  38.050  1.00  0.00    -0.150 N 
HETATM   13  N2  UNK     1      24.145  -8.737  37.422  1.00  0.00    -0.147 NA
HETATM   14  C1  UNK     1      22.939  -8.573  37.993  1.00  0.00     0.120 A 
HETATM   15  C2  UNK     1      21.707  -9.253  37.759  1.00  0.00     0.007 A 
HETATM   16  C3  UNK     1      23.054  -7.498  38.989  1.00  0.00     0.110 A 
HETATM   17  C15 UNK     1      21.554 -10.288  36.817  1.00  0.00     0.015 A 
HETATM   18  C5  UNK     1      20.613  -8.809  38.559  1.00  0.00    -0.023 A 
HETATM   19  C19 UNK     1      20.310 -10.893  36.660  1.00  0.00     0.001 A 
HETATM   20  C20 UNK     1      19.228 -10.474  37.433  1.00  0.00     0.001 A 
HETATM   21  C16 UNK     1      19.377  -9.445  38.370  1.00  0.00     0.012 A 
HETATM   22  C11 UNK     1      20.758  -7.762  39.518  1.00  0.00     0.015 A 
HETATM   23  C9  UNK     1      21.963  -7.076  39.767  1.00  0.00     0.037 A 
HETATM   24  N3  UNK     1      24.321  -7.053  38.984  1.00  0.00    -0.147 NA
ENDBRANCH   3  12
BRANCH   9  25
HETATM   25  C17 UNK     1      32.430  -6.037  37.066  1.00  0.00    -0.020 A 
HETATM   26  C21 UNK     1      32.830  -5.090  36.124  1.00  0.00     0.012 A 
HETATM   27  C23 UNK     1      34.183  -4.936  35.822  1.00  0.00     0.001 A 
HETATM   28  C25 UNK     1      35.135  -5.730  36.462  1.00  0.00     0.000 A 
HETATM   29  C24 UNK     1      34.734  -6.677  37.404  1.00  0.00     0.001 A 
HETATM   30  C22 UNK     1      33.381  -6.831  37.706  1.00  0.00     0.012 A 
ENDBRANCH   9  25
TORSDOF 2
ENDMDL
