MODEL 1
REMARK VINA RESULT:      -9.0      0.000      0.000
REMARK  4 active torsions:
REMARK  status: ('A' for Active; 'I' for Inactive)
REMARK    1  A    between atoms: C1_8  and  N1_6 
REMARK    2  A    between atoms: C3_10  and  N1_6 
REMARK    3  A    between atoms: C5_12  and  N2_7 
REMARK    4  A    between atoms: C3_10  and  C6_13 
ROOT
HETATM    1  O1  UNK     1      19.624  -1.448  32.814  1.00  0.00    -0.273 OA
HETATM    2  O2  UNK     1      18.773  -1.231  34.920  1.00  0.00    -0.257 OA
HETATM    3  C1  UNK     1      18.424   1.070  32.153  1.00  0.00     0.081 A 
HETATM    4  C2  UNK     1      19.197   0.298  31.146  1.00  0.00     0.027 A 
HETATM    5  C4  UNK     1      19.768  -0.926  31.513  1.00  0.00     0.092 A 
HETATM    6  C5  UNK     1      18.327   0.508  33.369  1.00  0.00     0.205 A 
HETATM    7  C7  UNK     1      19.402   0.717  29.820  1.00  0.00     0.017 A 
HETATM    8  C8  UNK     1      18.907  -0.777  33.790  1.00  0.00     0.324 A 
HETATM    9  C9  UNK     1      20.510  -1.710  30.626  1.00  0.00     0.038 A 
HETATM   10  C10 UNK     1      20.143  -0.060  28.919  1.00  0.00     0.001 A 
HETATM   11  C13 UNK     1      20.697  -1.271  29.321  1.00  0.00     0.003 A 
ENDROOT
BRANCH   3  12
HETATM   12  N1  UNK     1      17.882   2.270  31.769  1.00  0.00    -0.383 N 
HETATM   13  H3  UNK     1      16.957   2.516  32.100  1.00  0.00     0.160 HD
BRANCH  12  14
HETATM   14  C3  UNK     1      18.625   3.278  31.066  1.00  0.00     0.158 C 
BRANCH  14  15
HETATM   15  C6  UNK     1      18.766   4.537  31.874  1.00  0.00    -0.041 A 
HETATM   16  C11 UNK     1      17.939   4.748  32.970  1.00  0.00     0.010 A 
HETATM   17  C14 UNK     1      18.069   5.917  33.718  1.00  0.00     0.024 A 
HETATM   18  C16 UNK     1      19.027   6.868  33.364  1.00  0.00     0.034 A 
HETATM   19  C15 UNK     1      19.853   6.649  32.263  1.00  0.00     0.024 A 
HETATM   20 Cl1  UNK     1      19.187   8.312  34.287  1.00  0.00    -0.084 Cl
HETATM   21  C12 UNK     1      19.723   5.480  31.514  1.00  0.00     0.010 A 
ENDBRANCH  14  15
ENDBRANCH  12  14
ENDBRANCH   3  12
BRANCH   6  22
HETATM   22  N2  UNK     1      17.590   1.219  34.365  1.00  0.00    -0.107 N 
HETATM   23  O3  UNK     1      16.377   0.985  34.438  1.00  0.00    -0.531 OA
HETATM   24  O4  UNK     1      18.220   2.012  35.072  1.00  0.00    -0.531 OA
ENDBRANCH   6  22
TORSDOF 4
ENDMDL
MODEL 2
REMARK VINA RESULT:      -8.4      5.677      8.946
REMARK  4 active torsions:
REMARK  status: ('A' for Active; 'I' for Inactive)
REMARK    1  A    between atoms: C1_8  and  N1_6 
REMARK    2  A    between atoms: C3_10  and  N1_6 
REMARK    3  A    between atoms: C5_12  and  N2_7 
REMARK    4  A    between atoms: C3_10  and  C6_13 
ROOT
HETATM    1  O1  UNK     1      17.890  -0.616  33.300  1.00  0.00    -0.273 OA
HETATM    2  O2  UNK     1      19.225  -1.510  31.679  1.00  0.00    -0.257 OA
HETATM    3  C1  UNK     1      19.628  -1.776  35.263  1.00  0.00     0.081 A 
HETATM    4  C2  UNK     1      18.433  -0.989  35.662  1.00  0.00     0.027 A 
HETATM    5  C4  UNK     1      17.613  -0.439  34.670  1.00  0.00     0.092 A 
HETATM    6  C5  UNK     1      19.825  -1.904  33.940  1.00  0.00     0.205 A 
HETATM    7  C7  UNK     1      18.055  -0.751  36.995  1.00  0.00     0.017 A 
HETATM    8  C8  UNK     1      18.984  -1.347  32.870  1.00  0.00     0.324 A 
HETATM    9  C9  UNK     1      16.473   0.314  34.964  1.00  0.00     0.038 A 
HETATM   10  C10 UNK     1      16.914   0.001  37.304  1.00  0.00     0.001 A 
HETATM   11  C13 UNK     1      16.124   0.534  36.290  1.00  0.00     0.003 A 
ENDROOT
BRANCH   3  12
HETATM   12  N1  UNK     1      20.418  -2.297  36.255  1.00  0.00    -0.383 N 
HETATM   13  H3  UNK     1      21.373  -1.969  36.340  1.00  0.00     0.160 HD
BRANCH  12  14
HETATM   14  C3  UNK     1      19.916  -3.154  37.291  1.00  0.00     0.158 C 
BRANCH  14  15
HETATM   15  C6  UNK     1      20.349  -4.579  37.100  1.00  0.00    -0.041 A 
HETATM   16  C11 UNK     1      21.308  -5.126  37.945  1.00  0.00     0.010 A 
HETATM   17  C14 UNK     1      21.711  -6.449  37.766  1.00  0.00     0.024 A 
HETATM   18  C16 UNK     1      21.151  -7.216  36.744  1.00  0.00     0.034 A 
HETATM   19  C15 UNK     1      20.190  -6.661  35.901  1.00  0.00     0.024 A 
HETATM   20 Cl1  UNK     1      21.649  -8.849  36.524  1.00  0.00    -0.084 Cl
HETATM   21  C12 UNK     1      19.786  -5.337  36.079  1.00  0.00     0.010 A 
ENDBRANCH  14  15
ENDBRANCH  12  14
ENDBRANCH   3  12
BRANCH   6  22
HETATM   22  N2  UNK     1      20.964  -2.656  33.516  1.00  0.00    -0.107 N 
HETATM   23  O3  UNK     1      20.786  -3.857  33.278  1.00  0.00    -0.531 OA
HETATM   24  O4  UNK     1      22.035  -2.048  33.422  1.00  0.00    -0.531 OA
ENDBRANCH   6  22
TORSDOF 4
ENDMDL
MODEL 3
REMARK VINA RESULT:      -8.4      1.616      2.276
REMARK  4 active torsions:
REMARK  status: ('A' for Active; 'I' for Inactive)
REMARK    1  A    between atoms: C1_8  and  N1_6 
REMARK    2  A    between atoms: C3_10  and  N1_6 
REMARK    3  A    between atoms: C5_12  and  N2_7 
REMARK    4  A    between atoms: C3_10  and  C6_13 
ROOT
HETATM    1  O1  UNK     1      20.636  -2.423  32.120  1.00  0.00    -0.273 OA
HETATM    2  O2  UNK     1      20.448  -3.192  34.260  1.00  0.00    -0.257 OA
HETATM    3  C1  UNK     1      18.892  -0.260  32.826  1.00  0.00     0.081 A 
HETATM    4  C2  UNK     1      19.436  -0.392  31.450  1.00  0.00     0.027 A 
HETATM    5  C4  UNK     1      20.285  -1.463  31.150  1.00  0.00     0.092 A 
HETATM    6  C5  UNK     1      19.267  -1.213  33.695  1.00  0.00     0.205 A 
HETATM    7  C7  UNK     1      19.152   0.501  30.402  1.00  0.00     0.017 A 
HETATM    8  C8  UNK     1      20.151  -2.355  33.416  1.00  0.00     0.324 A 
HETATM    9  C9  UNK     1      20.838  -1.656  29.881  1.00  0.00     0.038 A 
HETATM   10  C10 UNK     1      19.699   0.319  29.124  1.00  0.00     0.001 A 
HETATM   11  C13 UNK     1      20.541  -0.757  28.864  1.00  0.00     0.003 A 
ENDROOT
BRANCH   3  12
HETATM   12  N1  UNK     1      18.068   0.803  33.095  1.00  0.00    -0.383 N 
HETATM   13  H3  UNK     1      17.109   0.771  32.773  1.00  0.00     0.160 HD
BRANCH  12  14
HETATM   14  C3  UNK     1      18.440   1.886  33.962  1.00  0.00     0.158 C 
BRANCH  14  15
HETATM   15  C6  UNK     1      18.277   3.221  33.294  1.00  0.00    -0.041 A 
HETATM   16  C11 UNK     1      18.144   3.288  31.912  1.00  0.00     0.010 A 
HETATM   17  C14 UNK     1      17.994   4.528  31.293  1.00  0.00     0.024 A 
HETATM   18  C16 UNK     1      17.977   5.694  32.060  1.00  0.00     0.034 A 
HETATM   19  C15 UNK     1      18.111   5.618  33.446  1.00  0.00     0.024 A 
HETATM   20 Cl1  UNK     1      17.793   7.224  31.295  1.00  0.00    -0.084 Cl
HETATM   21  C12 UNK     1      18.261   4.378  34.066  1.00  0.00     0.010 A 
ENDBRANCH  14  15
ENDBRANCH  12  14
ENDBRANCH   3  12
BRANCH   6  22
HETATM   22  N2  UNK     1      18.763  -1.122  35.029  1.00  0.00    -0.107 N 
HETATM   23  O3  UNK     1      19.573  -0.825  35.915  1.00  0.00    -0.531 OA
HETATM   24  O4  UNK     1      17.560  -1.348  35.191  1.00  0.00    -0.531 OA
ENDBRANCH   6  22
TORSDOF 4
ENDMDL
MODEL 4
REMARK VINA RESULT:      -8.4      1.918      2.687
REMARK  4 active torsions:
REMARK  status: ('A' for Active; 'I' for Inactive)
REMARK    1  A    between atoms: C1_8  and  N1_6 
REMARK    2  A    between atoms: C3_10  and  N1_6 
REMARK    3  A    between atoms: C5_12  and  N2_7 
REMARK    4  A    between atoms: C3_10  and  C6_13 
ROOT
HETATM    1  O1  UNK     1      19.933  -2.470  34.945  1.00  0.00    -0.273 OA
HETATM    2  O2  UNK     1      19.220  -2.221  37.099  1.00  0.00    -0.257 OA
HETATM    3  C1  UNK     1      18.377  -0.167  34.244  1.00  0.00     0.081 A 
HETATM    4  C2  UNK     1      19.165  -0.903  33.222  1.00  0.00     0.027 A 
HETATM    5  C4  UNK     1      19.913  -2.022  33.610  1.00  0.00     0.092 A 
HETATM    6  C5  UNK     1      18.443  -0.656  35.494  1.00  0.00     0.205 A 
HETATM    7  C7  UNK     1      19.217  -0.551  31.863  1.00  0.00     0.017 A 
HETATM    8  C8  UNK     1      19.211  -1.829  35.937  1.00  0.00     0.324 A 
HETATM    9  C9  UNK     1      20.680  -2.766  32.710  1.00  0.00     0.038 A 
HETATM   10  C10 UNK     1      19.981  -1.289  30.949  1.00  0.00     0.001 A 
HETATM   11  C13 UNK     1      20.713  -2.394  31.372  1.00  0.00     0.003 A 
ENDROOT
BRANCH   3  12
HETATM   12  N1  UNK     1      17.660   0.929  33.839  1.00  0.00    -0.383 N 
HETATM   13  H3  UNK     1      16.827   0.788  33.281  1.00  0.00     0.160 HD
BRANCH  12  14
HETATM   14  C3  UNK     1      17.926   2.259  34.310  1.00  0.00     0.158 C 
BRANCH  14  15
HETATM   15  C6  UNK     1      18.207   3.209  33.181  1.00  0.00    -0.041 A 
HETATM   16  C11 UNK     1      18.317   2.722  31.884  1.00  0.00     0.010 A 
HETATM   17  C14 UNK     1      18.580   3.604  30.836  1.00  0.00     0.024 A 
HETATM   18  C16 UNK     1      18.731   4.967  31.092  1.00  0.00     0.034 A 
HETATM   19  C15 UNK     1      18.619   5.448  32.396  1.00  0.00     0.024 A 
HETATM   20 Cl1  UNK     1      19.056   6.055  29.799  1.00  0.00    -0.084 Cl
HETATM   21  C12 UNK     1      18.357   4.566  33.445  1.00  0.00     0.010 A 
ENDBRANCH  14  15
ENDBRANCH  12  14
ENDBRANCH   3  12
BRANCH   6  22
HETATM   22  N2  UNK     1      17.697   0.024  36.505  1.00  0.00    -0.107 N 
HETATM   23  O3  UNK     1      16.473  -0.156  36.515  1.00  0.00    -0.531 OA
HETATM   24  O4  UNK     1      18.332   0.738  37.288  1.00  0.00    -0.531 OA
ENDBRANCH   6  22
TORSDOF 4
ENDMDL
MODEL 5
REMARK VINA RESULT:      -8.3      1.869      3.750
REMARK  4 active torsions:
REMARK  status: ('A' for Active; 'I' for Inactive)
REMARK    1  A    between atoms: C1_8  and  N1_6 
REMARK    2  A    between atoms: C3_10  and  N1_6 
REMARK    3  A    between atoms: C5_12  and  N2_7 
REMARK    4  A    between atoms: C3_10  and  C6_13 
ROOT
HETATM    1  O1  UNK     1      19.308  -0.874  33.072  1.00  0.00    -0.273 OA
HETATM    2  O2  UNK     1      19.775  -1.490  30.925  1.00  0.00    -0.257 OA
HETATM    3  C1  UNK     1      18.360   1.637  32.063  1.00  0.00     0.081 A 
HETATM    4  C2  UNK     1      18.352   1.340  33.519  1.00  0.00     0.027 A 
HETATM    5  C4  UNK     1      18.822   0.100  33.967  1.00  0.00     0.092 A 
HETATM    6  C5  UNK     1      18.840   0.662  31.273  1.00  0.00     0.205 A 
HETATM    7  C7  UNK     1      17.897   2.234  34.503  1.00  0.00     0.017 A 
HETATM    8  C8  UNK     1      19.347  -0.648  31.706  1.00  0.00     0.324 A 
HETATM    9  C9  UNK     1      18.846  -0.256  35.318  1.00  0.00     0.038 A 
HETATM   10  C10 UNK     1      17.917   1.891  35.862  1.00  0.00     0.001 A 
HETATM   11  C13 UNK     1      18.390   0.648  36.269  1.00  0.00     0.003 A 
ENDROOT
BRANCH   3  12
HETATM   12  N1  UNK     1      17.887   2.856  31.651  1.00  0.00    -0.383 N 
HETATM   13  H3  UNK     1      16.928   3.103  31.861  1.00  0.00     0.160 HD
BRANCH  12  14
HETATM   14  C3  UNK     1      18.727   3.876  31.090  1.00  0.00     0.158 C 
BRANCH  14  15
HETATM   15  C6  UNK     1      18.914   5.031  32.032  1.00  0.00    -0.041 A 
HETATM   16  C11 UNK     1      20.101   5.754  32.006  1.00  0.00     0.010 A 
HETATM   17  C14 UNK     1      20.275   6.825  32.882  1.00  0.00     0.024 A 
HETATM   18  C16 UNK     1      19.260   7.166  33.778  1.00  0.00     0.034 A 
HETATM   19  C15 UNK     1      18.073   6.436  33.797  1.00  0.00     0.024 A 
HETATM   20 Cl1  UNK     1      19.476   8.487  34.859  1.00  0.00    -0.084 Cl
HETATM   21  C12 UNK     1      17.898   5.364  32.921  1.00  0.00     0.010 A 
ENDBRANCH  14  15
ENDBRANCH  12  14
ENDBRANCH   3  12
BRANCH   6  22
HETATM   22  N2  UNK     1      18.866   0.911  29.866  1.00  0.00    -0.107 N 
HETATM   23  O3  UNK     1      17.778   1.111  29.312  1.00  0.00    -0.531 OA
HETATM   24  O4  UNK     1      19.971   0.904  29.315  1.00  0.00    -0.531 OA
ENDBRANCH   6  22
TORSDOF 4
ENDMDL
MODEL 6
REMARK VINA RESULT:      -8.3      4.564      7.301
REMARK  4 active torsions:
REMARK  status: ('A' for Active; 'I' for Inactive)
REMARK    1  A    between atoms: C1_8  and  N1_6 
REMARK    2  A    between atoms: C3_10  and  N1_6 
REMARK    3  A    between atoms: C5_12  and  N2_7 
REMARK    4  A    between atoms: C3_10  and  C6_13 
ROOT
HETATM    1  O1  UNK     1      18.747   1.113  31.721  1.00  0.00    -0.273 OA
HETATM    2  O2  UNK     1      17.677   2.406  33.267  1.00  0.00    -0.257 OA
HETATM    3  C1  UNK     1      18.906  -0.969  33.686  1.00  0.00     0.081 A 
HETATM    4  C2  UNK     1      19.471  -1.151  32.324  1.00  0.00     0.027 A 
HETATM    5  C4  UNK     1      19.369  -0.109  31.395  1.00  0.00     0.092 A 
HETATM    6  C5  UNK     1      18.332   0.222  33.923  1.00  0.00     0.205 A 
HETATM    7  C7  UNK     1      20.115  -2.322  31.888  1.00  0.00     0.017 A 
HETATM    8  C8  UNK     1      18.212   1.342  32.978  1.00  0.00     0.324 A 
HETATM    9  C9  UNK     1      19.873  -0.203  30.096  1.00  0.00     0.038 A 
HETATM   10  C10 UNK     1      20.627  -2.429  30.588  1.00  0.00     0.001 A 
HETATM   11  C13 UNK     1      20.505  -1.372  29.692  1.00  0.00     0.003 A 
ENDROOT
BRANCH   3  12
HETATM   12  N1  UNK     1      19.012  -2.009  34.573  1.00  0.00    -0.383 N 
HETATM   13  H3  UNK     1      18.400  -2.809  34.462  1.00  0.00     0.160 HD
BRANCH  12  14
HETATM   14  C3  UNK     1      20.061  -2.107  35.547  1.00  0.00     0.158 C 
BRANCH  14  15
HETATM   15  C6  UNK     1      20.185  -3.497  36.103  1.00  0.00    -0.041 A 
HETATM   16  C11 UNK     1      20.630  -3.679  37.407  1.00  0.00     0.010 A 
HETATM   17  C14 UNK     1      20.746  -4.970  37.922  1.00  0.00     0.024 A 
HETATM   18  C16 UNK     1      20.416  -6.070  37.129  1.00  0.00     0.034 A 
HETATM   19  C15 UNK     1      19.970  -5.878  35.822  1.00  0.00     0.024 A 
HETATM   20 Cl1  UNK     1      20.560  -7.662  37.764  1.00  0.00    -0.084 Cl
HETATM   21  C12 UNK     1      19.854  -4.587  35.306  1.00  0.00     0.010 A 
ENDBRANCH  14  15
ENDBRANCH  12  14
ENDBRANCH   3  12
BRANCH   6  22
HETATM   22  N2  UNK     1      17.778   0.437  35.223  1.00  0.00    -0.107 N 
HETATM   23  O3  UNK     1      18.516   0.960  36.067  1.00  0.00    -0.531 OA
HETATM   24  O4  UNK     1      16.608   0.082  35.401  1.00  0.00    -0.531 OA
ENDBRANCH   6  22
TORSDOF 4
ENDMDL
MODEL 7
REMARK VINA RESULT:      -8.2      3.891      5.222
REMARK  4 active torsions:
REMARK  status: ('A' for Active; 'I' for Inactive)
REMARK    1  A    between atoms: C1_8  and  N1_6 
REMARK    2  A    between atoms: C3_10  and  N1_6 
REMARK    3  A    between atoms: C5_12  and  N2_7 
REMARK    4  A    between atoms: C3_10  and  C6_13 
ROOT
HETATM    1  O1  UNK     1      19.164   0.301  28.603  1.00  0.00    -0.273 OA
HETATM    2  O2  UNK     1      18.192   2.289  28.047  1.00  0.00    -0.257 OA
HETATM    3  C1  UNK     1      19.109   1.130  31.347  1.00  0.00     0.081 A 
HETATM    4  C2  UNK     1      19.674  -0.186  30.952  1.00  0.00     0.027 A 
HETATM    5  C4  UNK     1      19.679  -0.551  29.601  1.00  0.00     0.092 A 
HETATM    6  C5  UNK     1      18.640   1.888  30.342  1.00  0.00     0.205 A 
HETATM    7  C7  UNK     1      20.218  -1.113  31.857  1.00  0.00     0.017 A 
HETATM    8  C8  UNK     1      18.633   1.543  28.912  1.00  0.00     0.324 A 
HETATM    9  C9  UNK     1      20.191  -1.770  29.149  1.00  0.00     0.038 A 
HETATM   10  C10 UNK     1      20.736  -2.339  31.418  1.00  0.00     0.001 A 
HETATM   11  C13 UNK     1      20.722  -2.668  30.066  1.00  0.00     0.003 A 
ENDROOT
BRANCH   3  12
HETATM   12  N1  UNK     1      19.109   1.459  32.678  1.00  0.00    -0.383 N 
HETATM   13  H3  UNK     1      19.967   1.798  33.097  1.00  0.00     0.160 HD
BRANCH  12  14
HETATM   14  C3  UNK     1      17.915   1.517  33.473  1.00  0.00     0.158 C 
BRANCH  14  15
HETATM   15  C6  UNK     1      18.041   0.713  34.736  1.00  0.00    -0.041 A 
HETATM   16  C11 UNK     1      17.871   1.335  35.967  1.00  0.00     0.010 A 
HETATM   17  C14 UNK     1      17.990   0.588  37.139  1.00  0.00     0.024 A 
HETATM   18  C16 UNK     1      18.279  -0.775  37.071  1.00  0.00     0.034 A 
HETATM   19  C15 UNK     1      18.449  -1.391  35.832  1.00  0.00     0.024 A 
HETATM   20 Cl1  UNK     1      18.427  -1.696  38.518  1.00  0.00    -0.084 Cl
HETATM   21  C12 UNK     1      18.330  -0.645  34.660  1.00  0.00     0.010 A 
ENDBRANCH  14  15
ENDBRANCH  12  14
ENDBRANCH   3  12
BRANCH   6  22
HETATM   22  N2  UNK     1      18.090   3.162  30.681  1.00  0.00    -0.107 N 
HETATM   23  O3  UNK     1      16.875   3.205  30.909  1.00  0.00    -0.531 OA
HETATM   24  O4  UNK     1      18.870   4.119  30.718  1.00  0.00    -0.531 OA
ENDBRANCH   6  22
TORSDOF 4
ENDMDL
MODEL 8
REMARK VINA RESULT:      -8.1      2.293      3.840
REMARK  4 active torsions:
REMARK  status: ('A' for Active; 'I' for Inactive)
REMARK    1  A    between atoms: C1_8  and  N1_6 
REMARK    2  A    between atoms: C3_10  and  N1_6 
REMARK    3  A    between atoms: C5_12  and  N2_7 
REMARK    4  A    between atoms: C3_10  and  C6_13 
ROOT
HETATM    1  O1  UNK     1      20.142  -2.201  32.148  1.00  0.00    -0.273 OA
HETATM    2  O2  UNK     1      20.960  -2.711  30.080  1.00  0.00    -0.257 OA
HETATM    3  C1  UNK     1      19.080   0.223  31.047  1.00  0.00     0.081 A 
HETATM    4  C2  UNK     1      18.906  -0.110  32.484  1.00  0.00     0.027 A 
HETATM    5  C4  UNK     1      19.439  -1.305  32.979  1.00  0.00     0.092 A 
HETATM    6  C5  UNK     1      19.763  -0.676  30.319  1.00  0.00     0.205 A 
HETATM    7  C7  UNK     1      18.229   0.707  33.406  1.00  0.00     0.017 A 
HETATM    8  C8  UNK     1      20.343  -1.938  30.804  1.00  0.00     0.324 A 
HETATM    9  C9  UNK     1      19.317  -1.691  34.317  1.00  0.00     0.038 A 
HETATM   10  C10 UNK     1      18.099   0.334  34.750  1.00  0.00     0.001 A 
HETATM   11  C13 UNK     1      18.642  -0.863  35.205  1.00  0.00     0.003 A 
ENDROOT
BRANCH   3  12
HETATM   12  N1  UNK     1      18.540   1.397  30.586  1.00  0.00    -0.383 N 
HETATM   13  H3  UNK     1      17.548   1.557  30.705  1.00  0.00     0.160 HD
BRANCH  12  14
HETATM   14  C3  UNK     1      19.335   2.489  30.100  1.00  0.00     0.158 C 
BRANCH  14  15
HETATM   15  C6  UNK     1      18.897   3.804  30.680  1.00  0.00    -0.041 A 
HETATM   16  C11 UNK     1      18.135   3.823  31.842  1.00  0.00     0.010 A 
HETATM   17  C14 UNK     1      17.727   5.044  32.379  1.00  0.00     0.024 A 
HETATM   18  C16 UNK     1      18.084   6.237  31.750  1.00  0.00     0.034 A 
HETATM   19  C15 UNK     1      18.848   6.209  30.584  1.00  0.00     0.024 A 
HETATM   20 Cl1  UNK     1      17.579   7.743  32.412  1.00  0.00    -0.084 Cl
HETATM   21  C12 UNK     1      19.256   4.988  30.046  1.00  0.00     0.010 A 
ENDBRANCH  14  15
ENDBRANCH  12  14
ENDBRANCH   3  12
BRANCH   6  22
HETATM   22  N2  UNK     1      19.953  -0.391  28.932  1.00  0.00    -0.107 N 
HETATM   23  O3  UNK     1      18.946  -0.400  28.214  1.00  0.00    -0.531 OA
HETATM   24  O4  UNK     1      21.108  -0.159  28.560  1.00  0.00    -0.531 OA
ENDBRANCH   6  22
TORSDOF 4
ENDMDL
MODEL 9
REMARK VINA RESULT:      -8.0     12.971     14.723
REMARK  4 active torsions:
REMARK  status: ('A' for Active; 'I' for Inactive)
REMARK    1  A    between atoms: C1_8  and  N1_6 
REMARK    2  A    between atoms: C3_10  and  N1_6 
REMARK    3  A    between atoms: C5_12  and  N2_7 
REMARK    4  A    between atoms: C3_10  and  C6_13 
ROOT
HETATM    1  O1  UNK     1      30.868  -3.707  38.131  1.00  0.00    -0.273 OA
HETATM    2  O2  UNK     1      29.422  -3.742  39.896  1.00  0.00    -0.257 OA
HETATM    3  C1  UNK     1      29.551  -6.038  37.106  1.00  0.00     0.081 A 
HETATM    4  C2  UNK     1      30.701  -5.427  36.391  1.00  0.00     0.027 A 
HETATM    5  C4  UNK     1      31.313  -4.288  36.927  1.00  0.00     0.092 A 
HETATM    6  C5  UNK     1      29.186  -5.432  38.247  1.00  0.00     0.205 A 
HETATM    7  C7  UNK     1      31.233  -5.921  35.188  1.00  0.00     0.017 A 
HETATM    8  C8  UNK     1      29.807  -4.239  38.844  1.00  0.00     0.324 A 
HETATM    9  C9  UNK     1      32.398  -3.655  36.315  1.00  0.00     0.038 A 
HETATM   10  C10 UNK     1      32.322  -5.297  34.563  1.00  0.00     0.001 A 
HETATM   11  C13 UNK     1      32.903  -4.165  35.125  1.00  0.00     0.003 A 
ENDROOT
BRANCH   3  12
HETATM   12  N1  UNK     1      28.965  -7.149  36.555  1.00  0.00    -0.383 N 
HETATM   13  H3  UNK     1      29.278  -8.064  36.853  1.00  0.00     0.160 HD
BRANCH  12  14
HETATM   14  C3  UNK     1      27.809  -7.087  35.706  1.00  0.00     0.158 C 
BRANCH  14  15
HETATM   15  C6  UNK     1      28.170  -7.225  34.254  1.00  0.00    -0.041 A 
HETATM   16  C11 UNK     1      27.917  -6.175  33.380  1.00  0.00     0.010 A 
HETATM   17  C14 UNK     1      28.250  -6.304  32.032  1.00  0.00     0.024 A 
HETATM   18  C16 UNK     1      28.835  -7.483  31.568  1.00  0.00     0.034 A 
HETATM   19  C15 UNK     1      29.086  -8.531  32.451  1.00  0.00     0.024 A 
HETATM   20 Cl1  UNK     1      29.246  -7.642  29.904  1.00  0.00    -0.084 Cl
HETATM   21  C12 UNK     1      28.752  -8.403  33.800  1.00  0.00     0.010 A 
ENDBRANCH  14  15
ENDBRANCH  12  14
ENDBRANCH   3  12
BRANCH   6  22
HETATM   22  N2  UNK     1      28.084  -5.991  38.965  1.00  0.00    -0.107 N 
HETATM   23  O3  UNK     1      28.316  -6.985  39.663  1.00  0.00    -0.531 OA
HETATM   24  O4  UNK     1      26.988  -5.438  38.830  1.00  0.00    -0.531 OA
ENDBRANCH   6  22
TORSDOF 4
ENDMDL
MODEL 10
REMARK VINA RESULT:      -8.0      1.996      2.898
REMARK  4 active torsions:
REMARK  status: ('A' for Active; 'I' for Inactive)
REMARK    1  A    between atoms: C1_8  and  N1_6 
REMARK    2  A    between atoms: C3_10  and  N1_6 
REMARK    3  A    between atoms: C5_12  and  N2_7 
REMARK    4  A    between atoms: C3_10  and  C6_13 
ROOT
HETATM    1  O1  UNK     1      18.775   0.368  32.467  1.00  0.00    -0.273 OA
HETATM    2  O2  UNK     1      18.756  -0.494  34.580  1.00  0.00    -0.257 OA
HETATM    3  C1  UNK     1      18.352   2.965  33.605  1.00  0.00     0.081 A 
HETATM    4  C2  UNK     1      18.461   2.777  32.135  1.00  0.00     0.027 A 
HETATM    5  C4  UNK     1      18.670   1.491  31.623  1.00  0.00     0.092 A 
HETATM    6  C5  UNK     1      18.459   1.848  34.344  1.00  0.00     0.205 A 
HETATM    7  C7  UNK     1      18.367   3.820  31.198  1.00  0.00     0.017 A 
HETATM    8  C8  UNK     1      18.672   0.482  33.843  1.00  0.00     0.324 A 
HETATM    9  C9  UNK     1      18.784   1.232  30.255  1.00  0.00     0.038 A 
HETATM   10  C10 UNK     1      18.479   3.575  29.823  1.00  0.00     0.001 A 
HETATM   11  C13 UNK     1      18.688   2.283  29.351  1.00  0.00     0.003 A 
ENDROOT
BRANCH   3  12
HETATM   12  N1  UNK     1      18.156   4.236  34.080  1.00  0.00    -0.383 N 
HETATM   13  H3  UNK     1      17.301   4.443  34.582  1.00  0.00     0.160 HD
BRANCH  12  14
HETATM   14  C3  UNK     1      19.174   5.248  34.059  1.00  0.00     0.158 C 
BRANCH  14  15
HETATM   15  C6  UNK     1      18.589   6.632  34.054  1.00  0.00    -0.041 A 
HETATM   16  C11 UNK     1      17.210   6.796  34.013  1.00  0.00     0.010 A 
HETATM   17  C14 UNK     1      16.668   8.081  34.007  1.00  0.00     0.024 A 
HETATM   18  C16 UNK     1      17.510   9.193  34.043  1.00  0.00     0.034 A 
HETATM   19  C15 UNK     1      18.892   9.020  34.084  1.00  0.00     0.024 A 
HETATM   20 Cl1  UNK     1      16.840  10.779  34.035  1.00  0.00    -0.084 Cl
HETATM   21  C12 UNK     1      19.435   7.735  34.090  1.00  0.00     0.010 A 
ENDBRANCH  14  15
ENDBRANCH  12  14
ENDBRANCH   3  12
BRANCH   6  22
HETATM   22  N2  UNK     1      18.358   1.988  35.762  1.00  0.00    -0.107 N 
HETATM   23  O3  UNK     1      19.403   2.229  36.378  1.00  0.00    -0.531 OA
HETATM   24  O4  UNK     1      17.235   1.854  36.261  1.00  0.00    -0.531 OA
ENDBRANCH   6  22
TORSDOF 4
ENDMDL
