MODEL 1
REMARK VINA RESULT:      -8.5      0.000      0.000
REMARK  3 active torsions:
REMARK  status: ('A' for Active; 'I' for Inactive)
REMARK    1  A    between atoms: C6_10  and  O2_2 
REMARK    2  A    between atoms: C13_17  and  O4_4 
REMARK    3  A    between atoms: C3_7  and  C4_8 
ROOT
HETATM    1  O1  UNK     1      19.381  -1.096  33.090  1.00  0.00    -0.309 OA
HETATM    2  O3  UNK     1      18.038   2.527  31.803  1.00  0.00    -0.287 OA
HETATM    3  C1  UNK     1      19.134   0.501  31.277  1.00  0.00     0.081 A 
HETATM    4  C2  UNK     1      19.566  -0.724  31.784  1.00  0.00     0.093 A 
HETATM    5  C3  UNK     1      18.743  -0.211  33.946  1.00  0.00     0.090 A 
HETATM    6  C5  UNK     1      18.447   1.439  32.179  1.00  0.00     0.190 A 
HETATM    7  C6  UNK     1      19.348   0.827  29.937  1.00  0.00     0.085 A 
HETATM    8  C7  UNK     1      18.275   0.991  33.576  1.00  0.00     0.094 A 
HETATM    9  C8  UNK     1      20.219  -1.632  30.949  1.00  0.00     0.038 A 
HETATM   10  C10 UNK     1      20.002  -0.082  29.104  1.00  0.00     0.038 A 
HETATM   11  C12 UNK     1      20.436  -1.308  29.609  1.00  0.00     0.006 A 
ENDROOT
BRANCH   5  12
HETATM   12  C4  UNK     1      18.592  -0.714  35.326  1.00  0.00     0.001 A 
HETATM   13  C11 UNK     1      17.695  -0.098  36.202  1.00  0.00     0.014 A 
HETATM   14  C14 UNK     1      17.550  -0.572  37.505  1.00  0.00     0.004 A 
HETATM   15  C15 UNK     1      18.303  -1.665  37.937  1.00  0.00     0.037 A 
HETATM   16  C13 UNK     1      19.199  -2.283  37.065  1.00  0.00     0.069 A 
HETATM   17  C9  UNK     1      19.342  -1.809  35.761  1.00  0.00     0.051 A 
BRANCH  16  18
HETATM   18  O4  UNK     1      19.932  -3.348  37.487  1.00  0.00    -0.356 OA
HETATM   19  C17 UNK     1      19.912  -4.517  36.667  1.00  0.00     0.210 C 
ENDBRANCH  16  18
ENDBRANCH   5  12
BRANCH   7  20
HETATM   20  O2  UNK     1      18.945   2.010  29.396  1.00  0.00    -0.355 OA
HETATM   21  C16 UNK     1      17.851   1.965  28.482  1.00  0.00     0.210 C 
ENDBRANCH   7  20
TORSDOF 3
ENDMDL
MODEL 2
REMARK VINA RESULT:      -8.3     13.129     18.086
REMARK  3 active torsions:
REMARK  status: ('A' for Active; 'I' for Inactive)
REMARK    1  A    between atoms: C6_10  and  O2_2 
REMARK    2  A    between atoms: C13_17  and  O4_4 
REMARK    3  A    between atoms: C3_7  and  C4_8 
ROOT
HETATM    1  O1  UNK     1      19.221   0.340  15.852  1.00  0.00    -0.309 OA
HETATM    2  O3  UNK     1      18.603  -0.601  19.767  1.00  0.00    -0.287 OA
HETATM    3  C1  UNK     1      19.061   1.072  18.162  1.00  0.00     0.081 A 
HETATM    4  C2  UNK     1      19.261   1.324  16.806  1.00  0.00     0.093 A 
HETATM    5  C3  UNK     1      18.977  -0.964  16.257  1.00  0.00     0.090 A 
HETATM    6  C5  UNK     1      18.792  -0.308  18.595  1.00  0.00     0.190 A 
HETATM    7  C6  UNK     1      19.112   2.114  19.090  1.00  0.00     0.085 A 
HETATM    8  C7  UNK     1      18.762  -1.331  17.530  1.00  0.00     0.094 A 
HETATM    9  C8  UNK     1      19.516   2.625  16.369  1.00  0.00     0.038 A 
HETATM   10  C10 UNK     1      19.368   3.413  18.651  1.00  0.00     0.038 A 
HETATM   11  C12 UNK     1      19.570   3.668  17.294  1.00  0.00     0.006 A 
ENDROOT
BRANCH   5  12
HETATM   12  C4  UNK     1      18.950  -1.941  15.151  1.00  0.00     0.001 A 
HETATM   13  C11 UNK     1      18.870  -3.308  15.425  1.00  0.00     0.014 A 
HETATM   14  C14 UNK     1      18.843  -4.232  14.382  1.00  0.00     0.004 A 
HETATM   15  C15 UNK     1      18.896  -3.791  13.058  1.00  0.00     0.037 A 
HETATM   16  C13 UNK     1      18.975  -2.427  12.781  1.00  0.00     0.069 A 
HETATM   17  C9  UNK     1      19.001  -1.503  13.825  1.00  0.00     0.051 A 
BRANCH  16  18
HETATM   18  O4  UNK     1      19.027  -1.998  11.491  1.00  0.00    -0.356 OA
HETATM   19  C17 UNK     1      19.334  -2.971  10.494  1.00  0.00     0.210 C 
ENDBRANCH  16  18
ENDBRANCH   5  12
BRANCH   7  20
HETATM   20  O2  UNK     1      18.924   1.919  20.425  1.00  0.00    -0.355 OA
HETATM   21  C16 UNK     1      20.062   2.075  21.270  1.00  0.00     0.210 C 
ENDBRANCH   7  20
TORSDOF 3
ENDMDL
MODEL 3
REMARK VINA RESULT:      -8.3     13.060     17.712
REMARK  3 active torsions:
REMARK  status: ('A' for Active; 'I' for Inactive)
REMARK    1  A    between atoms: C6_10  and  O2_2 
REMARK    2  A    between atoms: C13_17  and  O4_4 
REMARK    3  A    between atoms: C3_7  and  C4_8 
ROOT
HETATM    1  O1  UNK     1      19.215   0.298  15.759  1.00  0.00    -0.309 OA
HETATM    2  O3  UNK     1      18.674  -0.699  19.671  1.00  0.00    -0.287 OA
HETATM    3  C1  UNK     1      19.082   1.000  18.080  1.00  0.00     0.081 A 
HETATM    4  C2  UNK     1      19.258   1.271  16.724  1.00  0.00     0.093 A 
HETATM    5  C3  UNK     1      18.996  -1.013  16.151  1.00  0.00     0.090 A 
HETATM    6  C5  UNK     1      18.840  -0.389  18.500  1.00  0.00     0.190 A 
HETATM    7  C6  UNK     1      19.134   2.031  19.020  1.00  0.00     0.085 A 
HETATM    8  C7  UNK     1      18.806  -1.399  17.423  1.00  0.00     0.094 A 
HETATM    9  C8  UNK     1      19.488   2.580  16.299  1.00  0.00     0.038 A 
HETATM   10  C10 UNK     1      19.366   3.339  18.593  1.00  0.00     0.038 A 
HETATM   11  C12 UNK     1      19.542   3.613  17.236  1.00  0.00     0.006 A 
ENDROOT
BRANCH   5  12
HETATM   12  C4  UNK     1      18.964  -1.977  15.033  1.00  0.00     0.001 A 
HETATM   13  C11 UNK     1      19.612  -1.679  13.832  1.00  0.00     0.014 A 
HETATM   14  C14 UNK     1      19.584  -2.589  12.776  1.00  0.00     0.004 A 
HETATM   15  C15 UNK     1      18.908  -3.801  12.918  1.00  0.00     0.037 A 
HETATM   16  C13 UNK     1      18.260  -4.103  14.116  1.00  0.00     0.069 A 
HETATM   17  C9  UNK     1      18.289  -3.192  15.172  1.00  0.00     0.051 A 
BRANCH  16  18
HETATM   18  O4  UNK     1      17.600  -5.284  14.253  1.00  0.00    -0.356 OA
HETATM   19  C17 UNK     1      18.254  -6.312  14.997  1.00  0.00     0.210 C 
ENDBRANCH  16  18
ENDBRANCH   5  12
BRANCH   7  20
HETATM   20  O2  UNK     1      18.970   1.817  20.355  1.00  0.00    -0.355 OA
HETATM   21  C16 UNK     1      20.092   2.076  21.196  1.00  0.00     0.210 C 
ENDBRANCH   7  20
TORSDOF 3
ENDMDL
MODEL 4
REMARK VINA RESULT:      -8.2      1.501      6.814
REMARK  3 active torsions:
REMARK  status: ('A' for Active; 'I' for Inactive)
REMARK    1  A    between atoms: C6_10  and  O2_2 
REMARK    2  A    between atoms: C13_17  and  O4_4 
REMARK    3  A    between atoms: C3_7  and  C4_8 
ROOT
HETATM    1  O1  UNK     1      19.672  -1.620  33.783  1.00  0.00    -0.309 OA
HETATM    2  O3  UNK     1      16.927   0.991  35.281  1.00  0.00    -0.287 OA
HETATM    3  C1  UNK     1      18.403  -0.809  35.689  1.00  0.00     0.081 A 
HETATM    4  C2  UNK     1      19.335  -1.670  35.112  1.00  0.00     0.093 A 
HETATM    5  C3  UNK     1      19.053  -0.675  32.980  1.00  0.00     0.090 A 
HETATM    6  C5  UNK     1      17.751   0.201  34.841  1.00  0.00     0.190 A 
HETATM    7  C6  UNK     1      18.099  -0.905  37.048  1.00  0.00     0.085 A 
HETATM    8  C7  UNK     1      18.146   0.212  33.418  1.00  0.00     0.094 A 
HETATM    9  C8  UNK     1      19.969  -2.636  35.894  1.00  0.00     0.038 A 
HETATM   10  C10 UNK     1      18.733  -1.872  37.827  1.00  0.00     0.038 A 
HETATM   11  C12 UNK     1      19.666  -2.736  37.252  1.00  0.00     0.006 A 
ENDROOT
BRANCH   5  12
HETATM   12  C4  UNK     1      19.493  -0.705  31.570  1.00  0.00     0.001 A 
HETATM   13  C11 UNK     1      20.244  -1.781  31.093  1.00  0.00     0.014 A 
HETATM   14  C14 UNK     1      20.660  -1.811  29.762  1.00  0.00     0.004 A 
HETATM   15  C15 UNK     1      20.324  -0.763  28.904  1.00  0.00     0.037 A 
HETATM   16  C13 UNK     1      19.574   0.313  29.376  1.00  0.00     0.069 A 
HETATM   17  C9  UNK     1      19.158   0.342  30.707  1.00  0.00     0.051 A 
BRANCH  16  18
HETATM   18  O4  UNK     1      19.247   1.334  28.539  1.00  0.00    -0.356 OA
HETATM   19  C17 UNK     1      17.912   1.832  28.611  1.00  0.00     0.210 C 
ENDBRANCH  16  18
ENDBRANCH   5  12
BRANCH   7  20
HETATM   20  O2  UNK     1      17.196  -0.088  37.657  1.00  0.00    -0.355 OA
HETATM   21  C16 UNK     1      17.717   1.003  38.415  1.00  0.00     0.210 C 
ENDBRANCH   7  20
TORSDOF 3
ENDMDL
MODEL 5
REMARK VINA RESULT:      -8.1      2.976      6.590
REMARK  3 active torsions:
REMARK  status: ('A' for Active; 'I' for Inactive)
REMARK    1  A    between atoms: C6_10  and  O2_2 
REMARK    2  A    between atoms: C13_17  and  O4_4 
REMARK    3  A    between atoms: C3_7  and  C4_8 
ROOT
HETATM    1  O1  UNK     1      19.220   2.131  30.381  1.00  0.00    -0.309 OA
HETATM    2  O3  UNK     1      18.611   0.035  33.820  1.00  0.00    -0.287 OA
HETATM    3  C1  UNK     1      19.334   0.017  31.570  1.00  0.00     0.081 A 
HETATM    4  C2  UNK     1      19.519   0.794  30.428  1.00  0.00     0.093 A 
HETATM    5  C3  UNK     1      18.704   2.734  31.518  1.00  0.00     0.090 A 
HETATM    6  C5  UNK     1      18.795   0.655  32.782  1.00  0.00     0.190 A 
HETATM    7  C6  UNK     1      19.657  -1.341  31.562  1.00  0.00     0.085 A 
HETATM    8  C7  UNK     1      18.487   2.095  32.678  1.00  0.00     0.094 A 
HETATM    9  C8  UNK     1      20.030   0.214  29.266  1.00  0.00     0.038 A 
HETATM   10  C10 UNK     1      20.167  -1.919  30.398  1.00  0.00     0.038 A 
HETATM   11  C12 UNK     1      20.353  -1.143  29.253  1.00  0.00     0.006 A 
ENDROOT
BRANCH   5  12
HETATM   12  C4  UNK     1      18.422   4.175  31.359  1.00  0.00     0.001 A 
HETATM   13  C11 UNK     1      18.976   4.883  30.290  1.00  0.00     0.014 A 
HETATM   14  C14 UNK     1      18.711   6.243  30.138  1.00  0.00     0.004 A 
HETATM   15  C15 UNK     1      17.889   6.900  31.055  1.00  0.00     0.037 A 
HETATM   16  C13 UNK     1      17.333   6.196  32.123  1.00  0.00     0.069 A 
HETATM   17  C9  UNK     1      17.599   4.835  32.274  1.00  0.00     0.051 A 
BRANCH  16  18
HETATM   18  O4  UNK     1      16.533   6.837  33.017  1.00  0.00    -0.356 OA
HETATM   19  C17 UNK     1      16.975   6.876  34.373  1.00  0.00     0.210 C 
ENDBRANCH  16  18
ENDBRANCH   5  12
BRANCH   7  20
HETATM   20  O2  UNK     1      19.494  -2.141  32.651  1.00  0.00    -0.355 OA
HETATM   21  C16 UNK     1      20.677  -2.641  33.272  1.00  0.00     0.210 C 
ENDBRANCH   7  20
TORSDOF 3
ENDMDL
MODEL 6
REMARK VINA RESULT:      -8.1      4.283      7.615
REMARK  3 active torsions:
REMARK  status: ('A' for Active; 'I' for Inactive)
REMARK    1  A    between atoms: C6_10  and  O2_2 
REMARK    2  A    between atoms: C13_17  and  O4_4 
REMARK    3  A    between atoms: C3_7  and  C4_8 
ROOT
HETATM    1  O1  UNK     1      18.369   3.861  34.473  1.00  0.00    -0.309 OA
HETATM    2  O3  UNK     1      18.180   1.716  31.015  1.00  0.00    -0.287 OA
HETATM    3  C1  UNK     1      18.336   1.696  33.373  1.00  0.00     0.081 A 
HETATM    4  C2  UNK     1      18.396   2.491  34.516  1.00  0.00     0.093 A 
HETATM    5  C3  UNK     1      18.286   4.482  33.235  1.00  0.00     0.090 A 
HETATM    6  C5  UNK     1      18.239   2.350  32.058  1.00  0.00     0.190 A 
HETATM    7  C6  UNK     1      18.367   0.304  33.477  1.00  0.00     0.085 A 
HETATM    8  C7  UNK     1      18.216   3.827  32.066  1.00  0.00     0.094 A 
HETATM    9  C8  UNK     1      18.487   1.895  35.775  1.00  0.00     0.038 A 
HETATM   10  C10 UNK     1      18.459  -0.289  34.737  1.00  0.00     0.038 A 
HETATM   11  C12 UNK     1      18.519   0.505  35.883  1.00  0.00     0.006 A 
ENDROOT
BRANCH   5  12
HETATM   12  C4  UNK     1      18.259   5.956  33.304  1.00  0.00     0.001 A 
HETATM   13  C11 UNK     1      19.198   6.640  34.080  1.00  0.00     0.014 A 
HETATM   14  C14 UNK     1      19.174   8.032  34.145  1.00  0.00     0.004 A 
HETATM   15  C15 UNK     1      18.209   8.747  33.433  1.00  0.00     0.037 A 
HETATM   16  C13 UNK     1      17.271   8.068  32.656  1.00  0.00     0.069 A 
HETATM   17  C9  UNK     1      17.296   6.675  32.591  1.00  0.00     0.051 A 
BRANCH  16  18
HETATM   18  O4  UNK     1      16.331   8.765  31.962  1.00  0.00    -0.356 OA
HETATM   19  C17 UNK     1      15.236   9.298  32.706  1.00  0.00     0.210 C 
ENDBRANCH  16  18
ENDBRANCH   5  12
BRANCH   7  20
HETATM   20  O2  UNK     1      18.312  -0.515  32.390  1.00  0.00    -0.355 OA
HETATM   21  C16 UNK     1      19.376  -1.451  32.229  1.00  0.00     0.210 C 
ENDBRANCH   7  20
TORSDOF 3
ENDMDL
MODEL 7
REMARK VINA RESULT:      -8.0     14.124     17.769
REMARK  3 active torsions:
REMARK  status: ('A' for Active; 'I' for Inactive)
REMARK    1  A    between atoms: C6_10  and  O2_2 
REMARK    2  A    between atoms: C13_17  and  O4_4 
REMARK    3  A    between atoms: C3_7  and  C4_8 
ROOT
HETATM    1  O1  UNK     1      18.987  -1.042  17.047  1.00  0.00    -0.309 OA
HETATM    2  O3  UNK     1      19.444   2.742  15.611  1.00  0.00    -0.287 OA
HETATM    3  C1  UNK     1      19.169   1.338  17.492  1.00  0.00     0.081 A 
HETATM    4  C2  UNK     1      19.017   0.019  17.914  1.00  0.00     0.093 A 
HETATM    5  C3  UNK     1      19.105  -0.789  15.689  1.00  0.00     0.090 A 
HETATM    6  C5  UNK     1      19.304   1.611  16.052  1.00  0.00     0.190 A 
HETATM    7  C6  UNK     1      19.194   2.380  18.421  1.00  0.00     0.085 A 
HETATM    8  C7  UNK     1      19.263   0.435  15.160  1.00  0.00     0.094 A 
HETATM    9  C8  UNK     1      18.888  -0.267  19.274  1.00  0.00     0.038 A 
HETATM   10  C10 UNK     1      19.063   2.092  19.780  1.00  0.00     0.038 A 
HETATM   11  C12 UNK     1      18.911   0.772  20.206  1.00  0.00     0.006 A 
ENDROOT
BRANCH   5  12
HETATM   12  C4  UNK     1      19.066  -2.001  14.846  1.00  0.00     0.001 A 
HETATM   13  C11 UNK     1      19.802  -2.055  13.660  1.00  0.00     0.014 A 
HETATM   14  C14 UNK     1      19.767  -3.199  12.864  1.00  0.00     0.004 A 
HETATM   15  C15 UNK     1      18.993  -4.294  13.252  1.00  0.00     0.037 A 
HETATM   16  C13 UNK     1      18.257  -4.244  14.435  1.00  0.00     0.069 A 
HETATM   17  C9  UNK     1      18.294  -3.100  15.231  1.00  0.00     0.051 A 
BRANCH  16  18
HETATM   18  O4  UNK     1      17.503  -5.312  14.812  1.00  0.00    -0.356 OA
HETATM   19  C17 UNK     1      18.082  -6.217  15.752  1.00  0.00     0.210 C 
ENDBRANCH  16  18
ENDBRANCH   5  12
BRANCH   7  20
HETATM   20  O2  UNK     1      19.339   3.684  18.057  1.00  0.00    -0.355 OA
HETATM   21  C16 UNK     1      20.543   4.338  18.454  1.00  0.00     0.210 C 
ENDBRANCH   7  20
TORSDOF 3
ENDMDL
MODEL 8
REMARK VINA RESULT:      -7.9     23.941     26.805
REMARK  3 active torsions:
REMARK  status: ('A' for Active; 'I' for Inactive)
REMARK    1  A    between atoms: C6_10  and  O2_2 
REMARK    2  A    between atoms: C13_17  and  O4_4 
REMARK    3  A    between atoms: C3_7  and  C4_8 
ROOT
HETATM    1  O1  UNK     1      11.998   7.807   9.607  1.00  0.00    -0.309 OA
HETATM    2  O3  UNK     1      15.180   5.443   8.673  1.00  0.00    -0.287 OA
HETATM    3  C1  UNK     1      14.313   7.190  10.005  1.00  0.00     0.081 A 
HETATM    4  C2  UNK     1      13.185   7.964  10.275  1.00  0.00     0.093 A 
HETATM    5  C3  UNK     1      11.920   6.842   8.615  1.00  0.00     0.090 A 
HETATM    6  C5  UNK     1      14.232   6.159   8.960  1.00  0.00     0.190 A 
HETATM    7  C6  UNK     1      15.496   7.393  10.718  1.00  0.00     0.085 A 
HETATM    8  C7  UNK     1      12.933   6.032   8.268  1.00  0.00     0.094 A 
HETATM    9  C8  UNK     1      13.235   8.948  11.263  1.00  0.00     0.038 A 
HETATM   10  C10 UNK     1      15.544   8.379  11.705  1.00  0.00     0.038 A 
HETATM   11  C12 UNK     1      14.416   9.154  11.977  1.00  0.00     0.006 A 
ENDROOT
BRANCH   5  12
HETATM   12  C4  UNK     1      10.597   6.754   7.965  1.00  0.00     0.001 A 
HETATM   13  C11 UNK     1      10.497   6.343   6.633  1.00  0.00     0.014 A 
HETATM   14  C14 UNK     1       9.248   6.259   6.018  1.00  0.00     0.004 A 
HETATM   15  C15 UNK     1       8.095   6.586   6.733  1.00  0.00     0.037 A 
HETATM   16  C13 UNK     1       8.192   6.996   8.063  1.00  0.00     0.069 A 
HETATM   17  C9  UNK     1       9.441   7.079   8.678  1.00  0.00     0.051 A 
BRANCH  16  18
HETATM   18  O4  UNK     1       7.068   7.314   8.759  1.00  0.00    -0.356 OA
HETATM   19  C17 UNK     1       7.211   7.528  10.163  1.00  0.00     0.210 C 
ENDBRANCH  16  18
ENDBRANCH   5  12
BRANCH   7  20
HETATM   20  O2  UNK     1      16.624   6.665  10.491  1.00  0.00    -0.355 OA
HETATM   21  C16 UNK     1      17.779   7.377  10.053  1.00  0.00     0.210 C 
ENDBRANCH   7  20
TORSDOF 3
ENDMDL
MODEL 9
REMARK VINA RESULT:      -7.9      1.091      2.017
REMARK  3 active torsions:
REMARK  status: ('A' for Active; 'I' for Inactive)
REMARK    1  A    between atoms: C6_10  and  O2_2 
REMARK    2  A    between atoms: C13_17  and  O4_4 
REMARK    3  A    between atoms: C3_7  and  C4_8 
ROOT
HETATM    1  O1  UNK     1      19.614  -1.415  32.884  1.00  0.00    -0.309 OA
HETATM    2  O3  UNK     1      18.251   2.252  31.752  1.00  0.00    -0.287 OA
HETATM    3  C1  UNK     1      19.293   0.227  31.124  1.00  0.00     0.081 A 
HETATM    4  C2  UNK     1      19.736  -1.014  31.578  1.00  0.00     0.093 A 
HETATM    5  C3  UNK     1      19.030  -0.545  33.791  1.00  0.00     0.090 A 
HETATM    6  C5  UNK     1      18.665   1.151  32.081  1.00  0.00     0.190 A 
HETATM    7  C6  UNK     1      19.444   0.584  29.782  1.00  0.00     0.085 A 
HETATM    8  C7  UNK     1      18.559   0.672  33.475  1.00  0.00     0.094 A 
HETATM    9  C8  UNK     1      20.335  -1.908  30.690  1.00  0.00     0.038 A 
HETATM   10  C10 UNK     1      20.043  -0.312  28.896  1.00  0.00     0.038 A 
HETATM   11  C12 UNK     1      20.487  -1.555  29.349  1.00  0.00     0.006 A 
ENDROOT
BRANCH   5  12
HETATM   12  C4  UNK     1      18.943  -1.079  35.165  1.00  0.00     0.001 A 
HETATM   13  C11 UNK     1      19.441  -2.351  35.455  1.00  0.00     0.014 A 
HETATM   14  C14 UNK     1      19.361  -2.856  36.752  1.00  0.00     0.004 A 
HETATM   15  C15 UNK     1      18.782  -2.090  37.764  1.00  0.00     0.037 A 
HETATM   16  C13 UNK     1      18.285  -0.818  37.479  1.00  0.00     0.069 A 
HETATM   17  C9  UNK     1      18.366  -0.313  36.181  1.00  0.00     0.051 A 
BRANCH  16  18
HETATM   18  O4  UNK     1      17.721  -0.071  38.466  1.00  0.00    -0.356 OA
HETATM   19  C17 UNK     1      17.481   1.307  38.182  1.00  0.00     0.210 C 
ENDBRANCH  16  18
ENDBRANCH   5  12
BRANCH   7  20
HETATM   20  O2  UNK     1      19.028   1.783  29.290  1.00  0.00    -0.355 OA
HETATM   21  C16 UNK     1      17.866   1.778  28.463  1.00  0.00     0.210 C 
ENDBRANCH   7  20
TORSDOF 3
ENDMDL
MODEL 10
REMARK VINA RESULT:      -7.8      1.924      2.471
REMARK  3 active torsions:
REMARK  status: ('A' for Active; 'I' for Inactive)
REMARK    1  A    between atoms: C6_10  and  O2_2 
REMARK    2  A    between atoms: C13_17  and  O4_4 
REMARK    3  A    between atoms: C3_7  and  C4_8 
ROOT
HETATM    1  O1  UNK     1      18.545   0.906  33.149  1.00  0.00    -0.309 OA
HETATM    2  O3  UNK     1      18.116   4.949  33.391  1.00  0.00    -0.287 OA
HETATM    3  C1  UNK     1      18.487   3.058  32.024  1.00  0.00     0.081 A 
HETATM    4  C2  UNK     1      18.623   1.671  32.013  1.00  0.00     0.093 A 
HETATM    5  C3  UNK     1      18.329   1.543  34.361  1.00  0.00     0.090 A 
HETATM    6  C5  UNK     1      18.248   3.737  33.307  1.00  0.00     0.190 A 
HETATM    7  C6  UNK     1      18.574   3.786  30.836  1.00  0.00     0.085 A 
HETATM    8  C7  UNK     1      18.176   2.870  34.500  1.00  0.00     0.094 A 
HETATM    9  C8  UNK     1      18.849   1.002  30.810  1.00  0.00     0.038 A 
HETATM   10  C10 UNK     1      18.801   3.115  29.634  1.00  0.00     0.038 A 
HETATM   11  C12 UNK     1      18.938   1.727  29.621  1.00  0.00     0.006 A 
ENDROOT
BRANCH   5  12
HETATM   12  C4  UNK     1      18.257   0.627  35.517  1.00  0.00     0.001 A 
HETATM   13  C11 UNK     1      17.725   1.070  36.731  1.00  0.00     0.014 A 
HETATM   14  C14 UNK     1      17.656   0.205  37.822  1.00  0.00     0.004 A 
HETATM   15  C15 UNK     1      18.119  -1.106  37.704  1.00  0.00     0.037 A 
HETATM   16  C13 UNK     1      18.650  -1.552  36.494  1.00  0.00     0.069 A 
HETATM   17  C9  UNK     1      18.719  -0.687  35.402  1.00  0.00     0.051 A 
BRANCH  16  18
HETATM   18  O4  UNK     1      19.102  -2.830  36.379  1.00  0.00    -0.356 OA
HETATM   19  C17 UNK     1      20.266  -3.177  37.128  1.00  0.00     0.210 C 
ENDBRANCH  16  18
ENDBRANCH   5  12
BRANCH   7  20
HETATM   20  O2  UNK     1      18.449   5.141  30.795  1.00  0.00    -0.355 OA
HETATM   21  C16 UNK     1      19.433   5.862  30.056  1.00  0.00     0.210 C 
ENDBRANCH   7  20
TORSDOF 3
ENDMDL
