MODEL 1
REMARK VINA RESULT:      -8.7      0.000      0.000
REMARK  4 active torsions:
REMARK  status: ('A' for Active; 'I' for Inactive)
REMARK    1  A    between atoms: C16_20  and  O2_2 
REMARK    2  A    between atoms: C18_22  and  O2_2 
REMARK    3  A    between atoms: C14_18  and  O3_3 
REMARK    4  A    between atoms: C4_8  and  C7_11 
ROOT
HETATM    1  O1  UNK     1      16.945   6.361  32.372  1.00  0.00    -0.308 OA
HETATM    2  O4  UNK     1      19.935   8.498  34.130  1.00  0.00    -0.287 OA
HETATM    3  C1  UNK     1      16.692   7.619  32.860  1.00  0.00     0.096 A 
HETATM    4  C2  UNK     1      17.668   8.404  33.470  1.00  0.00     0.049 A 
HETATM    5  C3  UNK     1      15.391   8.104  32.725  1.00  0.00    -0.027 A 
HETATM    6  C4  UNK     1      18.232   5.856  32.486  1.00  0.00     0.090 A 
HETATM    7  C5  UNK     1      16.052  10.160  33.813  1.00  0.00    -0.060 A 
HETATM    8  C6  UNK     1      17.353   9.677  33.950  1.00  0.00     0.025 A 
HETATM    9  C8  UNK     1      15.072   9.376  33.202  1.00  0.00     0.016 A 
HETATM   10  C9  UNK     1      19.031   7.866  33.602  1.00  0.00     0.187 A 
HETATM   11  C10 UNK     1      19.254   6.511  33.059  1.00  0.00     0.093 A 
HETATM   12  C11 UNK     1      14.325   7.285  32.074  1.00  0.00     0.051 C 
HETATM   13  C15 UNK     1      15.704  11.518  34.322  1.00  0.00     0.048 C 
ENDROOT
BRANCH   6  14
HETATM   14  C7  UNK     1      18.392   4.495  31.936  1.00  0.00     0.001 A 
HETATM   15  C12 UNK     1      18.218   3.380  32.760  1.00  0.00     0.054 A 
HETATM   16  C14 UNK     1      18.369   2.094  32.240  1.00  0.00     0.102 A 
HETATM   17  C16 UNK     1      18.695   1.919  30.896  1.00  0.00     0.102 A 
HETATM   18  C17 UNK     1      18.870   3.030  30.070  1.00  0.00     0.040 A 
HETATM   19  C13 UNK     1      18.719   4.316  30.590  1.00  0.00     0.017 A 
BRANCH  16  20
HETATM   20  O3  UNK     1      18.196   1.017  33.056  1.00  0.00    -0.353 OA
HETATM   21  C20 UNK     1      17.845   1.281  34.413  1.00  0.00     0.210 C 
ENDBRANCH  16  20
BRANCH  17  22
HETATM   22  O2  UNK     1      18.845   0.669  30.376  1.00  0.00    -0.349 OA
BRANCH  22  23
HETATM   23  C18 UNK     1      19.500   0.566  29.113  1.00  0.00     0.171 C 
HETATM   24  C19 UNK     1      20.524  -0.547  29.178  1.00  0.00     0.034 C 
ENDBRANCH  22  23
ENDBRANCH  17  22
ENDBRANCH   6  14
TORSDOF 4
ENDMDL
MODEL 2
REMARK VINA RESULT:      -8.4      7.138     12.779
REMARK  4 active torsions:
REMARK  status: ('A' for Active; 'I' for Inactive)
REMARK    1  A    between atoms: C16_20  and  O2_2 
REMARK    2  A    between atoms: C18_22  and  O2_2 
REMARK    3  A    between atoms: C14_18  and  O3_3 
REMARK    4  A    between atoms: C4_8  and  C7_11 
ROOT
HETATM    1  O1  UNK     1      19.141  -5.198  36.438  1.00  0.00    -0.308 OA
HETATM    2  O4  UNK     1      22.671  -5.629  38.426  1.00  0.00    -0.287 OA
HETATM    3  C1  UNK     1      19.632  -6.453  36.696  1.00  0.00     0.096 A 
HETATM    4  C2  UNK     1      20.830  -6.672  37.372  1.00  0.00     0.049 A 
HETATM    5  C3  UNK     1      18.876  -7.536  36.249  1.00  0.00    -0.027 A 
HETATM    6  C4  UNK     1      19.868  -4.102  36.878  1.00  0.00     0.090 A 
HETATM    7  C5  UNK     1      20.524  -9.054  37.158  1.00  0.00    -0.060 A 
HETATM    8  C6  UNK     1      21.282  -7.973  37.606  1.00  0.00     0.025 A 
HETATM    9  C8  UNK     1      19.323  -8.838  36.481  1.00  0.00     0.016 A 
HETATM   10  C9  UNK     1      21.609  -5.511  37.830  1.00  0.00     0.187 A 
HETATM   11  C10 UNK     1      21.037  -4.182  37.532  1.00  0.00     0.093 A 
HETATM   12  C11 UNK     1      17.587  -7.331  35.522  1.00  0.00     0.051 C 
HETATM   13  C15 UNK     1      20.998 -10.448  37.401  1.00  0.00     0.048 C 
ENDROOT
BRANCH   6  14
HETATM   14  C7  UNK     1      19.253  -2.801  36.542  1.00  0.00     0.001 A 
HETATM   15  C12 UNK     1      19.435  -2.246  35.273  1.00  0.00     0.054 A 
HETATM   16  C14 UNK     1      18.855  -1.018  34.955  1.00  0.00     0.102 A 
HETATM   17  C16 UNK     1      18.091  -0.341  35.906  1.00  0.00     0.102 A 
HETATM   18  C17 UNK     1      17.908  -0.892  37.175  1.00  0.00     0.040 A 
HETATM   19  C13 UNK     1      18.489  -2.120  37.492  1.00  0.00     0.017 A 
BRANCH  16  20
HETATM   20  O3  UNK     1      19.041  -0.490  33.714  1.00  0.00    -0.353 OA
HETATM   21  C20 UNK     1      19.033  -1.399  32.614  1.00  0.00     0.210 C 
ENDBRANCH  16  20
BRANCH  17  22
HETATM   22  O2  UNK     1      17.519   0.859  35.609  1.00  0.00    -0.349 OA
BRANCH  22  23
HETATM   23  C18 UNK     1      17.935   1.985  36.380  1.00  0.00     0.171 C 
HETATM   24  C19 UNK     1      19.350   2.353  35.990  1.00  0.00     0.034 C 
ENDBRANCH  22  23
ENDBRANCH  17  22
ENDBRANCH   6  14
TORSDOF 4
ENDMDL
MODEL 3
REMARK VINA RESULT:      -8.1      1.643      2.973
REMARK  4 active torsions:
REMARK  status: ('A' for Active; 'I' for Inactive)
REMARK    1  A    between atoms: C16_20  and  O2_2 
REMARK    2  A    between atoms: C18_22  and  O2_2 
REMARK    3  A    between atoms: C14_18  and  O3_3 
REMARK    4  A    between atoms: C4_8  and  C7_11 
ROOT
HETATM    1  O1  UNK     1      18.402   8.193  33.043  1.00  0.00    -0.308 OA
HETATM    2  O4  UNK     1      14.554   9.508  32.790  1.00  0.00    -0.287 OA
HETATM    3  C1  UNK     1      18.054   9.401  33.592  1.00  0.00     0.096 A 
HETATM    4  C2  UNK     1      16.758   9.910  33.543  1.00  0.00     0.049 A 
HETATM    5  C3  UNK     1      19.065  10.129  34.219  1.00  0.00    -0.027 A 
HETATM    6  C4  UNK     1      17.415   7.443  32.419  1.00  0.00     0.090 A 
HETATM    7  C5  UNK     1      17.475  11.873  34.746  1.00  0.00    -0.060 A 
HETATM    8  C6  UNK     1      16.462  11.147  34.119  1.00  0.00     0.025 A 
HETATM    9  C8  UNK     1      18.774  11.366  34.796  1.00  0.00     0.016 A 
HETATM   10  C9  UNK     1      15.711   9.122  32.873  1.00  0.00     0.187 A 
HETATM   11  C10 UNK     1      16.134   7.827  32.301  1.00  0.00     0.093 A 
HETATM   12  C11 UNK     1      20.463   9.609  34.287  1.00  0.00     0.051 C 
HETATM   13  C15 UNK     1      17.170  13.197  35.363  1.00  0.00     0.048 C 
ENDROOT
BRANCH   6  14
HETATM   14  C7  UNK     1      17.898   6.165  31.858  1.00  0.00     0.001 A 
HETATM   15  C12 UNK     1      17.593   4.959  32.495  1.00  0.00     0.054 A 
HETATM   16  C14 UNK     1      18.048   3.752  31.965  1.00  0.00     0.102 A 
HETATM   17  C16 UNK     1      18.810   3.747  30.797  1.00  0.00     0.102 A 
HETATM   18  C17 UNK     1      19.116   4.948  30.158  1.00  0.00     0.040 A 
HETATM   19  C13 UNK     1      18.661   6.156  30.689  1.00  0.00     0.017 A 
BRANCH  16  20
HETATM   20  O3  UNK     1      17.742   2.585  32.597  1.00  0.00    -0.353 OA
HETATM   21  C20 UNK     1      18.190   2.440  33.944  1.00  0.00     0.210 C 
ENDBRANCH  16  20
BRANCH  17  22
HETATM   22  O2  UNK     1      19.260   2.574  30.269  1.00  0.00    -0.349 OA
BRANCH  22  23
HETATM   23  C18 UNK     1      18.490   2.001  29.213  1.00  0.00     0.171 C 
HETATM   24  C19 UNK     1      19.103   0.673  28.822  1.00  0.00     0.034 C 
ENDBRANCH  22  23
ENDBRANCH  17  22
ENDBRANCH   6  14
TORSDOF 4
ENDMDL
MODEL 4
REMARK VINA RESULT:      -7.9      7.024     12.528
REMARK  4 active torsions:
REMARK  status: ('A' for Active; 'I' for Inactive)
REMARK    1  A    between atoms: C16_20  and  O2_2 
REMARK    2  A    between atoms: C18_22  and  O2_2 
REMARK    3  A    between atoms: C14_18  and  O3_3 
REMARK    4  A    between atoms: C4_8  and  C7_11 
ROOT
HETATM    1  O1  UNK     1      19.048  -5.060  36.364  1.00  0.00    -0.308 OA
HETATM    2  O4  UNK     1      22.553  -5.376  38.416  1.00  0.00    -0.287 OA
HETATM    3  C1  UNK     1      19.521  -6.297  36.725  1.00  0.00     0.096 A 
HETATM    4  C2  UNK     1      20.710  -6.476  37.429  1.00  0.00     0.049 A 
HETATM    5  C3  UNK     1      18.755  -7.403  36.357  1.00  0.00    -0.027 A 
HETATM    6  C4  UNK     1      19.785  -3.941  36.724  1.00  0.00     0.090 A 
HETATM    7  C5  UNK     1      20.375  -8.864  37.400  1.00  0.00    -0.060 A 
HETATM    8  C6  UNK     1      21.143  -7.760  37.769  1.00  0.00     0.025 A 
HETATM    9  C8  UNK     1      19.183  -8.687  36.695  1.00  0.00     0.016 A 
HETATM   10  C9  UNK     1      21.499  -5.292  37.802  1.00  0.00     0.187 A 
HETATM   11  C10 UNK     1      20.947  -3.984  37.394  1.00  0.00     0.093 A 
HETATM   12  C11 UNK     1      17.476  -7.240  35.603  1.00  0.00     0.051 C 
HETATM   13  C15 UNK     1      20.829 -10.240  37.757  1.00  0.00     0.048 C 
ENDROOT
BRANCH   6  14
HETATM   14  C7  UNK     1      19.190  -2.664  36.281  1.00  0.00     0.001 A 
HETATM   15  C12 UNK     1      18.381  -1.928  37.150  1.00  0.00     0.054 A 
HETATM   16  C14 UNK     1      17.820  -0.721  36.732  1.00  0.00     0.102 A 
HETATM   17  C16 UNK     1      18.066  -0.247  35.443  1.00  0.00     0.102 A 
HETATM   18  C17 UNK     1      18.873  -0.979  34.573  1.00  0.00     0.040 A 
HETATM   19  C13 UNK     1      19.434  -2.186  34.991  1.00  0.00     0.017 A 
BRANCH  16  20
HETATM   20  O3  UNK     1      17.033  -0.015  37.590  1.00  0.00    -0.353 OA
HETATM   21  C20 UNK     1      17.660   1.026  38.337  1.00  0.00     0.210 C 
ENDBRANCH  16  20
BRANCH  17  22
HETATM   22  O2  UNK     1      17.524   0.930  35.023  1.00  0.00    -0.349 OA
BRANCH  22  23
HETATM   23  C18 UNK     1      18.431   1.983  34.702  1.00  0.00     0.171 C 
HETATM   24  C19 UNK     1      18.140   2.475  33.300  1.00  0.00     0.034 C 
ENDBRANCH  22  23
ENDBRANCH  17  22
ENDBRANCH   6  14
TORSDOF 4
ENDMDL
MODEL 5
REMARK VINA RESULT:      -7.8      1.234      2.637
REMARK  4 active torsions:
REMARK  status: ('A' for Active; 'I' for Inactive)
REMARK    1  A    between atoms: C16_20  and  O2_2 
REMARK    2  A    between atoms: C18_22  and  O2_2 
REMARK    3  A    between atoms: C14_18  and  O3_3 
REMARK    4  A    between atoms: C4_8  and  C7_11 
ROOT
HETATM    1  O1  UNK     1      17.052   6.611  33.659  1.00  0.00    -0.308 OA
HETATM    2  O4  UNK     1      20.431   8.820  34.207  1.00  0.00    -0.287 OA
HETATM    3  C1  UNK     1      16.963   7.973  33.802  1.00  0.00     0.096 A 
HETATM    4  C2  UNK     1      18.078   8.788  33.991  1.00  0.00     0.049 A 
HETATM    5  C3  UNK     1      15.688   8.537  33.753  1.00  0.00    -0.027 A 
HETATM    6  C4  UNK     1      18.308   6.024  33.697  1.00  0.00     0.090 A 
HETATM    7  C5  UNK     1      16.652  10.730  34.081  1.00  0.00    -0.060 A 
HETATM    8  C6  UNK     1      17.928  10.169  34.132  1.00  0.00     0.025 A 
HETATM    9  C8  UNK     1      15.533   9.916  33.893  1.00  0.00     0.016 A 
HETATM   10  C9  UNK     1      19.410   8.167  34.041  1.00  0.00     0.187 A 
HETATM   11  C10 UNK     1      19.453   6.699  33.879  1.00  0.00     0.093 A 
HETATM   12  C11 UNK     1      14.476   7.688  33.552  1.00  0.00     0.051 C 
HETATM   13  C15 UNK     1      16.480  12.204  34.232  1.00  0.00     0.048 C 
ENDROOT
BRANCH   6  14
HETATM   14  C7  UNK     1      18.288   4.555  33.540  1.00  0.00     0.001 A 
HETATM   15  C12 UNK     1      18.099   3.987  32.277  1.00  0.00     0.054 A 
HETATM   16  C14 UNK     1      18.081   2.600  32.128  1.00  0.00     0.102 A 
HETATM   17  C16 UNK     1      18.251   1.778  33.242  1.00  0.00     0.102 A 
HETATM   18  C17 UNK     1      18.439   2.341  34.504  1.00  0.00     0.040 A 
HETATM   19  C13 UNK     1      18.457   3.728  34.653  1.00  0.00     0.017 A 
BRANCH  16  20
HETATM   20  O3  UNK     1      17.897   2.062  30.891  1.00  0.00    -0.353 OA
HETATM   21  C20 UNK     1      19.063   1.839  30.100  1.00  0.00     0.210 C 
ENDBRANCH  16  20
BRANCH  17  22
HETATM   22  O2  UNK     1      18.236   0.422  33.110  1.00  0.00    -0.349 OA
BRANCH  22  23
HETATM   23  C18 UNK     1      18.187  -0.346  34.312  1.00  0.00     0.171 C 
HETATM   24  C19 UNK     1      16.764  -0.802  34.549  1.00  0.00     0.034 C 
ENDBRANCH  22  23
ENDBRANCH  17  22
ENDBRANCH   6  14
TORSDOF 4
ENDMDL
MODEL 6
REMARK VINA RESULT:      -7.8      5.884     11.190
REMARK  4 active torsions:
REMARK  status: ('A' for Active; 'I' for Inactive)
REMARK    1  A    between atoms: C16_20  and  O2_2 
REMARK    2  A    between atoms: C18_22  and  O2_2 
REMARK    3  A    between atoms: C14_18  and  O3_3 
REMARK    4  A    between atoms: C4_8  and  C7_11 
ROOT
HETATM    1  O1  UNK     1      20.179  -4.379  34.741  1.00  0.00    -0.308 OA
HETATM    2  O4  UNK     1      20.203  -2.875  38.528  1.00  0.00    -0.287 OA
HETATM    3  C1  UNK     1      20.290  -5.227  35.814  1.00  0.00     0.096 A 
HETATM    4  C2  UNK     1      20.302  -4.781  37.133  1.00  0.00     0.049 A 
HETATM    5  C3  UNK     1      20.393  -6.591  35.538  1.00  0.00    -0.027 A 
HETATM    6  C4  UNK     1      20.067  -3.018  34.985  1.00  0.00     0.090 A 
HETATM    7  C5  UNK     1      20.521  -7.054  37.908  1.00  0.00    -0.060 A 
HETATM    8  C6  UNK     1      20.418  -5.691  38.186  1.00  0.00     0.025 A 
HETATM    9  C8  UNK     1      20.509  -7.504  36.587  1.00  0.00     0.016 A 
HETATM   10  C9  UNK     1      20.195  -3.337  37.395  1.00  0.00     0.187 A 
HETATM   11  C10 UNK     1      20.074  -2.466  36.209  1.00  0.00     0.093 A 
HETATM   12  C11 UNK     1      20.382  -7.098  34.133  1.00  0.00     0.051 C 
HETATM   13  C15 UNK     1      20.647  -8.035  39.025  1.00  0.00     0.048 C 
ENDROOT
BRANCH   6  14
HETATM   14  C7  UNK     1      19.961  -2.196  33.763  1.00  0.00     0.001 A 
HETATM   15  C12 UNK     1      19.181  -1.037  33.762  1.00  0.00     0.054 A 
HETATM   16  C14 UNK     1      19.081  -0.260  32.608  1.00  0.00     0.102 A 
HETATM   17  C16 UNK     1      19.759  -0.640  31.450  1.00  0.00     0.102 A 
HETATM   18  C17 UNK     1      20.539  -1.797  31.447  1.00  0.00     0.040 A 
HETATM   19  C13 UNK     1      20.639  -2.575  32.601  1.00  0.00     0.017 A 
BRANCH  16  20
HETATM   20  O3  UNK     1      18.317   0.868  32.624  1.00  0.00    -0.353 OA
HETATM   21  C20 UNK     1      18.135   1.510  33.884  1.00  0.00     0.210 C 
ENDBRANCH  16  20
BRANCH  17  22
HETATM   22  O2  UNK     1      19.670   0.110  30.317  1.00  0.00    -0.349 OA
BRANCH  22  23
HETATM   23  C18 UNK     1      20.374  -0.363  29.169  1.00  0.00     0.171 C 
HETATM   24  C19 UNK     1      19.377  -0.672  28.072  1.00  0.00     0.034 C 
ENDBRANCH  22  23
ENDBRANCH  17  22
ENDBRANCH   6  14
TORSDOF 4
ENDMDL
MODEL 7
REMARK VINA RESULT:      -7.8      1.691      7.977
REMARK  4 active torsions:
REMARK  status: ('A' for Active; 'I' for Inactive)
REMARK    1  A    between atoms: C16_20  and  O2_2 
REMARK    2  A    between atoms: C18_22  and  O2_2 
REMARK    3  A    between atoms: C14_18  and  O3_3 
REMARK    4  A    between atoms: C4_8  and  C7_11 
ROOT
HETATM    1  O1  UNK     1      17.955   3.535  33.428  1.00  0.00    -0.308 OA
HETATM    2  O4  UNK     1      18.990   2.986  29.526  1.00  0.00    -0.287 OA
HETATM    3  C1  UNK     1      18.310   2.286  32.983  1.00  0.00     0.096 A 
HETATM    4  C2  UNK     1      18.676   2.029  31.664  1.00  0.00     0.049 A 
HETATM    5  C3  UNK     1      18.292   1.250  33.917  1.00  0.00    -0.027 A 
HETATM    6  C4  UNK     1      17.970   4.587  32.524  1.00  0.00     0.090 A 
HETATM    7  C5  UNK     1      19.009  -0.297  32.202  1.00  0.00    -0.060 A 
HETATM    8  C6  UNK     1      19.027   0.737  31.267  1.00  0.00     0.025 A 
HETATM    9  C8  UNK     1      18.643  -0.043  33.525  1.00  0.00     0.016 A 
HETATM   10  C9  UNK     1      18.683   3.140  30.700  1.00  0.00     0.187 A 
HETATM   11  C10 UNK     1      18.297   4.465  31.227  1.00  0.00     0.093 A 
HETATM   12  C11 UNK     1      17.904   1.497  35.338  1.00  0.00     0.051 C 
HETATM   13  C15 UNK     1      19.381  -1.682  31.789  1.00  0.00     0.048 C 
ENDROOT
BRANCH   6  14
HETATM   14  C7  UNK     1      17.565   5.883  33.104  1.00  0.00     0.001 A 
HETATM   15  C12 UNK     1      16.340   6.456  32.756  1.00  0.00     0.054 A 
HETATM   16  C14 UNK     1      15.957   7.680  33.305  1.00  0.00     0.102 A 
HETATM   17  C16 UNK     1      16.799   8.335  34.203  1.00  0.00     0.102 A 
HETATM   18  C17 UNK     1      18.024   7.767  34.553  1.00  0.00     0.040 A 
HETATM   19  C13 UNK     1      18.407   6.543  34.004  1.00  0.00     0.017 A 
BRANCH  16  20
HETATM   20  O3  UNK     1      14.759   8.225  32.956  1.00  0.00    -0.353 OA
HETATM   21  C20 UNK     1      13.797   7.353  32.365  1.00  0.00     0.210 C 
ENDBRANCH  16  20
BRANCH  17  22
HETATM   22  O2  UNK     1      16.437   9.531  34.746  1.00  0.00    -0.349 OA
BRANCH  22  23
HETATM   23  C18 UNK     1      16.996  10.705  34.160  1.00  0.00     0.171 C 
HETATM   24  C19 UNK     1      15.939  11.789  34.124  1.00  0.00     0.034 C 
ENDBRANCH  22  23
ENDBRANCH  17  22
ENDBRANCH   6  14
TORSDOF 4
ENDMDL
MODEL 8
REMARK VINA RESULT:      -7.7      1.640      7.957
REMARK  4 active torsions:
REMARK  status: ('A' for Active; 'I' for Inactive)
REMARK    1  A    between atoms: C16_20  and  O2_2 
REMARK    2  A    between atoms: C18_22  and  O2_2 
REMARK    3  A    between atoms: C14_18  and  O3_3 
REMARK    4  A    between atoms: C4_8  and  C7_11 
ROOT
HETATM    1  O1  UNK     1      17.999   3.446  33.286  1.00  0.00    -0.308 OA
HETATM    2  O4  UNK     1      19.017   2.692  29.413  1.00  0.00    -0.287 OA
HETATM    3  C1  UNK     1      18.331   2.171  32.901  1.00  0.00     0.096 A 
HETATM    4  C2  UNK     1      18.690   1.844  31.595  1.00  0.00     0.049 A 
HETATM    5  C3  UNK     1      18.297   1.181  33.883  1.00  0.00    -0.027 A 
HETATM    6  C4  UNK     1      18.031   4.452  32.332  1.00  0.00     0.090 A 
HETATM    7  C5  UNK     1      18.983  -0.459  32.244  1.00  0.00    -0.060 A 
HETATM    8  C6  UNK     1      19.017   0.528  31.260  1.00  0.00     0.025 A 
HETATM    9  C8  UNK     1      18.624  -0.135  33.553  1.00  0.00     0.016 A 
HETATM   10  C9  UNK     1      18.715   2.908  30.579  1.00  0.00     0.187 A 
HETATM   11  C10 UNK     1      18.353   4.263  31.042  1.00  0.00     0.093 A 
HETATM   12  C11 UNK     1      17.916   1.502  35.291  1.00  0.00     0.051 C 
HETATM   13  C15 UNK     1      19.330  -1.868  31.897  1.00  0.00     0.048 C 
ENDROOT
BRANCH   6  14
HETATM   14  C7  UNK     1      17.651   5.782  32.850  1.00  0.00     0.001 A 
HETATM   15  C12 UNK     1      18.508   6.470  33.713  1.00  0.00     0.054 A 
HETATM   16  C14 UNK     1      18.149   7.727  34.202  1.00  0.00     0.102 A 
HETATM   17  C16 UNK     1      16.932   8.298  33.831  1.00  0.00     0.102 A 
HETATM   18  C17 UNK     1      16.074   7.613  32.970  1.00  0.00     0.040 A 
HETATM   19  C13 UNK     1      16.432   6.357  32.481  1.00  0.00     0.017 A 
BRANCH  16  20
HETATM   20  O3  UNK     1      18.996   8.385  35.041  1.00  0.00    -0.353 OA
HETATM   21  C20 UNK     1      20.152   8.983  34.459  1.00  0.00     0.210 C 
ENDBRANCH  16  20
BRANCH  17  22
HETATM   22  O2  UNK     1      16.570   9.524  34.301  1.00  0.00    -0.349 OA
BRANCH  22  23
HETATM   23  C18 UNK     1      15.291  10.017  33.908  1.00  0.00     0.171 C 
HETATM   24  C19 UNK     1      14.446  10.238  35.145  1.00  0.00     0.034 C 
ENDBRANCH  22  23
ENDBRANCH  17  22
ENDBRANCH   6  14
TORSDOF 4
ENDMDL
MODEL 9
REMARK VINA RESULT:      -7.4     14.287     19.534
REMARK  4 active torsions:
REMARK  status: ('A' for Active; 'I' for Inactive)
REMARK    1  A    between atoms: C16_20  and  O2_2 
REMARK    2  A    between atoms: C18_22  and  O2_2 
REMARK    3  A    between atoms: C14_18  and  O3_3 
REMARK    4  A    between atoms: C4_8  and  C7_11 
ROOT
HETATM    1  O1  UNK     1      19.542  -1.561  14.417  1.00  0.00    -0.308 OA
HETATM    2  O4  UNK     1      17.429  -4.852  15.556  1.00  0.00    -0.287 OA
HETATM    3  C1  UNK     1      19.523  -2.673  13.613  1.00  0.00     0.096 A 
HETATM    4  C2  UNK     1      18.820  -3.830  13.941  1.00  0.00     0.049 A 
HETATM    5  C3  UNK     1      20.249  -2.612  12.424  1.00  0.00    -0.027 A 
HETATM    6  C4  UNK     1      18.823  -1.590  15.602  1.00  0.00     0.090 A 
HETATM    7  C5  UNK     1      19.563  -4.870  11.896  1.00  0.00    -0.060 A 
HETATM    8  C6  UNK     1      18.837  -4.934  13.085  1.00  0.00     0.025 A 
HETATM    9  C8  UNK     1      20.268  -3.711  11.565  1.00  0.00     0.016 A 
HETATM   10  C9  UNK     1      18.065  -3.869  15.203  1.00  0.00     0.187 A 
HETATM   11  C10 UNK     1      18.114  -2.647  16.031  1.00  0.00     0.093 A 
HETATM   12  C11 UNK     1      21.011  -1.384  12.047  1.00  0.00     0.051 C 
HETATM   13  C15 UNK     1      19.589  -6.043  10.975  1.00  0.00     0.048 C 
ENDROOT
BRANCH   6  14
HETATM   14  C7  UNK     1      18.918  -0.346  16.392  1.00  0.00     0.001 A 
HETATM   15  C12 UNK     1      18.660  -0.365  17.765  1.00  0.00     0.054 A 
HETATM   16  C14 UNK     1      18.750   0.810  18.512  1.00  0.00     0.102 A 
HETATM   17  C16 UNK     1      19.098   2.008  17.887  1.00  0.00     0.102 A 
HETATM   18  C17 UNK     1      19.355   2.031  16.517  1.00  0.00     0.040 A 
HETATM   19  C13 UNK     1      19.265   0.856  15.770  1.00  0.00     0.017 A 
BRANCH  16  20
HETATM   20  O3  UNK     1      18.496   0.775  19.849  1.00  0.00    -0.353 OA
HETATM   21  C20 UNK     1      19.549   0.320  20.698  1.00  0.00     0.210 C 
ENDBRANCH  16  20
BRANCH  17  22
HETATM   22  O2  UNK     1      19.189   3.162  18.605  1.00  0.00    -0.349 OA
BRANCH  22  23
HETATM   23  C18 UNK     1      20.491   3.559  19.032  1.00  0.00     0.171 C 
HETATM   24  C19 UNK     1      20.869   4.846  18.330  1.00  0.00     0.034 C 
ENDBRANCH  22  23
ENDBRANCH  17  22
ENDBRANCH   6  14
TORSDOF 4
ENDMDL
MODEL 10
REMARK VINA RESULT:      -7.3      6.674     10.332
REMARK  4 active torsions:
REMARK  status: ('A' for Active; 'I' for Inactive)
REMARK    1  A    between atoms: C16_20  and  O2_2 
REMARK    2  A    between atoms: C18_22  and  O2_2 
REMARK    3  A    between atoms: C14_18  and  O3_3 
REMARK    4  A    between atoms: C4_8  and  C7_11 
ROOT
HETATM    1  O1  UNK     1      19.607  -2.606  35.051  1.00  0.00    -0.308 OA
HETATM    2  O4  UNK     1      17.992  -0.036  37.767  1.00  0.00    -0.287 OA
HETATM    3  C1  UNK     1      19.175  -1.367  34.648  1.00  0.00     0.096 A 
HETATM    4  C2  UNK     1      18.615  -0.440  35.524  1.00  0.00     0.049 A 
HETATM    5  C3  UNK     1      19.315  -1.053  33.296  1.00  0.00    -0.027 A 
HETATM    6  C4  UNK     1      19.488  -2.943  36.391  1.00  0.00     0.090 A 
HETATM    7  C5  UNK     1      18.333   1.118  33.705  1.00  0.00    -0.060 A 
HETATM    8  C6  UNK     1      18.191   0.806  35.058  1.00  0.00     0.025 A 
HETATM    9  C8  UNK     1      18.893   0.191  32.826  1.00  0.00     0.016 A 
HETATM   10  C9  UNK     1      18.477  -0.799  36.944  1.00  0.00     0.187 A 
HETATM   11  C10 UNK     1      18.960  -2.141  37.328  1.00  0.00     0.093 A 
HETATM   12  C11 UNK     1      19.912  -2.028  32.334  1.00  0.00     0.051 C 
HETATM   13  C15 UNK     1      17.881   2.446  33.196  1.00  0.00     0.048 C 
ENDROOT
BRANCH   6  14
HETATM   14  C7  UNK     1      19.977  -4.299  36.714  1.00  0.00     0.001 A 
HETATM   15  C12 UNK     1      19.420  -5.414  36.083  1.00  0.00     0.054 A 
HETATM   16  C14 UNK     1      19.882  -6.695  36.387  1.00  0.00     0.102 A 
HETATM   17  C16 UNK     1      20.901  -6.864  37.324  1.00  0.00     0.102 A 
HETATM   18  C17 UNK     1      21.459  -5.753  37.957  1.00  0.00     0.040 A 
HETATM   19  C13 UNK     1      20.997  -4.472  37.652  1.00  0.00     0.017 A 
BRANCH  16  20
HETATM   20  O3  UNK     1      19.330  -7.772  35.763  1.00  0.00    -0.353 OA
HETATM   21  C20 UNK     1      17.911  -7.778  35.614  1.00  0.00     0.210 C 
ENDBRANCH  16  20
BRANCH  17  22
HETATM   22  O2  UNK     1      21.361  -8.109  37.630  1.00  0.00    -0.349 OA
BRANCH  22  23
HETATM   23  C18 UNK     1      21.334  -8.491  39.005  1.00  0.00     0.171 C 
HETATM   24  C19 UNK     1      20.058  -9.258  39.278  1.00  0.00     0.034 C 
ENDBRANCH  22  23
ENDBRANCH  17  22
ENDBRANCH   6  14
TORSDOF 4
ENDMDL
