MODEL 1
REMARK VINA RESULT:      -9.7      0.000      0.000
REMARK  3 active torsions:
REMARK  status: ('A' for Active; 'I' for Inactive)
REMARK    1  A    between atoms: C1_6  and  N1_5 
REMARK       I    between atoms: C9_14  and  N1_5 
REMARK    2  A    between atoms: C1_6  and  C2_7 
REMARK    3  A    between atoms: C10_15  and  C9_14 
ROOT
HETATM    1  O2  UNK     1      19.401   5.071  29.732  1.00  0.00    -0.267 OA
HETATM    2  N1  UNK     1      18.480   3.100  30.569  1.00  0.00    -0.348 N 
HETATM    3  C9  UNK     1      18.775   4.450  30.589  1.00  0.00     0.258 C 
HETATM    4  H3  UNK     1      17.900   2.706  31.303  1.00  0.00     0.163 HD
ENDROOT
BRANCH   3   5
HETATM    5  C10 UNK     1      18.251   5.131  31.779  1.00  0.00     0.108 A 
HETATM    6  C14 UNK     1      17.855   6.398  31.610  1.00  0.00     0.037 A 
HETATM    7  C13 UNK     1      17.321   7.156  32.732  1.00  0.00     0.001 A 
HETATM    8  C15 UNK     1      17.230   6.541  33.977  1.00  0.00     0.089 A 
HETATM    9  C17 UNK     1      16.897   8.481  32.601  1.00  0.00     0.038 A 
HETATM   10  O1  UNK     1      17.647   5.207  34.148  1.00  0.00    -0.274 OA
HETATM   11  C18 UNK     1      16.729   7.211  35.091  1.00  0.00     0.040 A 
HETATM   12  C16 UNK     1      18.163   4.457  33.095  1.00  0.00     0.304 A 
HETATM   13  O3  UNK     1      18.523   3.296  33.253  1.00  0.00    -0.259 OA
HETATM   14  C20 UNK     1      16.307   8.531  34.952  1.00  0.00     0.026 A 
HETATM   15  C19 UNK     1      16.391   9.166  33.710  1.00  0.00     0.035 A 
HETATM   16 Cl1  UNK     1      15.868  10.797  33.545  1.00  0.00    -0.084 Cl
ENDBRANCH   3   5
BRANCH   2  17
HETATM   17  C1  UNK     1      18.888   2.220  29.497  1.00  0.00     0.114 C 
HETATM   18  C5  UNK     1      17.739   2.040  28.503  1.00  0.00     0.037 C 
BRANCH  17  19
HETATM   19  C2  UNK     1      19.374   0.887  30.035  1.00  0.00    -0.035 A 
HETATM   20  C3  UNK     1      18.963   0.478  31.289  1.00  0.00     0.016 A 
HETATM   21  C4  UNK     1      19.410  -0.747  31.783  1.00  0.00    -0.056 A 
HETATM   22  C11 UNK     1      18.965  -1.189  33.138  1.00  0.00     0.049 C 
HETATM   23  C7  UNK     1      20.261  -1.541  31.014  1.00  0.00    -0.056 A 
HETATM   24  C12 UNK     1      20.753  -2.857  31.520  1.00  0.00     0.049 C 
HETATM   25  C8  UNK     1      20.665  -1.109  29.750  1.00  0.00     0.008 A 
HETATM   26  C6  UNK     1      20.217   0.116  29.256  1.00  0.00     0.010 A 
ENDBRANCH  17  19
ENDBRANCH   2  17
TORSDOF 3
ENDMDL
MODEL 2
REMARK VINA RESULT:      -9.4      3.540      8.286
REMARK  3 active torsions:
REMARK  status: ('A' for Active; 'I' for Inactive)
REMARK    1  A    between atoms: C1_6  and  N1_5 
REMARK       I    between atoms: C9_14  and  N1_5 
REMARK    2  A    between atoms: C1_6  and  C2_7 
REMARK    3  A    between atoms: C10_15  and  C9_14 
ROOT
HETATM    1  O2  UNK     1      18.141   3.110  28.987  1.00  0.00    -0.267 OA
HETATM    2  N1  UNK     1      19.121   4.230  30.781  1.00  0.00    -0.348 N 
HETATM    3  C9  UNK     1      18.669   3.117  30.098  1.00  0.00     0.258 C 
HETATM    4  H3  UNK     1      19.600   4.109  31.668  1.00  0.00     0.163 HD
ENDROOT
BRANCH   3   5
HETATM    5  C10 UNK     1      18.881   1.867  30.838  1.00  0.00     0.108 A 
HETATM    6  C14 UNK     1      19.559   0.908  30.198  1.00  0.00     0.037 A 
HETATM    7  C13 UNK     1      19.819  -0.367  30.850  1.00  0.00     0.001 A 
HETATM    8  C15 UNK     1      19.353  -0.567  32.146  1.00  0.00     0.089 A 
HETATM    9  C17 UNK     1      20.522  -1.397  30.219  1.00  0.00     0.038 A 
HETATM   10  O1  UNK     1      18.641   0.447  32.814  1.00  0.00    -0.274 OA
HETATM   11  C18 UNK     1      19.567  -1.764  32.825  1.00  0.00     0.040 A 
HETATM   12  C16 UNK     1      18.376   1.676  32.217  1.00  0.00     0.304 A 
HETATM   13  O3  UNK     1      17.755   2.554  32.807  1.00  0.00    -0.259 OA
HETATM   14  C20 UNK     1      20.269  -2.786  32.190  1.00  0.00     0.026 A 
HETATM   15  C19 UNK     1      20.746  -2.603  30.889  1.00  0.00     0.035 A 
HETATM   16 Cl1  UNK     1      21.613  -3.869  30.109  1.00  0.00    -0.084 Cl
ENDBRANCH   3   5
BRANCH   2  17
HETATM   17  C1  UNK     1      19.023   5.572  30.253  1.00  0.00     0.114 C 
HETATM   18  C5  UNK     1      20.390   6.032  29.740  1.00  0.00     0.037 C 
BRANCH  17  19
HETATM   19  C2  UNK     1      18.465   6.531  31.288  1.00  0.00    -0.035 A 
HETATM   20  C3  UNK     1      19.191   6.774  32.439  1.00  0.00     0.016 A 
HETATM   21  C4  UNK     1      18.678   7.656  33.390  1.00  0.00    -0.056 A 
HETATM   22  C11 UNK     1      19.462   7.918  34.634  1.00  0.00     0.049 C 
HETATM   23  C7  UNK     1      17.448   8.277  33.173  1.00  0.00    -0.056 A 
HETATM   24  C12 UNK     1      16.877   9.225  34.177  1.00  0.00     0.049 C 
HETATM   25  C8  UNK     1      16.731   8.018  32.005  1.00  0.00     0.008 A 
HETATM   26  C6  UNK     1      17.245   7.137  31.053  1.00  0.00     0.010 A 
ENDBRANCH  17  19
ENDBRANCH   2  17
TORSDOF 3
ENDMDL
MODEL 3
REMARK VINA RESULT:      -9.3      3.161      7.553
REMARK  3 active torsions:
REMARK  status: ('A' for Active; 'I' for Inactive)
REMARK    1  A    between atoms: C1_6  and  N1_5 
REMARK       I    between atoms: C9_14  and  N1_5 
REMARK    2  A    between atoms: C1_6  and  C2_7 
REMARK    3  A    between atoms: C10_15  and  C9_14 
ROOT
HETATM    1  O2  UNK     1      18.280   2.887  29.575  1.00  0.00    -0.267 OA
HETATM    2  N1  UNK     1      18.788   4.266  31.384  1.00  0.00    -0.348 N 
HETATM    3  C9  UNK     1      18.547   3.055  30.764  1.00  0.00     0.258 C 
HETATM    4  H3  UNK     1      19.063   4.279  32.362  1.00  0.00     0.163 HD
ENDROOT
BRANCH   3   5
HETATM    5  C10 UNK     1      18.644   1.914  31.682  1.00  0.00     0.108 A 
HETATM    6  C14 UNK     1      18.190   2.113  32.924  1.00  0.00     0.037 A 
HETATM    7  C13 UNK     1      18.244   1.040  33.906  1.00  0.00     0.001 A 
HETATM    8  C15 UNK     1      18.772  -0.191  33.529  1.00  0.00     0.089 A 
HETATM    9  C17 UNK     1      17.782   1.204  35.215  1.00  0.00     0.038 A 
HETATM   10  O1  UNK     1      19.247  -0.394  32.219  1.00  0.00    -0.274 OA
HETATM   11  C18 UNK     1      18.853  -1.258  34.421  1.00  0.00     0.040 A 
HETATM   12  C16 UNK     1      19.210   0.612  31.259  1.00  0.00     0.304 A 
HETATM   13  O3  UNK     1      19.626   0.426  30.120  1.00  0.00    -0.259 OA
HETATM   14  C20 UNK     1      18.390  -1.087  35.723  1.00  0.00     0.026 A 
HETATM   15  C19 UNK     1      17.856   0.141  36.120  1.00  0.00     0.035 A 
HETATM   16 Cl1  UNK     1      17.285   0.347  37.731  1.00  0.00    -0.084 Cl
ENDBRANCH   3   5
BRANCH   2  17
HETATM   17  C1  UNK     1      18.752   5.531  30.685  1.00  0.00     0.114 C 
HETATM   18  C5  UNK     1      20.122   5.827  30.070  1.00  0.00     0.037 C 
BRANCH  17  19
HETATM   19  C2  UNK     1      18.297   6.653  31.600  1.00  0.00    -0.035 A 
HETATM   20  C3  UNK     1      19.117   7.043  32.642  1.00  0.00     0.016 A 
HETATM   21  C4  UNK     1      18.699   8.075  33.483  1.00  0.00    -0.056 A 
HETATM   22  C11 UNK     1      19.584   8.496  34.609  1.00  0.00     0.049 C 
HETATM   23  C7  UNK     1      17.468   8.695  33.267  1.00  0.00    -0.056 A 
HETATM   24  C12 UNK     1      16.999   9.802  34.153  1.00  0.00     0.049 C 
HETATM   25  C8  UNK     1      16.656   8.285  32.209  1.00  0.00     0.008 A 
HETATM   26  C6  UNK     1      17.075   7.255  31.368  1.00  0.00     0.010 A 
ENDBRANCH  17  19
ENDBRANCH   2  17
TORSDOF 3
ENDMDL
MODEL 4
REMARK VINA RESULT:      -9.1      5.558      8.815
REMARK  3 active torsions:
REMARK  status: ('A' for Active; 'I' for Inactive)
REMARK    1  A    between atoms: C1_6  and  N1_5 
REMARK       I    between atoms: C9_14  and  N1_5 
REMARK    2  A    between atoms: C1_6  and  C2_7 
REMARK    3  A    between atoms: C10_15  and  C9_14 
ROOT
HETATM    1  O2  UNK     1      19.094  -1.240  35.516  1.00  0.00    -0.267 OA
HETATM    2  N1  UNK     1      19.787  -3.424  35.086  1.00  0.00    -0.348 N 
HETATM    3  C9  UNK     1      19.512  -2.111  34.754  1.00  0.00     0.258 C 
HETATM    4  H3  UNK     1      20.190  -4.040  34.386  1.00  0.00     0.163 HD
ENDROOT
BRANCH   3   5
HETATM    5  C10 UNK     1      19.775  -1.811  33.341  1.00  0.00     0.108 A 
HETATM    6  C14 UNK     1      19.159  -0.734  32.840  1.00  0.00     0.037 A 
HETATM    7  C13 UNK     1      19.357  -0.357  31.448  1.00  0.00     0.001 A 
HETATM    8  C15 UNK     1      20.196  -1.132  30.654  1.00  0.00     0.089 A 
HETATM    9  C17 UNK     1      18.734   0.759  30.883  1.00  0.00     0.038 A 
HETATM   10  O1  UNK     1      20.842  -2.264  31.188  1.00  0.00    -0.274 OA
HETATM   11  C18 UNK     1      20.428  -0.826  29.314  1.00  0.00     0.040 A 
HETATM   12  C16 UNK     1      20.672  -2.651  32.514  1.00  0.00     0.304 A 
HETATM   13  O3  UNK     1      21.239  -3.637  32.971  1.00  0.00    -0.259 OA
HETATM   14  C20 UNK     1      19.803   0.288  28.758  1.00  0.00     0.026 A 
HETATM   15  C19 UNK     1      18.958   1.079  29.540  1.00  0.00     0.035 A 
HETATM   16 Cl1  UNK     1      18.189   2.454  28.848  1.00  0.00    -0.084 Cl
ENDBRANCH   3   5
BRANCH   2  17
HETATM   17  C1  UNK     1      19.609  -3.954  36.419  1.00  0.00     0.114 C 
HETATM   18  C5  UNK     1      20.559  -3.251  37.391  1.00  0.00     0.037 C 
BRANCH  17  19
HETATM   19  C2  UNK     1      19.800  -5.459  36.442  1.00  0.00    -0.035 A 
HETATM   20  C3  UNK     1      19.806  -6.116  37.657  1.00  0.00     0.016 A 
HETATM   21  C4  UNK     1      19.981  -7.500  37.678  1.00  0.00    -0.056 A 
HETATM   22  C11 UNK     1      19.988  -8.211  38.992  1.00  0.00     0.049 C 
HETATM   23  C7  UNK     1      20.150  -8.200  36.484  1.00  0.00    -0.056 A 
HETATM   24  C12 UNK     1      20.339  -9.681  36.480  1.00  0.00     0.049 C 
HETATM   25  C8  UNK     1      20.141  -7.517  35.268  1.00  0.00     0.008 A 
HETATM   26  C6  UNK     1      19.964  -6.133  35.246  1.00  0.00     0.010 A 
ENDBRANCH  17  19
ENDBRANCH   2  17
TORSDOF 3
ENDMDL
MODEL 5
REMARK VINA RESULT:      -9.0      3.522      8.068
REMARK  3 active torsions:
REMARK  status: ('A' for Active; 'I' for Inactive)
REMARK    1  A    between atoms: C1_6  and  N1_5 
REMARK       I    between atoms: C9_14  and  N1_5 
REMARK    2  A    between atoms: C1_6  and  C2_7 
REMARK    3  A    between atoms: C10_15  and  C9_14 
ROOT
HETATM    1  O2  UNK     1      17.052   2.825  30.954  1.00  0.00    -0.267 OA
HETATM    2  N1  UNK     1      19.173   3.693  30.533  1.00  0.00    -0.348 N 
HETATM    3  C9  UNK     1      18.265   2.688  30.803  1.00  0.00     0.258 C 
HETATM    4  H3  UNK     1      20.146   3.453  30.365  1.00  0.00     0.163 HD
ENDROOT
BRANCH   3   5
HETATM    5  C10 UNK     1      18.890   1.363  30.899  1.00  0.00     0.108 A 
HETATM    6  C14 UNK     1      18.897   0.798  32.111  1.00  0.00     0.037 A 
HETATM    7  C13 UNK     1      19.494  -0.515  32.306  1.00  0.00     0.001 A 
HETATM    8  C15 UNK     1      20.054  -1.168  31.212  1.00  0.00     0.089 A 
HETATM    9  C17 UNK     1      19.525  -1.142  33.554  1.00  0.00     0.038 A 
HETATM   10  O1  UNK     1      20.042  -0.568  29.938  1.00  0.00    -0.274 OA
HETATM   11  C18 UNK     1      20.642  -2.426  31.331  1.00  0.00     0.040 A 
HETATM   12  C16 UNK     1      19.479   0.686  29.721  1.00  0.00     0.304 A 
HETATM   13  O3  UNK     1      19.473   1.201  28.608  1.00  0.00    -0.259 OA
HETATM   14  C20 UNK     1      20.667  -3.045  32.578  1.00  0.00     0.026 A 
HETATM   15  C19 UNK     1      20.111  -2.405  33.688  1.00  0.00     0.035 A 
HETATM   16 Cl1  UNK     1      20.145  -3.174  35.227  1.00  0.00    -0.084 Cl
ENDBRANCH   3   5
BRANCH   2  17
HETATM   17  C1  UNK     1      18.794   5.081  30.391  1.00  0.00     0.114 C 
HETATM   18  C5  UNK     1      19.655   5.750  29.317  1.00  0.00     0.037 C 
BRANCH  17  19
HETATM   19  C2  UNK     1      18.886   5.815  31.716  1.00  0.00    -0.035 A 
HETATM   20  C3  UNK     1      17.729   6.055  32.432  1.00  0.00     0.016 A 
HETATM   21  C4  UNK     1      17.814   6.730  33.650  1.00  0.00    -0.056 A 
HETATM   22  C11 UNK     1      16.564   6.991  34.424  1.00  0.00     0.049 C 
HETATM   23  C7  UNK     1      19.055   7.152  34.128  1.00  0.00    -0.056 A 
HETATM   24  C12 UNK     1      19.171   7.876  35.429  1.00  0.00     0.049 C 
HETATM   25  C8  UNK     1      20.210   6.899  33.389  1.00  0.00     0.008 A 
HETATM   26  C6  UNK     1      20.125   6.224  32.172  1.00  0.00     0.010 A 
ENDBRANCH  17  19
ENDBRANCH   2  17
TORSDOF 3
ENDMDL
MODEL 6
REMARK VINA RESULT:      -8.8     22.884     24.556
REMARK  3 active torsions:
REMARK  status: ('A' for Active; 'I' for Inactive)
REMARK    1  A    between atoms: C1_6  and  N1_5 
REMARK       I    between atoms: C9_14  and  N1_5 
REMARK    2  A    between atoms: C1_6  and  C2_7 
REMARK    3  A    between atoms: C10_15  and  C9_14 
ROOT
HETATM    1  O2  UNK     1       7.147   7.126   8.682  1.00  0.00    -0.267 OA
HETATM    2  N1  UNK     1       8.981   5.692   8.567  1.00  0.00    -0.348 N 
HETATM    3  C9  UNK     1       7.722   6.082   8.983  1.00  0.00     0.258 C 
HETATM    4  H3  UNK     1       9.331   4.776   8.829  1.00  0.00     0.163 HD
ENDROOT
BRANCH   3   5
HETATM    5  C10 UNK     1       7.081   5.096   9.863  1.00  0.00     0.108 A 
HETATM    6  C14 UNK     1       6.784   5.511  11.099  1.00  0.00     0.037 A 
HETATM    7  C13 UNK     1       6.147   4.606  12.044  1.00  0.00     0.001 A 
HETATM    8  C15 UNK     1       5.853   3.308  11.638  1.00  0.00     0.089 A 
HETATM    9  C17 UNK     1       5.819   4.996  13.345  1.00  0.00     0.038 A 
HETATM   10  O1  UNK     1       6.168   2.878  10.335  1.00  0.00    -0.274 OA
HETATM   11  C18 UNK     1       5.245   2.392  12.494  1.00  0.00     0.040 A 
HETATM   12  C16 UNK     1       6.778   3.720   9.410  1.00  0.00     0.304 A 
HETATM   13  O3  UNK     1       7.048   3.336   8.277  1.00  0.00    -0.259 OA
HETATM   14  C20 UNK     1       4.921   2.789  13.789  1.00  0.00     0.026 A 
HETATM   15  C19 UNK     1       5.207   4.088  14.214  1.00  0.00     0.035 A 
HETATM   16 Cl1  UNK     1       4.804   4.573  15.816  1.00  0.00    -0.084 Cl
ENDBRANCH   3   5
BRANCH   2  17
HETATM   17  C1  UNK     1       9.806   6.496   7.693  1.00  0.00     0.114 C 
HETATM   18  C5  UNK     1       9.544   6.118   6.234  1.00  0.00     0.037 C 
BRANCH  17  19
HETATM   19  C2  UNK     1      11.275   6.364   8.048  1.00  0.00    -0.035 A 
HETATM   20  C3  UNK     1      12.040   7.507   8.179  1.00  0.00     0.016 A 
HETATM   21  C4  UNK     1      13.391   7.384   8.505  1.00  0.00    -0.056 A 
HETATM   22  C11 UNK     1      14.218   8.620   8.647  1.00  0.00     0.049 C 
HETATM   23  C7  UNK     1      13.951   6.121   8.693  1.00  0.00    -0.056 A 
HETATM   24  C12 UNK     1      15.395   5.964   9.043  1.00  0.00     0.049 C 
HETATM   25  C8  UNK     1      13.161   4.980   8.555  1.00  0.00     0.008 A 
HETATM   26  C6  UNK     1      11.810   5.102   8.230  1.00  0.00     0.010 A 
ENDBRANCH  17  19
ENDBRANCH   2  17
TORSDOF 3
ENDMDL
MODEL 7
REMARK VINA RESULT:      -8.7      7.676     12.206
REMARK  3 active torsions:
REMARK  status: ('A' for Active; 'I' for Inactive)
REMARK    1  A    between atoms: C1_6  and  N1_5 
REMARK       I    between atoms: C9_14  and  N1_5 
REMARK    2  A    between atoms: C1_6  and  C2_7 
REMARK    3  A    between atoms: C10_15  and  C9_14 
ROOT
HETATM    1  O2  UNK     1      20.313  -3.662  37.571  1.00  0.00    -0.267 OA
HETATM    2  N1  UNK     1      19.723  -3.736  35.317  1.00  0.00    -0.348 N 
HETATM    3  C9  UNK     1      19.975  -4.279  36.562  1.00  0.00     0.258 C 
HETATM    4  H3  UNK     1      19.387  -4.338  34.571  1.00  0.00     0.163 HD
ENDROOT
BRANCH   3   5
HETATM    5  C10 UNK     1      19.794  -5.736  36.598  1.00  0.00     0.108 A 
HETATM    6  C14 UNK     1      20.899  -6.474  36.445  1.00  0.00     0.037 A 
HETATM    7  C13 UNK     1      20.821  -7.927  36.466  1.00  0.00     0.001 A 
HETATM    8  C15 UNK     1      19.581  -8.531  36.648  1.00  0.00     0.089 A 
HETATM    9  C17 UNK     1      21.949  -8.736  36.309  1.00  0.00     0.038 A 
HETATM   10  O1  UNK     1      18.421  -7.748  36.810  1.00  0.00    -0.274 OA
HETATM   11  C18 UNK     1      19.437  -9.917  36.677  1.00  0.00     0.040 A 
HETATM   12  C16 UNK     1      18.464  -6.358  36.793  1.00  0.00     0.304 A 
HETATM   13  O3  UNK     1      17.449  -5.684  36.935  1.00  0.00    -0.259 OA
HETATM   14  C20 UNK     1      20.566 -10.716  36.521  1.00  0.00     0.026 A 
HETATM   15  C19 UNK     1      21.820 -10.128  36.337  1.00  0.00     0.035 A 
HETATM   16 Cl1  UNK     1      23.213 -11.122  36.145  1.00  0.00    -0.084 Cl
ENDBRANCH   3   5
BRANCH   2  17
HETATM   17  C1  UNK     1      19.832  -2.322  35.037  1.00  0.00     0.114 C 
HETATM   18  C5  UNK     1      18.618  -1.583  35.603  1.00  0.00     0.037 C 
BRANCH  17  19
HETATM   19  C2  UNK     1      19.997  -2.067  33.550  1.00  0.00    -0.035 A 
HETATM   20  C3  UNK     1      19.439  -0.930  32.999  1.00  0.00     0.016 A 
HETATM   21  C4  UNK     1      19.591  -0.695  31.632  1.00  0.00    -0.056 A 
HETATM   22  C11 UNK     1      18.987   0.533  31.035  1.00  0.00     0.049 C 
HETATM   23  C7  UNK     1      20.297  -1.603  30.843  1.00  0.00    -0.056 A 
HETATM   24  C12 UNK     1      20.473  -1.374  29.377  1.00  0.00     0.049 C 
HETATM   25  C8  UNK     1      20.852  -2.745  31.420  1.00  0.00     0.008 A 
HETATM   26  C6  UNK     1      20.701  -2.979  32.787  1.00  0.00     0.010 A 
ENDBRANCH  17  19
ENDBRANCH   2  17
TORSDOF 3
ENDMDL
MODEL 8
REMARK VINA RESULT:      -8.7     23.123     24.992
REMARK  3 active torsions:
REMARK  status: ('A' for Active; 'I' for Inactive)
REMARK    1  A    between atoms: C1_6  and  N1_5 
REMARK       I    between atoms: C9_14  and  N1_5 
REMARK    2  A    between atoms: C1_6  and  C2_7 
REMARK    3  A    between atoms: C10_15  and  C9_14 
ROOT
HETATM    1  O2  UNK     1      13.779   9.153  10.383  1.00  0.00    -0.267 OA
HETATM    2  N1  UNK     1      14.837   7.441   9.207  1.00  0.00    -0.348 N 
HETATM    3  C9  UNK     1      14.677   8.740   9.650  1.00  0.00     0.258 C 
HETATM    4  H3  UNK     1      15.654   7.200   8.655  1.00  0.00     0.163 HD
ENDROOT
BRANCH   3   5
HETATM    5  C10 UNK     1      15.722   9.645   9.156  1.00  0.00     0.108 A 
HETATM    6  C14 UNK     1      15.303  10.720   8.481  1.00  0.00     0.037 A 
HETATM    7  C13 UNK     1      16.265  11.676   7.951  1.00  0.00     0.001 A 
HETATM    8  C15 UNK     1      17.622  11.451   8.162  1.00  0.00     0.089 A 
HETATM    9  C17 UNK     1      15.872  12.812   7.239  1.00  0.00     0.038 A 
HETATM   10  O1  UNK     1      18.056  10.317   8.876  1.00  0.00    -0.274 OA
HETATM   11  C18 UNK     1      18.593  12.326   7.681  1.00  0.00     0.040 A 
HETATM   12  C16 UNK     1      17.161   9.386   9.393  1.00  0.00     0.304 A 
HETATM   13  O3  UNK     1      17.548   8.401  10.013  1.00  0.00    -0.259 OA
HETATM   14  C20 UNK     1      18.194  13.456   6.973  1.00  0.00     0.026 A 
HETATM   15  C19 UNK     1      16.836  13.699   6.751  1.00  0.00     0.035 A 
HETATM   16 Cl1  UNK     1      16.348  15.098   5.875  1.00  0.00    -0.084 Cl
ENDBRANCH   3   5
BRANCH   2  17
HETATM   17  C1  UNK     1      13.933   6.370   9.564  1.00  0.00     0.114 C 
HETATM   18  C5  UNK     1      14.690   5.040   9.604  1.00  0.00     0.037 C 
BRANCH  17  19
HETATM   19  C2  UNK     1      12.750   6.309   8.615  1.00  0.00    -0.035 A 
HETATM   20  C3  UNK     1      11.488   6.083   9.129  1.00  0.00     0.016 A 
HETATM   21  C4  UNK     1      10.401   6.028   8.257  1.00  0.00    -0.056 A 
HETATM   22  C11 UNK     1       9.036   5.783   8.813  1.00  0.00     0.049 C 
HETATM   23  C7  UNK     1      10.597   6.198   6.886  1.00  0.00    -0.056 A 
HETATM   24  C12 UNK     1       9.449   6.144   5.932  1.00  0.00     0.049 C 
HETATM   25  C8  UNK     1      11.880   6.425   6.388  1.00  0.00     0.008 A 
HETATM   26  C6  UNK     1      12.967   6.482   7.260  1.00  0.00     0.010 A 
ENDBRANCH  17  19
ENDBRANCH   2  17
TORSDOF 3
ENDMDL
MODEL 9
REMARK VINA RESULT:      -8.7     15.489     18.360
REMARK  3 active torsions:
REMARK  status: ('A' for Active; 'I' for Inactive)
REMARK    1  A    between atoms: C1_6  and  N1_5 
REMARK       I    between atoms: C9_14  and  N1_5 
REMARK    2  A    between atoms: C1_6  and  C2_7 
REMARK    3  A    between atoms: C10_15  and  C9_14 
ROOT
HETATM    1  O2  UNK     1      17.606  -3.389  15.586  1.00  0.00    -0.267 OA
HETATM    2  N1  UNK     1      19.853  -3.401  14.965  1.00  0.00    -0.348 N 
HETATM    3  C9  UNK     1      18.693  -2.830  15.454  1.00  0.00     0.258 C 
HETATM    4  H3  UNK     1      20.711  -2.859  14.961  1.00  0.00     0.163 HD
ENDROOT
BRANCH   3   5
HETATM    5  C10 UNK     1      18.866  -1.421  15.832  1.00  0.00     0.108 A 
HETATM    6  C14 UNK     1      18.788  -1.144  17.138  1.00  0.00     0.037 A 
HETATM    7  C13 UNK     1      18.946   0.223  17.609  1.00  0.00     0.001 A 
HETATM    8  C15 UNK     1      19.180   1.232  16.679  1.00  0.00     0.089 A 
HETATM    9  C17 UNK     1      18.872   0.558  18.964  1.00  0.00     0.038 A 
HETATM   10  O1  UNK     1      19.261   0.934  15.306  1.00  0.00    -0.274 OA
HETATM   11  C18 UNK     1      19.339   2.562  17.065  1.00  0.00     0.040 A 
HETATM   12  C16 UNK     1      19.114  -0.364  14.825  1.00  0.00     0.304 A 
HETATM   13  O3  UNK     1      19.187  -0.614  13.627  1.00  0.00    -0.259 OA
HETATM   14  C20 UNK     1      19.264   2.887  18.416  1.00  0.00     0.026 A 
HETATM   15  C19 UNK     1      19.031   1.888  19.365  1.00  0.00     0.035 A 
HETATM   16 Cl1  UNK     1      18.940   2.296  21.034  1.00  0.00    -0.084 Cl
ENDBRANCH   3   5
BRANCH   2  17
HETATM   17  C1  UNK     1      19.930  -4.778  14.532  1.00  0.00     0.114 C 
HETATM   18  C5  UNK     1      20.980  -5.527  15.356  1.00  0.00     0.037 C 
BRANCH  17  19
HETATM   19  C2  UNK     1      20.218  -4.872  13.045  1.00  0.00    -0.035 A 
HETATM   20  C3  UNK     1      20.276  -3.711  12.298  1.00  0.00     0.016 A 
HETATM   21  C4  UNK     1      20.541  -3.797  10.931  1.00  0.00    -0.056 A 
HETATM   22  C11 UNK     1      20.603  -2.542  10.124  1.00  0.00     0.049 C 
HETATM   23  C7  UNK     1      20.742  -5.042  10.337  1.00  0.00    -0.056 A 
HETATM   24  C12 UNK     1      21.028  -5.161   8.876  1.00  0.00     0.049 C 
HETATM   25  C8  UNK     1      20.680  -6.202  11.110  1.00  0.00     0.008 A 
HETATM   26  C6  UNK     1      20.416  -6.116  12.477  1.00  0.00     0.010 A 
ENDBRANCH  17  19
ENDBRANCH   2  17
TORSDOF 3
ENDMDL
MODEL 10
REMARK VINA RESULT:      -8.6      8.145     12.613
REMARK  3 active torsions:
REMARK  status: ('A' for Active; 'I' for Inactive)
REMARK    1  A    between atoms: C1_6  and  N1_5 
REMARK       I    between atoms: C9_14  and  N1_5 
REMARK    2  A    between atoms: C1_6  and  C2_7 
REMARK    3  A    between atoms: C10_15  and  C9_14 
ROOT
HETATM    1  O2  UNK     1      20.939  -4.133  38.010  1.00  0.00    -0.267 OA
HETATM    2  N1  UNK     1      19.434  -3.843  36.253  1.00  0.00    -0.348 N 
HETATM    3  C9  UNK     1      20.216  -4.581  37.122  1.00  0.00     0.258 C 
HETATM    4  H3  UNK     1      18.826  -4.326  35.599  1.00  0.00     0.163 HD
ENDROOT
BRANCH   3   5
HETATM    5  C10 UNK     1      20.110  -6.028  36.897  1.00  0.00     0.108 A 
HETATM    6  C14 UNK     1      19.906  -6.783  37.981  1.00  0.00     0.037 A 
HETATM    7  C13 UNK     1      19.788  -8.229  37.859  1.00  0.00     0.001 A 
HETATM    8  C15 UNK     1      19.889  -8.807  36.597  1.00  0.00     0.089 A 
HETATM    9  C17 UNK     1      19.575  -9.056  38.964  1.00  0.00     0.038 A 
HETATM   10  O1  UNK     1      20.103  -8.006  35.458  1.00  0.00    -0.274 OA
HETATM   11  C18 UNK     1      19.786 -10.184  36.411  1.00  0.00     0.040 A 
HETATM   12  C16 UNK     1      20.221  -6.622  35.544  1.00  0.00     0.304 A 
HETATM   13  O3  UNK     1      20.407  -5.933  34.547  1.00  0.00    -0.259 OA
HETATM   14  C20 UNK     1      19.574 -11.001  37.518  1.00  0.00     0.026 A 
HETATM   15  C19 UNK     1      19.469 -10.439  38.793  1.00  0.00     0.035 A 
HETATM   16 Cl1  UNK     1      19.206 -11.454  40.158  1.00  0.00    -0.084 Cl
ENDBRANCH   3   5
BRANCH   2  17
HETATM   17  C1  UNK     1      19.371  -2.399  36.284  1.00  0.00     0.114 C 
HETATM   18  C5  UNK     1      18.165  -1.947  37.109  1.00  0.00     0.037 C 
BRANCH  17  19
HETATM   19  C2  UNK     1      19.336  -1.821  34.881  1.00  0.00    -0.035 A 
HETATM   20  C3  UNK     1      20.071  -2.432  33.884  1.00  0.00     0.016 A 
HETATM   21  C4  UNK     1      20.038  -1.900  32.595  1.00  0.00    -0.056 A 
HETATM   22  C11 UNK     1      20.832  -2.561  31.517  1.00  0.00     0.049 C 
HETATM   23  C7  UNK     1      19.271  -0.766  32.328  1.00  0.00    -0.056 A 
HETATM   24  C12 UNK     1      19.220  -0.177  30.956  1.00  0.00     0.049 C 
HETATM   25  C8  UNK     1      18.537  -0.164  33.350  1.00  0.00     0.008 A 
HETATM   26  C6  UNK     1      18.569  -0.696  34.638  1.00  0.00     0.010 A 
ENDBRANCH  17  19
ENDBRANCH   2  17
TORSDOF 3
ENDMDL
