MODEL 1
REMARK VINA RESULT:      -9.2      0.000      0.000
REMARK  2 active torsions:
REMARK  status: ('A' for Active; 'I' for Inactive)
REMARK    1  A    between atoms: C1_7  and  C8_14 
REMARK    2  A    between atoms: C6_12  and  C9_15 
ROOT
HETATM    1  O1  UNK     1      34.249  -6.335  35.895  1.00  0.00    -0.293 OA
HETATM    2  N1  UNK     1      31.205  -8.466  32.825  1.00  0.00    -0.357 N 
HETATM    3  N2  UNK     1      30.685  -5.804  34.120  1.00  0.00    -0.375 N 
HETATM    4  C1  UNK     1      34.926  -8.302  32.961  1.00  0.00     0.033 C 
HETATM    5  C2  UNK     1      33.560  -8.977  32.808  1.00  0.00     0.067 C 
HETATM    6  C3  UNK     1      32.641  -7.272  34.397  1.00  0.00     0.037 C 
HETATM    7  C4  UNK     1      32.422  -8.159  33.402  1.00  0.00     0.022 C 
HETATM    8  C5  UNK     1      35.154  -7.965  34.427  1.00  0.00     0.093 C 
HETATM    9  C6  UNK     1      31.560  -6.466  35.074  1.00  0.00     0.160 C 
HETATM   10  C7  UNK     1      34.031  -7.109  34.963  1.00  0.00     0.160 C 
HETATM   11  C10 UNK     1      30.010  -7.726  32.719  1.00  0.00     0.059 A 
HETATM   12  C11 UNK     1      29.799  -6.450  33.271  1.00  0.00     0.055 A 
HETATM   13  C16 UNK     1      28.978  -8.306  31.945  1.00  0.00     0.032 A 
HETATM   14  C17 UNK     1      28.585  -5.786  32.987  1.00  0.00     0.031 A 
HETATM   15  C21 UNK     1      27.781  -7.640  31.693  1.00  0.00     0.002 A 
HETATM   16  C22 UNK     1      27.587  -6.370  32.209  1.00  0.00     0.002 A 
HETATM   17  H7  UNK     1      31.205  -9.329  32.289  1.00  0.00     0.166 HD
HETATM   18  H8  UNK     1      30.496  -4.823  34.302  1.00  0.00     0.160 HD
ENDROOT
BRANCH   9  19
HETATM   19  C9  UNK     1      30.765  -7.265  36.064  1.00  0.00     0.042 A 
HETATM   20  C14 UNK     1      29.820  -6.549  36.957  1.00  0.00     0.195 A 
HETATM   21  O3  UNK     1      29.670  -5.336  36.909  1.00  0.00    -0.287 OA
HETATM   22  C18 UNK     1      29.064  -7.383  37.912  1.00  0.00     0.048 A 
HETATM   23  C23 UNK     1      29.274  -8.762  37.922  1.00  0.00     0.089 A 
HETATM   24  C25 UNK     1      28.150  -6.803  38.795  1.00  0.00     0.018 A 
HETATM   25  O2  UNK     1      30.159  -9.383  37.077  1.00  0.00    -0.321 OA
HETATM   26  C26 UNK     1      28.571  -9.569  38.817  1.00  0.00     0.038 A 
HETATM   27  C15 UNK     1      30.855  -8.595  36.195  1.00  0.00     0.156 A 
HETATM   28  C28 UNK     1      27.657  -8.992  39.699  1.00  0.00     0.003 A 
HETATM   29  C27 UNK     1      27.448  -7.613  39.688  1.00  0.00     0.001 A 
ENDBRANCH   9  19
BRANCH   4  30
HETATM   30  C8  UNK     1      36.048  -9.144  32.383  1.00  0.00    -0.032 A 
HETATM   31  C12 UNK     1      36.218  -9.293  31.006  1.00  0.00     0.040 A 
HETATM   32 Cl1  UNK     1      35.156  -8.525  29.883  1.00  0.00    -0.084 Cl
HETATM   33  C19 UNK     1      37.263 -10.074  30.513  1.00  0.00     0.024 A 
HETATM   34  C24 UNK     1      38.139 -10.706  31.396  1.00  0.00     0.002 A 
HETATM   35  C20 UNK     1      37.969 -10.557  32.773  1.00  0.00     0.001 A 
HETATM   36  C13 UNK     1      36.924  -9.776  33.266  1.00  0.00     0.009 A 
ENDBRANCH   4  30
TORSDOF 2
ENDMDL
MODEL 2
REMARK VINA RESULT:      -9.0      3.539      4.346
REMARK  2 active torsions:
REMARK  status: ('A' for Active; 'I' for Inactive)
REMARK    1  A    between atoms: C1_7  and  C8_14 
REMARK    2  A    between atoms: C6_12  and  C9_15 
ROOT
HETATM    1  O1  UNK     1      33.728  -9.916  34.028  1.00  0.00    -0.293 OA
HETATM    2  N1  UNK     1      29.315  -9.636  32.109  1.00  0.00    -0.357 N 
HETATM    3  N2  UNK     1      31.284  -7.365  32.115  1.00  0.00    -0.375 N 
HETATM    4  C1  UNK     1      31.821 -12.392  32.247  1.00  0.00     0.033 C 
HETATM    5  C2  UNK     1      30.434 -11.754  32.368  1.00  0.00     0.067 C 
HETATM    6  C3  UNK     1      31.570  -9.626  33.044  1.00  0.00     0.037 C 
HETATM    7  C4  UNK     1      30.485 -10.241  32.524  1.00  0.00     0.022 C 
HETATM    8  C5  UNK     1      32.675 -11.956  33.428  1.00  0.00     0.093 C 
HETATM    9  C6  UNK     1      31.675  -8.140  33.281  1.00  0.00     0.160 C 
HETATM   10  C7  UNK     1      32.744 -10.450  33.516  1.00  0.00     0.160 C 
HETATM   11  C10 UNK     1      29.050  -8.324  31.667  1.00  0.00     0.059 A 
HETATM   12  C11 UNK     1      29.996  -7.285  31.608  1.00  0.00     0.055 A 
HETATM   13  C16 UNK     1      27.740  -8.072  31.195  1.00  0.00     0.032 A 
HETATM   14  C17 UNK     1      29.607  -6.052  31.038  1.00  0.00     0.031 A 
HETATM   15  C21 UNK     1      27.375  -6.843  30.653  1.00  0.00     0.002 A 
HETATM   16  C22 UNK     1      28.315  -5.831  30.564  1.00  0.00     0.002 A 
HETATM   17  H7  UNK     1      28.533 -10.275  31.998  1.00  0.00     0.166 HD
HETATM   18  H8  UNK     1      31.916  -6.615  31.852  1.00  0.00     0.160 HD
ENDROOT
BRANCH   9  19
HETATM   19  C9  UNK     1      30.929  -7.687  34.501  1.00  0.00     0.042 A 
HETATM   20  C14 UNK     1      31.207  -6.332  35.040  1.00  0.00     0.195 A 
HETATM   21  O3  UNK     1      32.022  -5.579  34.522  1.00  0.00    -0.287 OA
HETATM   22  C18 UNK     1      30.446  -5.936  36.240  1.00  0.00     0.048 A 
HETATM   23  C23 UNK     1      29.530  -6.834  36.788  1.00  0.00     0.089 A 
HETATM   24  C25 UNK     1      30.637  -4.681  36.823  1.00  0.00     0.018 A 
HETATM   25  O2  UNK     1      29.303  -8.078  36.257  1.00  0.00    -0.321 OA
HETATM   26  C26 UNK     1      28.799  -6.481  37.923  1.00  0.00     0.038 A 
HETATM   27  C15 UNK     1      30.018  -8.433  35.140  1.00  0.00     0.156 A 
HETATM   28  C28 UNK     1      28.988  -5.228  38.506  1.00  0.00     0.003 A 
HETATM   29  C27 UNK     1      29.905  -4.330  37.958  1.00  0.00     0.001 A 
ENDBRANCH   9  19
BRANCH   4  30
HETATM   30  C8  UNK     1      31.748 -13.901  32.114  1.00  0.00    -0.032 A 
HETATM   31  C12 UNK     1      32.378 -14.577  31.070  1.00  0.00     0.040 A 
HETATM   32 Cl1  UNK     1      33.279 -13.727  29.866  1.00  0.00    -0.084 Cl
HETATM   33  C19 UNK     1      32.290 -15.966  30.983  1.00  0.00     0.024 A 
HETATM   34  C24 UNK     1      31.571 -16.680  31.941  1.00  0.00     0.002 A 
HETATM   35  C20 UNK     1      30.940 -16.005  32.986  1.00  0.00     0.001 A 
HETATM   36  C13 UNK     1      31.029 -14.616  33.073  1.00  0.00     0.009 A 
ENDBRANCH   4  30
TORSDOF 2
ENDMDL
MODEL 3
REMARK VINA RESULT:      -8.9     21.611     25.287
REMARK  2 active torsions:
REMARK  status: ('A' for Active; 'I' for Inactive)
REMARK    1  A    between atoms: C1_7  and  C8_14 
REMARK    2  A    between atoms: C6_12  and  C9_15 
ROOT
HETATM    1  O1  UNK     1      20.127  -1.394  12.250  1.00  0.00    -0.293 OA
HETATM    2  N1  UNK     1      18.466  -5.847  13.059  1.00  0.00    -0.357 N 
HETATM    3  N2  UNK     1      17.958  -3.514  14.884  1.00  0.00    -0.375 N 
HETATM    4  C1  UNK     1      18.922  -3.868   9.933  1.00  0.00     0.033 C 
HETATM    5  C2  UNK     1      19.017  -5.103  10.834  1.00  0.00     0.067 C 
HETATM    6  C3  UNK     1      19.244  -3.549  12.786  1.00  0.00     0.037 C 
HETATM    7  C4  UNK     1      18.907  -4.769  12.315  1.00  0.00     0.022 C 
HETATM    8  C5  UNK     1      19.955  -2.844  10.379  1.00  0.00     0.093 C 
HETATM    9  C6  UNK     1      19.214  -3.160  14.244  1.00  0.00     0.160 C 
HETATM   10  C7  UNK     1      19.777  -2.502  11.839  1.00  0.00     0.160 C 
HETATM   11  C10 UNK     1      17.822  -5.915  14.310  1.00  0.00     0.059 A 
HETATM   12  C11 UNK     1      17.527  -4.810  15.127  1.00  0.00     0.055 A 
HETATM   13  C16 UNK     1      17.396  -7.198  14.730  1.00  0.00     0.032 A 
HETATM   14  C17 UNK     1      16.777  -5.024  16.306  1.00  0.00     0.031 A 
HETATM   15  C21 UNK     1      16.674  -7.388  15.905  1.00  0.00     0.002 A 
HETATM   16  C22 UNK     1      16.354  -6.295  16.692  1.00  0.00     0.002 A 
HETATM   17  H7  UNK     1      18.517  -6.737  12.571  1.00  0.00     0.166 HD
HETATM   18  H8  UNK     1      17.531  -2.787  15.449  1.00  0.00     0.160 HD
ENDROOT
BRANCH   9  19
HETATM   19  C9  UNK     1      20.381  -3.697  15.018  1.00  0.00     0.042 A 
HETATM   20  C14 UNK     1      20.759  -3.027  16.287  1.00  0.00     0.195 A 
HETATM   21  O3  UNK     1      20.150  -2.056  16.718  1.00  0.00    -0.287 OA
HETATM   22  C18 UNK     1      21.914  -3.595  17.009  1.00  0.00     0.048 A 
HETATM   23  C23 UNK     1      22.570  -4.703  16.472  1.00  0.00     0.089 A 
HETATM   24  C25 UNK     1      22.347  -3.035  18.213  1.00  0.00     0.018 A 
HETATM   25  O2  UNK     1      22.187  -5.293  15.294  1.00  0.00    -0.321 OA
HETATM   26  C26 UNK     1      23.664  -5.256  17.137  1.00  0.00     0.038 A 
HETATM   27  C15 UNK     1      21.110  -4.753  14.634  1.00  0.00     0.156 A 
HETATM   28  C28 UNK     1      24.098  -4.699  18.340  1.00  0.00     0.003 A 
HETATM   29  C27 UNK     1      23.441  -3.591  18.876  1.00  0.00     0.001 A 
ENDBRANCH   9  19
BRANCH   4  30
HETATM   30  C8  UNK     1      19.057  -4.220   8.464  1.00  0.00    -0.032 A 
HETATM   31  C12 UNK     1      18.006  -4.791   7.746  1.00  0.00     0.040 A 
HETATM   32 Cl1  UNK     1      16.488  -5.130   8.497  1.00  0.00    -0.084 Cl
HETATM   33  C19 UNK     1      18.167  -5.099   6.396  1.00  0.00     0.024 A 
HETATM   34  C24 UNK     1      19.381  -4.835   5.761  1.00  0.00     0.002 A 
HETATM   35  C20 UNK     1      20.434  -4.264   6.478  1.00  0.00     0.001 A 
HETATM   36  C13 UNK     1      20.271  -3.956   7.828  1.00  0.00     0.009 A 
ENDBRANCH   4  30
TORSDOF 2
ENDMDL
MODEL 4
REMARK VINA RESULT:      -8.8     21.389     25.121
REMARK  2 active torsions:
REMARK  status: ('A' for Active; 'I' for Inactive)
REMARK    1  A    between atoms: C1_7  and  C8_14 
REMARK    2  A    between atoms: C6_12  and  C9_15 
ROOT
HETATM    1  O1  UNK     1      20.098  -3.646  11.238  1.00  0.00    -0.293 OA
HETATM    2  N1  UNK     1      17.853  -6.856  14.047  1.00  0.00    -0.357 N 
HETATM    3  N2  UNK     1      17.904  -3.902  14.593  1.00  0.00    -0.375 N 
HETATM    4  C1  UNK     1      18.292  -6.629  10.353  1.00  0.00     0.033 C 
HETATM    5  C2  UNK     1      18.284  -7.316  11.721  1.00  0.00     0.067 C 
HETATM    6  C3  UNK     1      18.948  -5.120  12.727  1.00  0.00     0.037 C 
HETATM    7  C4  UNK     1      18.378  -6.335  12.881  1.00  0.00     0.022 C 
HETATM    8  C5  UNK     1      19.513  -5.726  10.255  1.00  0.00     0.093 C 
HETATM    9  C6  UNK     1      19.128  -4.116  13.839  1.00  0.00     0.160 C 
HETATM   10  C7  UNK     1      19.540  -4.733  11.393  1.00  0.00     0.160 C 
HETATM   11  C10 UNK     1      17.336  -6.230  15.199  1.00  0.00     0.059 A 
HETATM   12  C11 UNK     1      17.302  -4.842  15.416  1.00  0.00     0.055 A 
HETATM   13  C16 UNK     1      16.759  -7.080  16.172  1.00  0.00     0.032 A 
HETATM   14  C17 UNK     1      16.651  -4.357  16.573  1.00  0.00     0.031 A 
HETATM   15  C21 UNK     1      16.139  -6.581  17.314  1.00  0.00     0.002 A 
HETATM   16  C22 UNK     1      16.076  -5.211  17.512  1.00  0.00     0.002 A 
HETATM   17  H7  UNK     1      17.714  -7.863  14.026  1.00  0.00     0.166 HD
HETATM   18  H8  UNK     1      17.655  -2.932  14.764  1.00  0.00     0.160 HD
ENDROOT
BRANCH   9  19
HETATM   19  C9  UNK     1      20.269  -4.451  14.753  1.00  0.00     0.042 A 
HETATM   20  C14 UNK     1      20.645  -3.474  15.806  1.00  0.00     0.195 A 
HETATM   21  O3  UNK     1      20.054  -2.412  15.950  1.00  0.00    -0.287 OA
HETATM   22  C18 UNK     1      21.774  -3.853  16.677  1.00  0.00     0.048 A 
HETATM   23  C23 UNK     1      22.409  -5.077  16.469  1.00  0.00     0.089 A 
HETATM   24  C25 UNK     1      22.203  -3.001  17.698  1.00  0.00     0.018 A 
HETATM   25  O2  UNK     1      22.029  -5.952  15.482  1.00  0.00    -0.321 OA
HETATM   26  C26 UNK     1      23.479  -5.456  17.281  1.00  0.00     0.038 A 
HETATM   27  C15 UNK     1      20.977  -5.585  14.680  1.00  0.00     0.156 A 
HETATM   28  C28 UNK     1      23.909  -4.607  18.301  1.00  0.00     0.003 A 
HETATM   29  C27 UNK     1      23.272  -3.383  18.508  1.00  0.00     0.001 A 
ENDBRANCH   9  19
BRANCH   4  30
HETATM   30  C8  UNK     1      18.221  -7.625   9.211  1.00  0.00    -0.032 A 
HETATM   31  C12 UNK     1      17.002  -8.104   8.731  1.00  0.00     0.040 A 
HETATM   32 Cl1  UNK     1      15.503  -7.586   9.415  1.00  0.00    -0.084 Cl
HETATM   33  C19 UNK     1      16.977  -9.018   7.678  1.00  0.00     0.024 A 
HETATM   34  C24 UNK     1      18.171  -9.454   7.105  1.00  0.00     0.002 A 
HETATM   35  C20 UNK     1      19.391  -8.976   7.585  1.00  0.00     0.001 A 
HETATM   36  C13 UNK     1      19.415  -8.061   8.637  1.00  0.00     0.009 A 
ENDBRANCH   4  30
TORSDOF 2
ENDMDL
MODEL 5
REMARK VINA RESULT:      -8.8     33.284     35.497
REMARK  2 active torsions:
REMARK  status: ('A' for Active; 'I' for Inactive)
REMARK    1  A    between atoms: C1_7  and  C8_14 
REMARK    2  A    between atoms: C6_12  and  C9_15 
ROOT
HETATM    1  O1  UNK     1      17.592   8.027  10.326  1.00  0.00    -0.293 OA
HETATM    2  N1  UNK     1      15.863  11.849   7.952  1.00  0.00    -0.357 N 
HETATM    3  N2  UNK     1      18.746  11.004   7.889  1.00  0.00    -0.375 N 
HETATM    4  C1  UNK     1      14.433   8.482   8.667  1.00  0.00     0.033 C 
HETATM    5  C2  UNK     1      14.433  10.010   8.571  1.00  0.00     0.067 C 
HETATM    6  C3  UNK     1      16.881   9.952   9.102  1.00  0.00     0.037 C 
HETATM    7  C4  UNK     1      15.834  10.605   8.552  1.00  0.00     0.022 C 
HETATM    8  C5  UNK     1      15.263   8.056   9.869  1.00  0.00     0.093 C 
HETATM    9  C6  UNK     1      18.285  10.499   9.172  1.00  0.00     0.160 C 
HETATM   10  C7  UNK     1      16.660   8.623   9.784  1.00  0.00     0.160 C 
HETATM   11  C10 UNK     1      16.909  12.562   7.334  1.00  0.00     0.059 A 
HETATM   12  C11 UNK     1      18.243  12.127   7.249  1.00  0.00     0.055 A 
HETATM   13  C16 UNK     1      16.555  13.780   6.706  1.00  0.00     0.032 A 
HETATM   14  C17 UNK     1      19.158  12.901   6.500  1.00  0.00     0.031 A 
HETATM   15  C21 UNK     1      17.478  14.536   5.988  1.00  0.00     0.002 A 
HETATM   16  C22 UNK     1      18.784  14.090   5.876  1.00  0.00     0.002 A 
HETATM   17  H7  UNK     1      14.948  12.277   7.840  1.00  0.00     0.166 HD
HETATM   18  H8  UNK     1      19.673  10.704   7.604  1.00  0.00     0.160 HD
ENDROOT
BRANCH   9  19
HETATM   19  C9  UNK     1      18.461  11.529  10.248  1.00  0.00     0.042 A 
HETATM   20  C14 UNK     1      19.833  12.003  10.558  1.00  0.00     0.195 A 
HETATM   21  O3  UNK     1      20.818  11.582   9.966  1.00  0.00    -0.287 OA
HETATM   22  C18 UNK     1      19.949  13.017  11.625  1.00  0.00     0.048 A 
HETATM   23  C23 UNK     1      18.793  13.462  12.265  1.00  0.00     0.089 A 
HETATM   24  C25 UNK     1      21.198  13.526  11.990  1.00  0.00     0.018 A 
HETATM   25  O2  UNK     1      17.542  12.996  11.947  1.00  0.00    -0.321 OA
HETATM   26  C26 UNK     1      18.880  14.419  13.277  1.00  0.00     0.038 A 
HETATM   27  C15 UNK     1      17.450  12.053  10.952  1.00  0.00     0.156 A 
HETATM   28  C28 UNK     1      20.125  14.930  13.643  1.00  0.00     0.003 A 
HETATM   29  C27 UNK     1      21.281  14.483  13.001  1.00  0.00     0.001 A 
ENDBRANCH   9  19
BRANCH   4  30
HETATM   30  C8  UNK     1      13.028   7.911   8.707  1.00  0.00    -0.032 A 
HETATM   31  C12 UNK     1      12.774   6.567   8.432  1.00  0.00     0.040 A 
HETATM   32 Cl1  UNK     1      14.051   5.478   8.029  1.00  0.00    -0.084 Cl
HETATM   33  C19 UNK     1      11.468   6.079   8.481  1.00  0.00     0.024 A 
HETATM   34  C24 UNK     1      10.416   6.935   8.804  1.00  0.00     0.002 A 
HETATM   35  C20 UNK     1      10.669   8.280   9.079  1.00  0.00     0.001 A 
HETATM   36  C13 UNK     1      11.974   8.767   9.031  1.00  0.00     0.009 A 
ENDBRANCH   4  30
TORSDOF 2
ENDMDL
MODEL 6
REMARK VINA RESULT:      -8.7     31.588     34.260
REMARK  2 active torsions:
REMARK  status: ('A' for Active; 'I' for Inactive)
REMARK    1  A    between atoms: C1_7  and  C8_14 
REMARK    2  A    between atoms: C6_12  and  C9_15 
ROOT
HETATM    1  O1  UNK     1      19.518  12.922  13.125  1.00  0.00    -0.293 OA
HETATM    2  N1  UNK     1      20.309  12.761   8.373  1.00  0.00    -0.357 N 
HETATM    3  N2  UNK     1      17.925  14.092   9.628  1.00  0.00    -0.375 N 
HETATM    4  C1  UNK     1      22.603  13.128  11.287  1.00  0.00     0.033 C 
HETATM    5  C2  UNK     1      22.120  12.560   9.949  1.00  0.00     0.067 C 
HETATM    6  C3  UNK     1      19.773  12.915  10.749  1.00  0.00     0.037 C 
HETATM    7  C4  UNK     1      20.631  12.771   9.716  1.00  0.00     0.022 C 
HETATM    8  C5  UNK     1      21.751  12.554  12.409  1.00  0.00     0.093 C 
HETATM    9  C6  UNK     1      18.280  13.072  10.601  1.00  0.00     0.160 C 
HETATM   10  C7  UNK     1      20.286  12.830  12.166  1.00  0.00     0.160 C 
HETATM   11  C10 UNK     1      19.220  13.316   7.671  1.00  0.00     0.059 A 
HETATM   12  C11 UNK     1      18.142  13.998   8.261  1.00  0.00     0.055 A 
HETATM   13  C16 UNK     1      19.266  13.219   6.260  1.00  0.00     0.032 A 
HETATM   14  C17 UNK     1      17.179  14.596   7.417  1.00  0.00     0.031 A 
HETATM   15  C21 UNK     1      18.296  13.800   5.448  1.00  0.00     0.002 A 
HETATM   16  C22 UNK     1      17.252  14.501   6.029  1.00  0.00     0.002 A 
HETATM   17  H7  UNK     1      21.037  12.383   7.773  1.00  0.00     0.166 HD
HETATM   18  H8  UNK     1      17.216  14.757   9.924  1.00  0.00     0.160 HD
ENDROOT
BRANCH   9  19
HETATM   19  C9  UNK     1      17.581  11.779  10.301  1.00  0.00     0.042 A 
HETATM   20  C14 UNK     1      16.097  11.768  10.262  1.00  0.00     0.195 A 
HETATM   21  O3  UNK     1      15.432  12.775  10.464  1.00  0.00    -0.287 OA
HETATM   22  C18 UNK     1      15.461  10.470   9.963  1.00  0.00     0.048 A 
HETATM   23  C23 UNK     1      16.268   9.355   9.739  1.00  0.00     0.089 A 
HETATM   24  C25 UNK     1      14.070  10.356   9.903  1.00  0.00     0.018 A 
HETATM   25  O2  UNK     1      17.638   9.410   9.785  1.00  0.00    -0.321 OA
HETATM   26  C26 UNK     1      15.687   8.118   9.455  1.00  0.00     0.038 A 
HETATM   27  C15 UNK     1      18.216  10.624  10.064  1.00  0.00     0.156 A 
HETATM   28  C28 UNK     1      14.299   8.002   9.394  1.00  0.00     0.003 A 
HETATM   29  C27 UNK     1      13.492   9.119   9.618  1.00  0.00     0.001 A 
ENDBRANCH   9  19
BRANCH   4  30
HETATM   30  C8  UNK     1      24.084  12.888  11.510  1.00  0.00    -0.032 A 
HETATM   31  C12 UNK     1      24.786  13.528  12.531  1.00  0.00     0.040 A 
HETATM   32 Cl1  UNK     1      24.002  14.634  13.600  1.00  0.00    -0.084 Cl
HETATM   33  C19 UNK     1      26.147  13.280  12.705  1.00  0.00     0.024 A 
HETATM   34  C24 UNK     1      26.808  12.391  11.857  1.00  0.00     0.002 A 
HETATM   35  C20 UNK     1      26.107  11.750  10.835  1.00  0.00     0.001 A 
HETATM   36  C13 UNK     1      24.746  11.998  10.662  1.00  0.00     0.009 A 
ENDBRANCH   4  30
TORSDOF 2
ENDMDL
MODEL 7
REMARK VINA RESULT:      -8.6      4.702      8.738
REMARK  2 active torsions:
REMARK  status: ('A' for Active; 'I' for Inactive)
REMARK    1  A    between atoms: C1_7  and  C8_14 
REMARK    2  A    between atoms: C6_12  and  C9_15 
ROOT
HETATM    1  O1  UNK     1      33.286  -8.895  28.198  1.00  0.00    -0.293 OA
HETATM    2  N1  UNK     1      33.240  -8.106  32.953  1.00  0.00    -0.357 N 
HETATM    3  N2  UNK     1      35.663  -7.723  31.217  1.00  0.00    -0.375 N 
HETATM    4  C1  UNK     1      30.695  -7.534  30.289  1.00  0.00     0.033 C 
HETATM    5  C2  UNK     1      31.215  -8.009  31.649  1.00  0.00     0.067 C 
HETATM    6  C3  UNK     1      33.416  -8.470  30.546  1.00  0.00     0.037 C 
HETATM    7  C4  UNK     1      32.724  -8.205  31.675  1.00  0.00     0.022 C 
HETATM    8  C5  UNK     1      31.178  -8.491  29.209  1.00  0.00     0.093 C 
HETATM    9  C6  UNK     1      34.902  -8.731  30.498  1.00  0.00     0.160 C 
HETATM   10  C7  UNK     1      32.683  -8.615  29.234  1.00  0.00     0.160 C 
HETATM   11  C10 UNK     1      34.533  -7.789  33.414  1.00  0.00     0.059 A 
HETATM   12  C11 UNK     1      35.646  -7.544  32.592  1.00  0.00     0.055 A 
HETATM   13  C16 UNK     1      34.686  -7.656  34.815  1.00  0.00     0.032 A 
HETATM   14  C17 UNK     1      36.854  -7.130  33.198  1.00  0.00     0.031 A 
HETATM   15  C21 UNK     1      35.891  -7.264  35.392  1.00  0.00     0.002 A 
HETATM   16  C22 UNK     1      36.978  -6.990  34.579  1.00  0.00     0.002 A 
HETATM   17  H7  UNK     1      32.541  -8.163  33.688  1.00  0.00     0.166 HD
HETATM   18  H8  UNK     1      36.467  -7.343  30.725  1.00  0.00     0.160 HD
ENDROOT
BRANCH   9  19
HETATM   19  C9  UNK     1      35.271 -10.110  30.957  1.00  0.00     0.042 A 
HETATM   20  C14 UNK     1      36.691 -10.533  30.861  1.00  0.00     0.195 A 
HETATM   21  O3  UNK     1      37.562  -9.795  30.422  1.00  0.00    -0.287 OA
HETATM   22  C18 UNK     1      36.998 -11.899  31.327  1.00  0.00     0.048 A 
HETATM   23  C23 UNK     1      35.965 -12.697  31.819  1.00  0.00     0.089 A 
HETATM   24  C25 UNK     1      38.305 -12.391  31.277  1.00  0.00     0.018 A 
HETATM   25  O2  UNK     1      34.665 -12.265  31.890  1.00  0.00    -0.321 OA
HETATM   26  C26 UNK     1      36.234 -13.992  32.264  1.00  0.00     0.038 A 
HETATM   27  C15 UNK     1      34.393 -10.992  31.454  1.00  0.00     0.156 A 
HETATM   28  C28 UNK     1      37.538 -14.484  32.217  1.00  0.00     0.003 A 
HETATM   29  C27 UNK     1      38.571 -13.685  31.724  1.00  0.00     0.001 A 
ENDBRANCH   9  19
BRANCH   4  30
HETATM   30  C8  UNK     1      29.188  -7.367  30.279  1.00  0.00    -0.032 A 
HETATM   31  C12 UNK     1      28.587  -6.117  30.430  1.00  0.00     0.040 A 
HETATM   32 Cl1  UNK     1      29.533  -4.688  30.637  1.00  0.00    -0.084 Cl
HETATM   33  C19 UNK     1      27.198  -6.004  30.413  1.00  0.00     0.024 A 
HETATM   34  C24 UNK     1      26.407  -7.141  30.245  1.00  0.00     0.002 A 
HETATM   35  C20 UNK     1      27.007  -8.391  30.095  1.00  0.00     0.001 A 
HETATM   36  C13 UNK     1      28.397  -8.504  30.111  1.00  0.00     0.009 A 
ENDBRANCH   4  30
TORSDOF 2
ENDMDL
MODEL 8
REMARK VINA RESULT:      -8.6      4.423      5.699
REMARK  2 active torsions:
REMARK  status: ('A' for Active; 'I' for Inactive)
REMARK    1  A    between atoms: C1_7  and  C8_14 
REMARK    2  A    between atoms: C6_12  and  C9_15 
ROOT
HETATM    1  O1  UNK     1      34.256 -11.489  32.880  1.00  0.00    -0.293 OA
HETATM    2  N1  UNK     1      29.649 -10.584  31.788  1.00  0.00    -0.357 N 
HETATM    3  N2  UNK     1      31.941  -8.825  30.962  1.00  0.00    -0.375 N 
HETATM    4  C1  UNK     1      31.593 -13.754  32.033  1.00  0.00     0.033 C 
HETATM    5  C2  UNK     1      30.403 -12.821  32.272  1.00  0.00     0.067 C 
HETATM    6  C3  UNK     1      32.020 -10.907  32.271  1.00  0.00     0.037 C 
HETATM    7  C4  UNK     1      30.755 -11.350  32.099  1.00  0.00     0.022 C 
HETATM    8  C5  UNK     1      32.751 -13.324  32.921  1.00  0.00     0.093 C 
HETATM    9  C6  UNK     1      32.437  -9.461  32.171  1.00  0.00     0.160 C 
HETATM   10  C7  UNK     1      33.103 -11.875  32.680  1.00  0.00     0.160 C 
HETATM   11  C10 UNK     1      29.530  -9.338  31.140  1.00  0.00     0.059 A 
HETATM   12  C11 UNK     1      30.608  -8.553  30.695  1.00  0.00     0.055 A 
HETATM   13  C16 UNK     1      28.214  -8.891  30.875  1.00  0.00     0.032 A 
HETATM   14  C17 UNK     1      30.328  -7.378  29.962  1.00  0.00     0.031 A 
HETATM   15  C21 UNK     1      27.961  -7.719  30.166  1.00  0.00     0.002 A 
HETATM   16  C22 UNK     1      29.023  -6.964  29.698  1.00  0.00     0.002 A 
HETATM   17  H7  UNK     1      28.761 -11.048  31.959  1.00  0.00     0.166 HD
HETATM   18  H8  UNK     1      32.622  -8.284  30.437  1.00  0.00     0.160 HD
ENDROOT
BRANCH   9  19
HETATM   19  C9  UNK     1      32.072  -8.660  33.386  1.00  0.00     0.042 A 
HETATM   20  C14 UNK     1      32.527  -7.249  33.469  1.00  0.00     0.195 A 
HETATM   21  O3  UNK     1      33.186  -6.724  32.581  1.00  0.00    -0.287 OA
HETATM   22  C18 UNK     1      32.141  -6.508  34.684  1.00  0.00     0.048 A 
HETATM   23  C23 UNK     1      31.388  -7.156  35.663  1.00  0.00     0.089 A 
HETATM   24  C25 UNK     1      32.521  -5.174  34.856  1.00  0.00     0.018 A 
HETATM   25  O2  UNK     1      30.988  -8.463  35.546  1.00  0.00    -0.321 OA
HETATM   26  C26 UNK     1      31.012  -6.474  36.821  1.00  0.00     0.038 A 
HETATM   27  C15 UNK     1      31.354  -9.140  34.410  1.00  0.00     0.156 A 
HETATM   28  C28 UNK     1      31.390  -5.142  36.994  1.00  0.00     0.003 A 
HETATM   29  C27 UNK     1      32.143  -4.495  36.014  1.00  0.00     0.001 A 
ENDBRANCH   9  19
BRANCH   4  30
HETATM   30  C8  UNK     1      31.226 -15.212  32.232  1.00  0.00    -0.032 A 
HETATM   31  C12 UNK     1      31.447 -16.167  31.239  1.00  0.00     0.040 A 
HETATM   32 Cl1  UNK     1      32.153 -15.737  29.724  1.00  0.00    -0.084 Cl
HETATM   33  C19 UNK     1      31.098 -17.499  31.461  1.00  0.00     0.024 A 
HETATM   34  C24 UNK     1      30.527 -17.877  32.676  1.00  0.00     0.002 A 
HETATM   35  C20 UNK     1      30.305 -16.923  33.670  1.00  0.00     0.001 A 
HETATM   36  C13 UNK     1      30.655 -15.592  33.448  1.00  0.00     0.009 A 
ENDBRANCH   4  30
TORSDOF 2
ENDMDL
MODEL 9
REMARK VINA RESULT:      -8.5     33.113     37.057
REMARK  2 active torsions:
REMARK  status: ('A' for Active; 'I' for Inactive)
REMARK    1  A    between atoms: C1_7  and  C8_14 
REMARK    2  A    between atoms: C6_12  and  C9_15 
ROOT
HETATM    1  O1  UNK     1      14.927  12.199  12.013  1.00  0.00    -0.293 OA
HETATM    2  N1  UNK     1      16.853  11.795   7.613  1.00  0.00    -0.357 N 
HETATM    3  N2  UNK     1      17.698  13.860   9.626  1.00  0.00    -0.375 N 
HETATM    4  C1  UNK     1      15.642   9.261  10.063  1.00  0.00     0.033 C 
HETATM    5  C2  UNK     1      15.789   9.919   8.689  1.00  0.00     0.067 C 
HETATM    6  C3  UNK     1      15.970  12.124   9.864  1.00  0.00     0.037 C 
HETATM    7  C4  UNK     1      16.225  11.375   8.769  1.00  0.00     0.022 C 
HETATM    8  C5  UNK     1      14.709  10.102  10.922  1.00  0.00     0.093 C 
HETATM    9  C6  UNK     1      16.320  13.586   9.997  1.00  0.00     0.160 C 
HETATM   10  C7  UNK     1      15.205  11.525  11.020  1.00  0.00     0.160 C 
HETATM   11  C10 UNK     1      17.768  12.840   7.375  1.00  0.00     0.059 A 
HETATM   12  C11 UNK     1      18.210  13.761   8.341  1.00  0.00     0.055 A 
HETATM   13  C16 UNK     1      18.315  12.914   6.072  1.00  0.00     0.032 A 
HETATM   14  C17 UNK     1      19.215  14.687   7.979  1.00  0.00     0.031 A 
HETATM   15  C21 UNK     1      19.291  13.847   5.732  1.00  0.00     0.002 A 
HETATM   16  C22 UNK     1      19.750  14.732   6.693  1.00  0.00     0.002 A 
HETATM   17  H7  UNK     1      16.718  11.175   6.819  1.00  0.00     0.166 HD
HETATM   18  H8  UNK     1      18.222  14.441  10.273  1.00  0.00     0.160 HD
ENDROOT
BRANCH   9  19
HETATM   19  C9  UNK     1      15.376  14.485   9.256  1.00  0.00     0.042 A 
HETATM   20  C14 UNK     1      15.635  15.947   9.265  1.00  0.00     0.195 A 
HETATM   21  O3  UNK     1      16.589  16.436   9.854  1.00  0.00    -0.287 OA
HETATM   22  C18 UNK     1      14.675  16.786   8.520  1.00  0.00     0.048 A 
HETATM   23  C23 UNK     1      13.606  16.174   7.866  1.00  0.00     0.089 A 
HETATM   24  C25 UNK     1      14.833  18.173   8.469  1.00  0.00     0.018 A 
HETATM   25  O2  UNK     1      13.404  14.817   7.883  1.00  0.00    -0.321 OA
HETATM   26  C26 UNK     1      12.687  16.948   7.156  1.00  0.00     0.038 A 
HETATM   27  C15 UNK     1      14.304  14.050   8.580  1.00  0.00     0.156 A 
HETATM   28  C28 UNK     1      12.842  18.333   7.103  1.00  0.00     0.003 A 
HETATM   29  C27 UNK     1      13.913  18.944   7.758  1.00  0.00     0.001 A 
ENDBRANCH   9  19
BRANCH   4  30
HETATM   30  C8  UNK     1      15.185   7.818   9.961  1.00  0.00    -0.032 A 
HETATM   31  C12 UNK     1      16.096   6.762   9.915  1.00  0.00     0.040 A 
HETATM   32 Cl1  UNK     1      17.798   7.044   9.971  1.00  0.00    -0.084 Cl
HETATM   33  C19 UNK     1      15.638   5.449   9.823  1.00  0.00     0.024 A 
HETATM   34  C24 UNK     1      14.268   5.189   9.777  1.00  0.00     0.002 A 
HETATM   35  C20 UNK     1      13.356   6.245   9.823  1.00  0.00     0.001 A 
HETATM   36  C13 UNK     1      13.815   7.558   9.916  1.00  0.00     0.009 A 
ENDBRANCH   4  30
TORSDOF 2
ENDMDL
MODEL 10
REMARK VINA RESULT:      -8.5      3.752      7.808
REMARK  2 active torsions:
REMARK  status: ('A' for Active; 'I' for Inactive)
REMARK    1  A    between atoms: C1_7  and  C8_14 
REMARK    2  A    between atoms: C6_12  and  C9_15 
ROOT
HETATM    1  O1  UNK     1      28.464  -8.236  32.929  1.00  0.00    -0.293 OA
HETATM    2  N1  UNK     1      33.095  -8.491  34.242  1.00  0.00    -0.357 N 
HETATM    3  N2  UNK     1      32.145  -8.744  31.403  1.00  0.00    -0.375 N 
HETATM    4  C1  UNK     1      30.247  -6.429  35.478  1.00  0.00     0.033 C 
HETATM    5  C2  UNK     1      31.472  -7.339  35.601  1.00  0.00     0.067 C 
HETATM    6  C3  UNK     1      30.796  -8.392  33.430  1.00  0.00     0.037 C 
HETATM    7  C4  UNK     1      31.769  -8.114  34.325  1.00  0.00     0.022 C 
HETATM    8  C5  UNK     1      29.058  -7.253  35.006  1.00  0.00     0.093 C 
HETATM    9  C6  UNK     1      30.999  -9.199  32.172  1.00  0.00     0.160 C 
HETATM   10  C7  UNK     1      29.376  -7.962  33.711  1.00  0.00     0.160 C 
HETATM   11  C10 UNK     1      33.906  -8.812  33.135  1.00  0.00     0.059 A 
HETATM   12  C11 UNK     1      33.468  -8.861  31.801  1.00  0.00     0.055 A 
HETATM   13  C16 UNK     1      35.276  -9.042  33.405  1.00  0.00     0.032 A 
HETATM   14  C17 UNK     1      34.424  -9.090  30.786  1.00  0.00     0.031 A 
HETATM   15  C21 UNK     1      36.198  -9.284  32.390  1.00  0.00     0.002 A 
HETATM   16  C22 UNK     1      35.772  -9.299  31.072  1.00  0.00     0.002 A 
HETATM   17  H7  UNK     1      33.603  -8.419  35.119  1.00  0.00     0.166 HD
HETATM   18  H8  UNK     1      31.986  -8.619  30.407  1.00  0.00     0.160 HD
ENDROOT
BRANCH   9  19
HETATM   19  C9  UNK     1      31.078 -10.675  32.429  1.00  0.00     0.042 A 
HETATM   20  C14 UNK     1      31.122 -11.596  31.266  1.00  0.00     0.195 A 
HETATM   21  O3  UNK     1      31.096 -11.190  30.112  1.00  0.00    -0.287 OA
HETATM   22  C18 UNK     1      31.199 -13.037  31.575  1.00  0.00     0.048 A 
HETATM   23  C23 UNK     1      31.227 -13.443  32.909  1.00  0.00     0.089 A 
HETATM   24  C25 UNK     1      31.245 -13.984  30.549  1.00  0.00     0.018 A 
HETATM   25  O2  UNK     1      31.185 -12.557  33.955  1.00  0.00    -0.321 OA
HETATM   26  C26 UNK     1      31.300 -14.801  33.224  1.00  0.00     0.038 A 
HETATM   27  C15 UNK     1      31.113 -11.220  33.653  1.00  0.00     0.156 A 
HETATM   28  C28 UNK     1      31.346 -15.748  32.202  1.00  0.00     0.003 A 
HETATM   29  C27 UNK     1      31.318 -15.340  30.867  1.00  0.00     0.001 A 
ENDBRANCH   9  19
BRANCH   4  30
HETATM   30  C8  UNK     1      29.956  -5.684  36.766  1.00  0.00    -0.032 A 
HETATM   31  C12 UNK     1      30.689  -4.559  37.145  1.00  0.00     0.040 A 
HETATM   32 Cl1  UNK     1      31.972  -3.953  36.162  1.00  0.00    -0.084 Cl
HETATM   33  C19 UNK     1      30.390  -3.899  38.337  1.00  0.00     0.024 A 
HETATM   34  C24 UNK     1      29.357  -4.364  39.151  1.00  0.00     0.002 A 
HETATM   35  C20 UNK     1      28.624  -5.490  38.773  1.00  0.00     0.001 A 
HETATM   36  C13 UNK     1      28.923  -6.149  37.582  1.00  0.00     0.009 A 
ENDBRANCH   4  30
TORSDOF 2
ENDMDL
