MODEL 1
REMARK VINA RESULT:      -8.8      0.000      0.000
REMARK  4 active torsions:
REMARK  status: ('A' for Active; 'I' for Inactive)
REMARK    1  A    between atoms: C6_12  and  S1_1 
REMARK    2  A    between atoms: N1_6  and  S1_1 
REMARK    3  A    between atoms: C2_8  and  N1_6 
REMARK    4  A    between atoms: C1_7  and  C2_8 
ROOT
HETATM    1  O3  UNK     1      20.937  -2.811  30.471  1.00  0.00    -0.275 OA
HETATM    2  O4  UNK     1      21.601  -4.511  31.853  1.00  0.00    -0.260 OA
HETATM    3  C6  UNK     1      19.116   0.864  29.961  1.00  0.00     0.080 A 
HETATM    4  C7  UNK     1      19.183   0.357  31.238  1.00  0.00     0.039 A 
HETATM    5  C8  UNK     1      19.621   0.218  28.858  1.00  0.00     0.028 A 
HETATM    6  C9  UNK     1      19.795  -0.885  31.427  1.00  0.00    -0.001 A 
HETATM    7  C10 UNK     1      20.312  -1.555  30.321  1.00  0.00     0.089 A 
HETATM    8  C11 UNK     1      20.233  -1.020  29.037  1.00  0.00     0.040 A 
HETATM    9  C12 UNK     1      19.913  -1.501  32.737  1.00  0.00     0.020 A 
HETATM   10  C13 UNK     1      20.505  -2.690  32.870  1.00  0.00     0.083 A 
HETATM   11  C14 UNK     1      21.060  -3.420  31.715  1.00  0.00     0.288 A 
ENDROOT
BRANCH   3  12
HETATM   12  S1  UNK     1      18.329   2.457  29.723  1.00  0.00     0.258 S 
HETATM   13  O1  UNK     1      18.160   2.594  28.290  1.00  0.00    -0.201 OA
HETATM   14  O2  UNK     1      17.187   2.410  30.616  1.00  0.00    -0.201 OA
BRANCH  12  15
HETATM   15  N1  UNK     1      19.421   3.649  30.284  1.00  0.00    -0.315 N 
HETATM   16  H12 UNK     1      20.006   3.405  31.092  1.00  0.00     0.172 HD
BRANCH  15  17
HETATM   17  C2  UNK     1      19.002   5.068  30.195  1.00  0.00     0.140 C 
BRANCH  17  18
HETATM   18  C1  UNK     1      18.905   5.730  31.586  1.00  0.00    -0.035 C 
HETATM   19  C3  UNK     1      17.932   6.920  31.486  1.00  0.00     0.016 C 
HETATM   20  C4  UNK     1      20.275   6.256  32.048  1.00  0.00     0.016 C 
HETATM   21  C5  UNK     1      18.361   4.738  32.629  1.00  0.00     0.016 C 
ENDBRANCH  17  18
ENDBRANCH  15  17
ENDBRANCH  12  15
ENDBRANCH   3  12
TORSDOF 4
ENDMDL
MODEL 2
REMARK VINA RESULT:      -8.0      6.876      9.202
REMARK  4 active torsions:
REMARK  status: ('A' for Active; 'I' for Inactive)
REMARK    1  A    between atoms: C6_12  and  S1_1 
REMARK    2  A    between atoms: N1_6  and  S1_1 
REMARK    3  A    between atoms: C2_8  and  N1_6 
REMARK    4  A    between atoms: C1_7  and  C2_8 
ROOT
HETATM    1  O3  UNK     1      19.264  -9.547  37.049  1.00  0.00    -0.275 OA
HETATM    2  O4  UNK     1      19.412 -11.453  38.309  1.00  0.00    -0.260 OA
HETATM    3  C6  UNK     1      19.629  -5.442  36.739  1.00  0.00     0.080 A 
HETATM    4  C7  UNK     1      19.915  -6.018  37.955  1.00  0.00     0.039 A 
HETATM    5  C8  UNK     1      19.236  -6.156  35.632  1.00  0.00     0.028 A 
HETATM    6  C9  UNK     1      19.796  -7.405  38.076  1.00  0.00    -0.001 A 
HETATM    7  C10 UNK     1      19.397  -8.145  36.966  1.00  0.00     0.089 A 
HETATM    8  C11 UNK     1      19.114  -7.539  35.744  1.00  0.00     0.040 A 
HETATM    9  C12 UNK     1      20.075  -8.102  39.320  1.00  0.00     0.020 A 
HETATM   10  C13 UNK     1      19.947  -9.429  39.389  1.00  0.00     0.083 A 
HETATM   11  C14 UNK     1      19.526 -10.235  38.229  1.00  0.00     0.288 A 
ENDROOT
BRANCH   3  12
HETATM   12  S1  UNK     1      19.783  -3.663  36.588  1.00  0.00     0.258 S 
HETATM   13  O1  UNK     1      20.460  -3.229  37.795  1.00  0.00    -0.201 OA
HETATM   14  O2  UNK     1      20.382  -3.481  35.280  1.00  0.00    -0.201 OA
BRANCH  12  15
HETATM   15  N1  UNK     1      18.197  -3.019  36.564  1.00  0.00    -0.315 N 
HETATM   16  H12 UNK     1      17.669  -3.107  35.688  1.00  0.00     0.172 HD
BRANCH  15  17
HETATM   17  C2  UNK     1      17.935  -1.793  37.355  1.00  0.00     0.140 C 
BRANCH  17  18
HETATM   18  C1  UNK     1      17.622  -0.580  36.454  1.00  0.00    -0.035 C 
HETATM   19  C3  UNK     1      17.011   0.528  37.333  1.00  0.00     0.016 C 
HETATM   20  C4  UNK     1      16.607  -0.949  35.358  1.00  0.00     0.016 C 
HETATM   21  C5  UNK     1      18.905  -0.037  35.801  1.00  0.00     0.016 C 
ENDBRANCH  17  18
ENDBRANCH  15  17
ENDBRANCH  12  15
ENDBRANCH   3  12
TORSDOF 4
ENDMDL
MODEL 3
REMARK VINA RESULT:      -7.9      3.239      6.283
REMARK  4 active torsions:
REMARK  status: ('A' for Active; 'I' for Inactive)
REMARK    1  A    between atoms: C6_12  and  S1_1 
REMARK    2  A    between atoms: N1_6  and  S1_1 
REMARK    3  A    between atoms: C2_8  and  N1_6 
REMARK    4  A    between atoms: C1_7  and  C2_8 
ROOT
HETATM    1  O3  UNK     1      18.973   0.551  28.613  1.00  0.00    -0.275 OA
HETATM    2  O4  UNK     1      17.952   2.465  27.881  1.00  0.00    -0.260 OA
HETATM    3  C6  UNK     1      20.435  -1.741  31.725  1.00  0.00     0.080 A 
HETATM    4  C7  UNK     1      19.867  -0.528  32.039  1.00  0.00     0.039 A 
HETATM    5  C8  UNK     1      20.537  -2.226  30.443  1.00  0.00     0.028 A 
HETATM    6  C9  UNK     1      19.369   0.259  30.998  1.00  0.00    -0.001 A 
HETATM    7  C10 UNK     1      19.464  -0.214  29.691  1.00  0.00     0.089 A 
HETATM    8  C11 UNK     1      20.042  -1.447  29.399  1.00  0.00     0.040 A 
HETATM    9  C12 UNK     1      18.753   1.554  31.230  1.00  0.00     0.020 A 
HETATM   10  C13 UNK     1      18.291   2.273  30.204  1.00  0.00     0.083 A 
HETATM   11  C14 UNK     1      18.380   1.794  28.812  1.00  0.00     0.288 A 
ENDROOT
BRANCH   3  12
HETATM   12  S1  UNK     1      21.074  -2.747  33.064  1.00  0.00     0.258 S 
HETATM   13  O1  UNK     1      21.228  -4.078  32.508  1.00  0.00    -0.201 OA
HETATM   14  O2  UNK     1      22.217  -1.993  33.543  1.00  0.00    -0.201 OA
BRANCH  12  15
HETATM   15  N1  UNK     1      19.879  -2.778  34.289  1.00  0.00    -0.315 N 
HETATM   16  H12 UNK     1      18.910  -2.945  33.993  1.00  0.00     0.172 HD
BRANCH  15  17
HETATM   17  C2  UNK     1      20.054  -1.873  35.449  1.00  0.00     0.140 C 
BRANCH  17  18
HETATM   18  C1  UNK     1      18.768  -1.077  35.760  1.00  0.00    -0.035 C 
HETATM   19  C3  UNK     1      18.178  -1.612  37.078  1.00  0.00     0.016 C 
HETATM   20  C4  UNK     1      17.721  -1.258  34.647  1.00  0.00     0.016 C 
HETATM   21  C5  UNK     1      19.078   0.420  35.932  1.00  0.00     0.016 C 
ENDBRANCH  17  18
ENDBRANCH  15  17
ENDBRANCH  12  15
ENDBRANCH   3  12
TORSDOF 4
ENDMDL
MODEL 4
REMARK VINA RESULT:      -7.6      1.480      2.041
REMARK  4 active torsions:
REMARK  status: ('A' for Active; 'I' for Inactive)
REMARK    1  A    between atoms: C6_12  and  S1_1 
REMARK    2  A    between atoms: N1_6  and  S1_1 
REMARK    3  A    between atoms: C2_8  and  N1_6 
REMARK    4  A    between atoms: C1_7  and  C2_8 
ROOT
HETATM    1  O3  UNK     1      20.409  -2.377  33.226  1.00  0.00    -0.275 OA
HETATM    2  O4  UNK     1      20.404  -3.528  35.206  1.00  0.00    -0.260 OA
HETATM    3  C6  UNK     1      19.079   0.805  30.950  1.00  0.00     0.080 A 
HETATM    4  C7  UNK     1      18.612   0.705  32.240  1.00  0.00     0.039 A 
HETATM    5  C8  UNK     1      19.958  -0.088  30.386  1.00  0.00     0.028 A 
HETATM    6  C9  UNK     1      19.053  -0.366  33.023  1.00  0.00    -0.001 A 
HETATM    7  C10 UNK     1      19.943  -1.282  32.469  1.00  0.00     0.089 A 
HETATM    8  C11 UNK     1      20.402  -1.159  31.159  1.00  0.00     0.040 A 
HETATM    9  C12 UNK     1      18.615  -0.556  34.395  1.00  0.00     0.020 A 
HETATM   10  C13 UNK     1      19.061  -1.595  35.105  1.00  0.00     0.083 A 
HETATM   11  C14 UNK     1      20.004  -2.579  34.541  1.00  0.00     0.288 A 
ENDROOT
BRANCH   3  12
HETATM   12  S1  UNK     1      18.511   2.180  29.949  1.00  0.00     0.258 S 
HETATM   13  O1  UNK     1      18.783   1.798  28.577  1.00  0.00    -0.201 OA
HETATM   14  O2  UNK     1      17.157   2.405  30.415  1.00  0.00    -0.201 OA
BRANCH  12  15
HETATM   15  N1  UNK     1      19.470   3.536  30.362  1.00  0.00    -0.315 N 
HETATM   16  H12 UNK     1      20.092   3.440  31.174  1.00  0.00     0.172 HD
BRANCH  15  17
HETATM   17  C2  UNK     1      18.893   4.884  30.146  1.00  0.00     0.140 C 
BRANCH  17  18
HETATM   18  C1  UNK     1      18.751   5.670  31.467  1.00  0.00    -0.035 C 
HETATM   19  C3  UNK     1      20.145   6.180  31.876  1.00  0.00     0.016 C 
HETATM   20  C4  UNK     1      18.210   4.771  32.593  1.00  0.00     0.016 C 
HETATM   21  C5  UNK     1      17.818   6.880  31.287  1.00  0.00     0.016 C 
ENDBRANCH  17  18
ENDBRANCH  15  17
ENDBRANCH  12  15
ENDBRANCH   3  12
TORSDOF 4
ENDMDL
MODEL 5
REMARK VINA RESULT:      -7.6      4.795      8.786
REMARK  4 active torsions:
REMARK  status: ('A' for Active; 'I' for Inactive)
REMARK    1  A    between atoms: C6_12  and  S1_1 
REMARK    2  A    between atoms: N1_6  and  S1_1 
REMARK    3  A    between atoms: C2_8  and  N1_6 
REMARK    4  A    between atoms: C1_7  and  C2_8 
ROOT
HETATM    1  O3  UNK     1      18.774   0.123  31.905  1.00  0.00    -0.275 OA
HETATM    2  O4  UNK     1      19.181   0.644  29.713  1.00  0.00    -0.260 OA
HETATM    3  C6  UNK     1      19.534  -2.245  35.205  1.00  0.00     0.080 A 
HETATM    4  C7  UNK     1      20.229  -2.519  34.050  1.00  0.00     0.039 A 
HETATM    5  C8  UNK     1      18.611  -1.232  35.317  1.00  0.00     0.028 A 
HETATM    6  C9  UNK     1      19.983  -1.728  32.925  1.00  0.00    -0.001 A 
HETATM    7  C10 UNK     1      19.051  -0.697  33.018  1.00  0.00     0.089 A 
HETATM    8  C11 UNK     1      18.360  -0.438  34.200  1.00  0.00     0.040 A 
HETATM    9  C12 UNK     1      20.667  -1.941  31.661  1.00  0.00     0.020 A 
HETATM   10  C13 UNK     1      20.399  -1.160  30.612  1.00  0.00     0.083 A 
HETATM   11  C14 UNK     1      19.416  -0.063  30.685  1.00  0.00     0.288 A 
ENDROOT
BRANCH   3  12
HETATM   12  S1  UNK     1      19.851  -3.263  36.646  1.00  0.00     0.258 S 
HETATM   13  O1  UNK     1      21.224  -3.710  36.508  1.00  0.00    -0.201 OA
HETATM   14  O2  UNK     1      19.439  -2.425  37.754  1.00  0.00    -0.201 OA
BRANCH  12  15
HETATM   15  N1  UNK     1      18.802  -4.612  36.553  1.00  0.00    -0.315 N 
HETATM   16  H12 UNK     1      17.800  -4.436  36.690  1.00  0.00     0.172 HD
BRANCH  15  17
HETATM   17  C2  UNK     1      19.303  -5.915  37.052  1.00  0.00     0.140 C 
BRANCH  17  18
HETATM   18  C1  UNK     1      19.227  -7.015  35.972  1.00  0.00    -0.035 C 
HETATM   19  C3  UNK     1      19.825  -8.308  36.558  1.00  0.00     0.016 C 
HETATM   20  C4  UNK     1      20.036  -6.625  34.723  1.00  0.00     0.016 C 
HETATM   21  C5  UNK     1      17.767  -7.288  35.570  1.00  0.00     0.016 C 
ENDBRANCH  17  18
ENDBRANCH  15  17
ENDBRANCH  12  15
ENDBRANCH   3  12
TORSDOF 4
ENDMDL
MODEL 6
REMARK VINA RESULT:      -7.6      2.991      3.565
REMARK  4 active torsions:
REMARK  status: ('A' for Active; 'I' for Inactive)
REMARK    1  A    between atoms: C6_12  and  S1_1 
REMARK    2  A    between atoms: N1_6  and  S1_1 
REMARK    3  A    between atoms: C2_8  and  N1_6 
REMARK    4  A    between atoms: C1_7  and  C2_8 
ROOT
HETATM    1  O3  UNK     1      18.503  -1.261  35.299  1.00  0.00    -0.275 OA
HETATM    2  O4  UNK     1      18.048  -1.259  37.543  1.00  0.00    -0.260 OA
HETATM    3  C6  UNK     1      18.768   0.777  31.714  1.00  0.00     0.080 A 
HETATM    4  C7  UNK     1      18.384   1.490  32.826  1.00  0.00     0.039 A 
HETATM    5  C8  UNK     1      19.068  -0.564  31.735  1.00  0.00     0.028 A 
HETATM    6  C9  UNK     1      18.289   0.815  34.046  1.00  0.00    -0.001 A 
HETATM    7  C10 UNK     1      18.588  -0.545  34.087  1.00  0.00     0.089 A 
HETATM    8  C11 UNK     1      18.976  -1.245  32.947  1.00  0.00     0.040 A 
HETATM    9  C12 UNK     1      17.892   1.482  35.274  1.00  0.00     0.020 A 
HETATM   10  C13 UNK     1      17.814   0.796  36.416  1.00  0.00     0.083 A 
HETATM   11  C14 UNK     1      18.125  -0.644  36.486  1.00  0.00     0.288 A 
ENDROOT
BRANCH   3  12
HETATM   12  S1  UNK     1      18.887   1.647  30.151  1.00  0.00     0.258 S 
HETATM   13  O1  UNK     1      19.893   0.935  29.388  1.00  0.00    -0.201 OA
HETATM   14  O2  UNK     1      17.512   1.726  29.698  1.00  0.00    -0.201 OA
BRANCH  12  15
HETATM   15  N1  UNK     1      19.447   3.228  30.494  1.00  0.00    -0.315 N 
HETATM   16  H12 UNK     1      20.232   3.314  31.150  1.00  0.00     0.172 HD
BRANCH  15  17
HETATM   17  C2  UNK     1      18.450   4.323  30.532  1.00  0.00     0.140 C 
BRANCH  17  18
HETATM   18  C1  UNK     1      18.926   5.508  31.398  1.00  0.00    -0.035 C 
HETATM   19  C3  UNK     1      18.094   6.748  31.018  1.00  0.00     0.016 C 
HETATM   20  C4  UNK     1      20.411   5.820  31.144  1.00  0.00     0.016 C 
HETATM   21  C5  UNK     1      18.715   5.215  32.893  1.00  0.00     0.016 C 
ENDBRANCH  17  18
ENDBRANCH  15  17
ENDBRANCH  12  15
ENDBRANCH   3  12
TORSDOF 4
ENDMDL
MODEL 7
REMARK VINA RESULT:      -7.5      4.236      6.504
REMARK  4 active torsions:
REMARK  status: ('A' for Active; 'I' for Inactive)
REMARK    1  A    between atoms: C6_12  and  S1_1 
REMARK    2  A    between atoms: N1_6  and  S1_1 
REMARK    3  A    between atoms: C2_8  and  N1_6 
REMARK    4  A    between atoms: C1_7  and  C2_8 
ROOT
HETATM    1  O3  UNK     1      17.954   2.666  31.543  1.00  0.00    -0.275 OA
HETATM    2  O4  UNK     1      17.900   1.334  29.682  1.00  0.00    -0.260 OA
HETATM    3  C6  UNK     1      18.844   6.298  33.302  1.00  0.00     0.080 A 
HETATM    4  C7  UNK     1      19.095   6.162  31.955  1.00  0.00     0.039 A 
HETATM    5  C8  UNK     1      18.316   5.298  34.083  1.00  0.00     0.028 A 
HETATM    6  C9  UNK     1      18.799   4.940  31.346  1.00  0.00    -0.001 A 
HETATM    7  C10 UNK     1      18.265   3.914  32.121  1.00  0.00     0.089 A 
HETATM    8  C11 UNK     1      18.019   4.076  33.483  1.00  0.00     0.040 A 
HETATM    9  C12 UNK     1      19.029   4.702  29.932  1.00  0.00     0.020 A 
HETATM   10  C13 UNK     1      18.733   3.518  29.393  1.00  0.00     0.083 A 
HETATM   11  C14 UNK     1      18.166   2.416  30.192  1.00  0.00     0.288 A 
ENDROOT
BRANCH   3  12
HETATM   12  S1  UNK     1      19.226   7.867  34.079  1.00  0.00     0.258 S 
HETATM   13  O1  UNK     1      18.941   7.680  35.489  1.00  0.00    -0.201 OA
HETATM   14  O2  UNK     1      20.567   8.163  33.614  1.00  0.00    -0.201 OA
BRANCH  12  15
HETATM   15  N1  UNK     1      18.147   9.028  33.431  1.00  0.00    -0.315 N 
HETATM   16  H12 UNK     1      18.562   9.851  32.978  1.00  0.00     0.172 HD
BRANCH  15  17
HETATM   17  C2  UNK     1      16.869   9.259  34.144  1.00  0.00     0.140 C 
BRANCH  17  18
HETATM   18  C1  UNK     1      15.654   8.777  33.323  1.00  0.00    -0.035 C 
HETATM   19  C3  UNK     1      16.152   8.360  31.927  1.00  0.00     0.016 C 
HETATM   20  C4  UNK     1      14.616   9.901  33.156  1.00  0.00     0.016 C 
HETATM   21  C5  UNK     1      14.988   7.562  33.991  1.00  0.00     0.016 C 
ENDBRANCH  17  18
ENDBRANCH  15  17
ENDBRANCH  12  15
ENDBRANCH   3  12
TORSDOF 4
ENDMDL
MODEL 8
REMARK VINA RESULT:      -7.5      6.454      8.131
REMARK  4 active torsions:
REMARK  status: ('A' for Active; 'I' for Inactive)
REMARK    1  A    between atoms: C6_12  and  S1_1 
REMARK    2  A    between atoms: N1_6  and  S1_1 
REMARK    3  A    between atoms: C2_8  and  N1_6 
REMARK    4  A    between atoms: C1_7  and  C2_8 
ROOT
HETATM    1  O3  UNK     1      20.618   6.425  32.774  1.00  0.00    -0.275 OA
HETATM    2  O4  UNK     1      22.506   5.694  31.704  1.00  0.00    -0.260 OA
HETATM    3  C6  UNK     1      16.588   7.332  32.670  1.00  0.00     0.080 A 
HETATM    4  C7  UNK     1      17.169   6.876  31.509  1.00  0.00     0.039 A 
HETATM    5  C8  UNK     1      17.271   7.497  33.851  1.00  0.00     0.028 A 
HETATM    6  C9  UNK     1      18.531   6.566  31.528  1.00  0.00    -0.001 A 
HETATM    7  C10 UNK     1      19.241   6.727  32.715  1.00  0.00     0.089 A 
HETATM    8  C11 UNK     1      18.630   7.189  33.878  1.00  0.00     0.040 A 
HETATM    9  C12 UNK     1      19.233   6.079  30.353  1.00  0.00     0.020 A 
HETATM   10  C13 UNK     1      20.536   5.796  30.417  1.00  0.00     0.083 A 
HETATM   11  C14 UNK     1      21.310   5.958  31.662  1.00  0.00     0.288 A 
ENDROOT
BRANCH   3  12
HETATM   12  S1  UNK     1      14.840   7.731  32.641  1.00  0.00     0.258 S 
HETATM   13  O1  UNK     1      14.306   7.043  31.482  1.00  0.00    -0.201 OA
HETATM   14  O2  UNK     1      14.394   7.407  33.982  1.00  0.00    -0.201 OA
BRANCH  12  15
HETATM   15  N1  UNK     1      14.711   9.421  32.408  1.00  0.00    -0.315 N 
HETATM   16  H12 UNK     1      15.547   9.913  32.073  1.00  0.00     0.172 HD
BRANCH  15  17
HETATM   17  C2  UNK     1      13.842  10.183  33.337  1.00  0.00     0.140 C 
BRANCH  17  18
HETATM   18  C1  UNK     1      14.657  11.124  34.249  1.00  0.00    -0.035 C 
HETATM   19  C3  UNK     1      14.379  10.735  35.714  1.00  0.00     0.016 C 
HETATM   20  C4  UNK     1      14.243  12.592  34.046  1.00  0.00     0.016 C 
HETATM   21  C5  UNK     1      16.165  10.978  33.981  1.00  0.00     0.016 C 
ENDBRANCH  17  18
ENDBRANCH  15  17
ENDBRANCH  12  15
ENDBRANCH   3  12
TORSDOF 4
ENDMDL
MODEL 9
REMARK VINA RESULT:      -7.5     22.177     24.257
REMARK  4 active torsions:
REMARK  status: ('A' for Active; 'I' for Inactive)
REMARK    1  A    between atoms: C6_12  and  S1_1 
REMARK    2  A    between atoms: N1_6  and  S1_1 
REMARK    3  A    between atoms: C2_8  and  N1_6 
REMARK    4  A    between atoms: C1_7  and  C2_8 
ROOT
HETATM    1  O3  UNK     1      17.947  10.020   9.836  1.00  0.00    -0.275 OA
HETATM    2  O4  UNK     1      18.544  12.200   9.468  1.00  0.00    -0.260 OA
HETATM    3  C6  UNK     1      15.132   7.005   9.586  1.00  0.00     0.080 A 
HETATM    4  C7  UNK     1      14.781   8.247   9.110  1.00  0.00     0.039 A 
HETATM    5  C8  UNK     1      16.361   6.718  10.132  1.00  0.00     0.028 A 
HETATM    6  C9  UNK     1      15.721   9.277   9.188  1.00  0.00    -0.001 A 
HETATM    7  C10 UNK     1      16.971   9.006   9.739  1.00  0.00     0.089 A 
HETATM    8  C11 UNK     1      17.305   7.740  10.214  1.00  0.00     0.040 A 
HETATM    9  C12 UNK     1      15.442  10.621   8.712  1.00  0.00     0.020 A 
HETATM   10  C13 UNK     1      16.371  11.574   8.808  1.00  0.00     0.083 A 
HETATM   11  C14 UNK     1      17.702  11.313   9.387  1.00  0.00     0.288 A 
ENDROOT
BRANCH   3  12
HETATM   12  S1  UNK     1      13.922   5.686   9.486  1.00  0.00     0.258 S 
HETATM   13  O1  UNK     1      14.668   4.460   9.698  1.00  0.00    -0.201 OA
HETATM   14  O2  UNK     1      12.883   6.106  10.405  1.00  0.00    -0.201 OA
BRANCH  12  15
HETATM   15  N1  UNK     1      13.291   5.699   7.895  1.00  0.00    -0.315 N 
HETATM   16  H12 UNK     1      13.549   6.492   7.295  1.00  0.00     0.172 HD
BRANCH  15  17
HETATM   17  C2  UNK     1      11.932   5.146   7.684  1.00  0.00     0.140 C 
BRANCH  17  18
HETATM   18  C1  UNK     1      10.906   6.248   7.347  1.00  0.00    -0.035 C 
HETATM   19  C3  UNK     1       9.741   6.145   8.349  1.00  0.00     0.016 C 
HETATM   20  C4  UNK     1      10.345   6.068   5.925  1.00  0.00     0.016 C 
HETATM   21  C5  UNK     1      11.539   7.645   7.472  1.00  0.00     0.016 C 
ENDBRANCH  17  18
ENDBRANCH  15  17
ENDBRANCH  12  15
ENDBRANCH   3  12
TORSDOF 4
ENDMDL
MODEL 10
REMARK VINA RESULT:      -7.3      3.690      6.617
REMARK  4 active torsions:
REMARK  status: ('A' for Active; 'I' for Inactive)
REMARK    1  A    between atoms: C6_12  and  S1_1 
REMARK    2  A    between atoms: N1_6  and  S1_1 
REMARK    3  A    between atoms: C2_8  and  N1_6 
REMARK    4  A    between atoms: C1_7  and  C2_8 
ROOT
HETATM    1  O3  UNK     1      18.940   4.148  30.025  1.00  0.00    -0.275 OA
HETATM    2  O4  UNK     1      18.734   6.411  29.745  1.00  0.00    -0.260 OA
HETATM    3  C6  UNK     1      18.642   0.815  32.451  1.00  0.00     0.080 A 
HETATM    4  C7  UNK     1      18.318   2.035  33.000  1.00  0.00     0.039 A 
HETATM    5  C8  UNK     1      19.052   0.650  31.149  1.00  0.00     0.028 A 
HETATM    6  C9  UNK     1      18.414   3.171  32.192  1.00  0.00    -0.001 A 
HETATM    7  C10 UNK     1      18.829   3.024  30.871  1.00  0.00     0.089 A 
HETATM    8  C11 UNK     1      19.151   1.779  30.338  1.00  0.00     0.040 A 
HETATM    9  C12 UNK     1      18.095   4.501  32.683  1.00  0.00     0.020 A 
HETATM   10  C13 UNK     1      18.202   5.558  31.875  1.00  0.00     0.083 A 
HETATM   11  C14 UNK     1      18.640   5.430  30.473  1.00  0.00     0.288 A 
ENDROOT
BRANCH   3  12
HETATM   12  S1  UNK     1      18.518  -0.640  33.490  1.00  0.00     0.258 S 
HETATM   13  O1  UNK     1      17.102  -0.943  33.564  1.00  0.00    -0.201 OA
HETATM   14  O2  UNK     1      19.457  -1.569  32.891  1.00  0.00    -0.201 OA
BRANCH  12  15
HETATM   15  N1  UNK     1      19.088  -0.202  35.043  1.00  0.00    -0.315 N 
HETATM   16  H12 UNK     1      20.104  -0.201  35.186  1.00  0.00     0.172 HD
BRANCH  15  17
HETATM   17  C2  UNK     1      18.271  -0.595  36.216  1.00  0.00     0.140 C 
BRANCH  17  18
HETATM   18  C1  UNK     1      17.627   0.625  36.907  1.00  0.00    -0.035 C 
HETATM   19  C3  UNK     1      18.365   1.892  36.433  1.00  0.00     0.016 C 
HETATM   20  C4  UNK     1      17.755   0.529  38.437  1.00  0.00     0.016 C 
HETATM   21  C5  UNK     1      16.142   0.751  36.525  1.00  0.00     0.016 C 
ENDBRANCH  17  18
ENDBRANCH  15  17
ENDBRANCH  12  15
ENDBRANCH   3  12
TORSDOF 4
ENDMDL
