MODEL 1
REMARK VINA RESULT:      -9.6      0.000      0.000
REMARK  3 active torsions:
REMARK  status: ('A' for Active; 'I' for Inactive)
REMARK    1  A    between atoms: C1_6  and  N1_5 
REMARK       I    between atoms: C7_12  and  N1_5 
REMARK    2  A    between atoms: C1_6  and  C4_9 
REMARK    3  A    between atoms: C3_8  and  C7_12 
ROOT
HETATM    1  O2  UNK     1      18.049   3.302  28.754  1.00  0.00    -0.267 OA
HETATM    2  N1  UNK     1      19.223   4.280  30.513  1.00  0.00    -0.352 N 
HETATM    3  C7  UNK     1      18.694   3.222  29.796  1.00  0.00     0.258 C 
HETATM    4  H4  UNK     1      19.758   4.109  31.359  1.00  0.00     0.163 HD
ENDROOT
BRANCH   3   5
HETATM    5  C3  UNK     1      18.980   1.918  30.408  1.00  0.00     0.108 A 
HETATM    6  C6  UNK     1      19.616   1.030  29.634  1.00  0.00     0.037 A 
HETATM    7  C2  UNK     1      19.944  -0.290  30.151  1.00  0.00    -0.001 A 
HETATM    8  C5  UNK     1      19.584  -0.608  31.458  1.00  0.00     0.089 A 
HETATM    9  C8  UNK     1      20.607  -1.248  29.382  1.00  0.00     0.014 A 
HETATM   10  C10 UNK     1      19.869  -1.855  32.013  1.00  0.00     0.038 A 
HETATM   11  O1  UNK     1      18.916   0.331  32.266  1.00  0.00    -0.274 OA
HETATM   12  C14 UNK     1      20.530  -2.805  31.237  1.00  0.00     0.003 A 
HETATM   13  C13 UNK     1      20.898  -2.503  29.925  1.00  0.00     0.001 A 
HETATM   14  C9  UNK     1      18.589   1.601  31.799  1.00  0.00     0.304 A 
HETATM   15  O3  UNK     1      18.006   2.413  32.510  1.00  0.00    -0.259 OA
ENDBRANCH   3   5
BRANCH   2  16
HETATM   16  C1  UNK     1      19.074   5.659  30.107  1.00  0.00     0.164 C 
BRANCH  16  17
HETATM   17  C4  UNK     1      18.647   6.537  31.248  1.00  0.00    -0.002 A 
HETATM   18  C11 UNK     1      19.501   6.733  32.327  1.00  0.00     0.124 A 
HETATM   19  F1  UNK     1      20.704   6.145  32.364  1.00  0.00    -0.205 F 
HETATM   20  C15 UNK     1      19.100   7.549  33.384  1.00  0.00     0.043 A 
HETATM   21  C17 UNK     1      17.849   8.166  33.356  1.00  0.00     0.003 A 
HETATM   22  C16 UNK     1      16.998   7.964  32.269  1.00  0.00     0.001 A 
HETATM   23  C12 UNK     1      17.398   7.148  31.212  1.00  0.00     0.012 A 
ENDBRANCH  16  17
ENDBRANCH   2  16
TORSDOF 3
ENDMDL
MODEL 2
REMARK VINA RESULT:      -9.5      1.051      1.477
REMARK  3 active torsions:
REMARK  status: ('A' for Active; 'I' for Inactive)
REMARK    1  A    between atoms: C1_6  and  N1_5 
REMARK       I    between atoms: C7_12  and  N1_5 
REMARK    2  A    between atoms: C1_6  and  C4_9 
REMARK    3  A    between atoms: C3_8  and  C7_12 
ROOT
HETATM    1  O2  UNK     1      18.191   3.536  28.768  1.00  0.00    -0.267 OA
HETATM    2  N1  UNK     1      18.919   4.436  30.791  1.00  0.00    -0.352 N 
HETATM    3  C7  UNK     1      18.637   3.411  29.906  1.00  0.00     0.258 C 
HETATM    4  H4  UNK     1      19.303   4.230  31.708  1.00  0.00     0.163 HD
ENDROOT
BRANCH   3   5
HETATM    5  C3  UNK     1      18.928   2.083  30.461  1.00  0.00     0.108 A 
HETATM    6  C6  UNK     1      19.567   1.231  29.650  1.00  0.00     0.037 A 
HETATM    7  C2  UNK     1      19.899  -0.109  30.109  1.00  0.00    -0.001 A 
HETATM    8  C5  UNK     1      19.541  -0.485  31.400  1.00  0.00     0.089 A 
HETATM    9  C8  UNK     1      20.566  -1.030  29.298  1.00  0.00     0.014 A 
HETATM   10  C10 UNK     1      19.830  -1.753  31.900  1.00  0.00     0.038 A 
HETATM   11  O1  UNK     1      18.869   0.416  32.248  1.00  0.00    -0.274 OA
HETATM   12  C14 UNK     1      20.495  -2.667  31.084  1.00  0.00     0.003 A 
HETATM   13  C13 UNK     1      20.862  -2.306  29.786  1.00  0.00     0.001 A 
HETATM   14  C9  UNK     1      18.538   1.703  31.837  1.00  0.00     0.304 A 
HETATM   15  O3  UNK     1      17.952   2.481  32.583  1.00  0.00    -0.259 OA
ENDBRANCH   3   5
BRANCH   2  16
HETATM   16  C1  UNK     1      18.717   5.831  30.470  1.00  0.00     0.164 C 
BRANCH  16  17
HETATM   17  C4  UNK     1      18.723   6.696  31.697  1.00  0.00    -0.002 A 
HETATM   18  C11 UNK     1      17.653   7.547  31.947  1.00  0.00     0.124 A 
HETATM   19  F1  UNK     1      16.614   7.609  31.103  1.00  0.00    -0.205 F 
HETATM   20  C15 UNK     1      17.662   8.349  33.088  1.00  0.00     0.043 A 
HETATM   21  C17 UNK     1      18.739   8.293  33.972  1.00  0.00     0.003 A 
HETATM   22  C16 UNK     1      19.809   7.437  33.714  1.00  0.00     0.001 A 
HETATM   23  C12 UNK     1      19.800   6.634  32.573  1.00  0.00     0.012 A 
ENDBRANCH  16  17
ENDBRANCH   2  16
TORSDOF 3
ENDMDL
MODEL 3
REMARK VINA RESULT:      -9.3      1.491      2.425
REMARK  3 active torsions:
REMARK  status: ('A' for Active; 'I' for Inactive)
REMARK    1  A    between atoms: C1_6  and  N1_5 
REMARK       I    between atoms: C7_12  and  N1_5 
REMARK    2  A    between atoms: C1_6  and  C4_9 
REMARK    3  A    between atoms: C3_8  and  C7_12 
ROOT
HETATM    1  O2  UNK     1      17.373   3.507  31.479  1.00  0.00    -0.267 OA
HETATM    2  N1  UNK     1      18.854   4.387  29.909  1.00  0.00    -0.352 N 
HETATM    3  C7  UNK     1      18.233   3.370  30.612  1.00  0.00     0.258 C 
HETATM    4  H4  UNK     1      19.545   4.170  29.197  1.00  0.00     0.163 HD
ENDROOT
BRANCH   3   5
HETATM    5  C3  UNK     1      18.706   2.036  30.222  1.00  0.00     0.108 A 
HETATM    6  C6  UNK     1      19.233   1.287  31.199  1.00  0.00     0.037 A 
HETATM    7  C2  UNK     1      19.729  -0.049  30.911  1.00  0.00    -0.001 A 
HETATM    8  C5  UNK     1      19.646  -0.531  29.608  1.00  0.00     0.089 A 
HETATM    9  C8  UNK     1      20.284  -0.866  31.898  1.00  0.00     0.014 A 
HETATM   10  C10 UNK     1      20.103  -1.802  29.266  1.00  0.00     0.038 A 
HETATM   11  O1  UNK     1      19.091   0.262  28.585  1.00  0.00    -0.274 OA
HETATM   12  C14 UNK     1      20.658  -2.610  30.257  1.00  0.00     0.003 A 
HETATM   13  C13 UNK     1      20.748  -2.144  31.570  1.00  0.00     0.001 A 
HETATM   14  C9  UNK     1      18.608   1.544  28.830  1.00  0.00     0.304 A 
HETATM   15  O3  UNK     1      18.127   2.227  27.933  1.00  0.00    -0.259 OA
ENDBRANCH   3   5
BRANCH   2  16
HETATM   16  C1  UNK     1      18.554   5.786  30.116  1.00  0.00     0.164 C 
BRANCH  16  17
HETATM   17  C4  UNK     1      19.037   6.272  31.452  1.00  0.00    -0.002 A 
HETATM   18  C11 UNK     1      18.145   6.873  32.333  1.00  0.00     0.124 A 
HETATM   19  F1  UNK     1      16.855   7.026  32.004  1.00  0.00    -0.205 F 
HETATM   20  C15 UNK     1      18.598   7.324  33.572  1.00  0.00     0.043 A 
HETATM   21  C17 UNK     1      19.939   7.169  33.924  1.00  0.00     0.003 A 
HETATM   22  C16 UNK     1      20.828   6.566  33.034  1.00  0.00     0.001 A 
HETATM   23  C12 UNK     1      20.375   6.115  31.794  1.00  0.00     0.012 A 
ENDBRANCH  16  17
ENDBRANCH   2  16
TORSDOF 3
ENDMDL
MODEL 4
REMARK VINA RESULT:      -9.3      1.333      2.109
REMARK  3 active torsions:
REMARK  status: ('A' for Active; 'I' for Inactive)
REMARK    1  A    between atoms: C1_6  and  N1_5 
REMARK       I    between atoms: C7_12  and  N1_5 
REMARK    2  A    between atoms: C1_6  and  C4_9 
REMARK    3  A    between atoms: C3_8  and  C7_12 
ROOT
HETATM    1  O2  UNK     1      17.282   3.203  31.226  1.00  0.00    -0.267 OA
HETATM    2  N1  UNK     1      19.020   4.067  29.936  1.00  0.00    -0.352 N 
HETATM    3  C7  UNK     1      18.278   3.057  30.522  1.00  0.00     0.258 C 
HETATM    4  H4  UNK     1      19.822   3.842  29.355  1.00  0.00     0.163 HD
ENDROOT
BRANCH   3   5
HETATM    5  C3  UNK     1      18.801   1.718  30.222  1.00  0.00     0.108 A 
HETATM    6  C6  UNK     1      19.273   1.022  31.264  1.00  0.00     0.037 A 
HETATM    7  C2  UNK     1      19.813  -0.315  31.067  1.00  0.00    -0.001 A 
HETATM    8  C5  UNK     1      19.828  -0.852  29.783  1.00  0.00     0.089 A 
HETATM    9  C8  UNK     1      20.314  -1.078  32.124  1.00  0.00     0.014 A 
HETATM   10  C10 UNK     1      20.331  -2.126  29.528  1.00  0.00     0.038 A 
HETATM   11  O1  UNK     1      19.330  -0.114  28.693  1.00  0.00    -0.274 OA
HETATM   12  C14 UNK     1      20.831  -2.880  30.588  1.00  0.00     0.003 A 
HETATM   13  C13 UNK     1      20.823  -2.357  31.883  1.00  0.00     0.001 A 
HETATM   14  C9  UNK     1      18.808   1.167  28.849  1.00  0.00     0.304 A 
HETATM   15  O3  UNK     1      18.376   1.802  27.893  1.00  0.00    -0.259 OA
ENDBRANCH   3   5
BRANCH   2  16
HETATM   16  C1  UNK     1      18.699   5.468  30.085  1.00  0.00     0.164 C 
BRANCH  16  17
HETATM   17  C4  UNK     1      19.055   5.984  31.449  1.00  0.00    -0.002 A 
HETATM   18  C11 UNK     1      20.390   6.104  31.816  1.00  0.00     0.124 A 
HETATM   19  F1  UNK     1      21.368   5.763  30.965  1.00  0.00    -0.205 F 
HETATM   20  C15 UNK     1      20.717   6.583  33.084  1.00  0.00     0.043 A 
HETATM   21  C17 UNK     1      19.706   6.941  33.977  1.00  0.00     0.003 A 
HETATM   22  C16 UNK     1      18.369   6.817  33.602  1.00  0.00     0.001 A 
HETATM   23  C12 UNK     1      18.042   6.338  32.333  1.00  0.00     0.012 A 
ENDBRANCH  16  17
ENDBRANCH   2  16
TORSDOF 3
ENDMDL
MODEL 5
REMARK VINA RESULT:      -8.9     14.625     16.512
REMARK  3 active torsions:
REMARK  status: ('A' for Active; 'I' for Inactive)
REMARK    1  A    between atoms: C1_6  and  N1_5 
REMARK       I    between atoms: C7_12  and  N1_5 
REMARK    2  A    between atoms: C1_6  and  C4_9 
REMARK    3  A    between atoms: C3_8  and  C7_12 
ROOT
HETATM    1  O2  UNK     1      17.116  -2.194  16.603  1.00  0.00    -0.267 OA
HETATM    2  N1  UNK     1      19.127  -1.069  16.949  1.00  0.00    -0.352 N 
HETATM    3  C7  UNK     1      18.217  -1.809  16.217  1.00  0.00     0.258 C 
HETATM    4  H4  UNK     1      20.009  -0.785  16.534  1.00  0.00     0.163 HD
ENDROOT
BRANCH   3   5
HETATM    5  C3  UNK     1      18.692  -2.118  14.862  1.00  0.00     0.108 A 
HETATM    6  C6  UNK     1      18.532  -3.383  14.454  1.00  0.00     0.037 A 
HETATM    7  C2  UNK     1      18.972  -3.787  13.128  1.00  0.00    -0.001 A 
HETATM    8  C5  UNK     1      19.558  -2.837  12.296  1.00  0.00     0.089 A 
HETATM    9  C8  UNK     1      18.824  -5.094  12.660  1.00  0.00     0.014 A 
HETATM   10  C10 UNK     1      20.001  -3.159  11.014  1.00  0.00     0.038 A 
HETATM   11  O1  UNK     1      19.724  -1.509  12.731  1.00  0.00    -0.274 OA
HETATM   12  C14 UNK     1      19.851  -4.467  10.556  1.00  0.00     0.003 A 
HETATM   13  C13 UNK     1      19.264  -5.432  11.376  1.00  0.00     0.001 A 
HETATM   14  C9  UNK     1      19.313  -1.093  13.994  1.00  0.00     0.304 A 
HETATM   15  O3  UNK     1      19.461   0.067  14.365  1.00  0.00    -0.259 OA
ENDBRANCH   3   5
BRANCH   2  16
HETATM   16  C1  UNK     1      18.882  -0.642  18.309  1.00  0.00     0.164 C 
BRANCH  16  17
HETATM   17  C4  UNK     1      19.228   0.804  18.514  1.00  0.00    -0.002 A 
HETATM   18  C11 UNK     1      19.738   1.226  19.736  1.00  0.00     0.124 A 
HETATM   19  F1  UNK     1      19.923   0.357  20.739  1.00  0.00    -0.205 F 
HETATM   20  C15 UNK     1      20.057   2.571  19.922  1.00  0.00     0.043 A 
HETATM   21  C17 UNK     1      19.867   3.484  18.885  1.00  0.00     0.003 A 
HETATM   22  C16 UNK     1      19.355   3.053  17.662  1.00  0.00     0.001 A 
HETATM   23  C12 UNK     1      19.035   1.708  17.475  1.00  0.00     0.012 A 
ENDBRANCH  16  17
ENDBRANCH   2  16
TORSDOF 3
ENDMDL
MODEL 6
REMARK VINA RESULT:      -8.8      2.466      7.491
REMARK  3 active torsions:
REMARK  status: ('A' for Active; 'I' for Inactive)
REMARK    1  A    between atoms: C1_6  and  N1_5 
REMARK       I    between atoms: C7_12  and  N1_5 
REMARK    2  A    between atoms: C1_6  and  C4_9 
REMARK    3  A    between atoms: C3_8  and  C7_12 
ROOT
HETATM    1  O2  UNK     1      18.294   4.270  28.954  1.00  0.00    -0.267 OA
HETATM    2  N1  UNK     1      19.278   2.729  30.398  1.00  0.00    -0.352 N 
HETATM    3  C7  UNK     1      18.803   3.975  30.032  1.00  0.00     0.258 C 
HETATM    4  H4  UNK     1      19.669   2.581  31.324  1.00  0.00     0.163 HD
ENDROOT
BRANCH   3   5
HETATM    5  C3  UNK     1      18.959   4.979  31.093  1.00  0.00     0.108 A 
HETATM    6  C6  UNK     1      17.905   5.156  31.899  1.00  0.00     0.037 A 
HETATM    7  C2  UNK     1      17.964   6.129  32.979  1.00  0.00    -0.001 A 
HETATM    8  C5  UNK     1      19.131   6.867  33.156  1.00  0.00     0.089 A 
HETATM    9  C8  UNK     1      16.891   6.346  33.845  1.00  0.00     0.014 A 
HETATM   10  C10 UNK     1      19.251   7.814  34.171  1.00  0.00     0.038 A 
HETATM   11  O1  UNK     1      20.235   6.676  32.304  1.00  0.00    -0.274 OA
HETATM   12  C14 UNK     1      18.174   8.026  35.030  1.00  0.00     0.003 A 
HETATM   13  C13 UNK     1      16.997   7.293  34.867  1.00  0.00     0.001 A 
HETATM   14  C9  UNK     1      20.209   5.753  31.263  1.00  0.00     0.304 A 
HETATM   15  O3  UNK     1      21.176   5.594  30.526  1.00  0.00    -0.259 OA
ENDBRANCH   3   5
BRANCH   2  16
HETATM   16  C1  UNK     1      19.231   1.580  29.523  1.00  0.00     0.164 C 
BRANCH  16  17
HETATM   17  C4  UNK     1      19.520   0.302  30.257  1.00  0.00    -0.002 A 
HETATM   18  C11 UNK     1      20.193  -0.728  29.611  1.00  0.00     0.124 A 
HETATM   19  F1  UNK     1      20.587  -0.598  28.337  1.00  0.00    -0.205 F 
HETATM   20  C15 UNK     1      20.460  -1.914  30.296  1.00  0.00     0.043 A 
HETATM   21  C17 UNK     1      20.053  -2.060  31.623  1.00  0.00     0.003 A 
HETATM   22  C16 UNK     1      19.378  -1.021  32.263  1.00  0.00     0.001 A 
HETATM   23  C12 UNK     1      19.111   0.164  31.578  1.00  0.00     0.012 A 
ENDBRANCH  16  17
ENDBRANCH   2  16
TORSDOF 3
ENDMDL
MODEL 7
REMARK VINA RESULT:      -8.5      7.014     10.133
REMARK  3 active torsions:
REMARK  status: ('A' for Active; 'I' for Inactive)
REMARK    1  A    between atoms: C1_6  and  N1_5 
REMARK       I    between atoms: C7_12  and  N1_5 
REMARK    2  A    between atoms: C1_6  and  C4_9 
REMARK    3  A    between atoms: C3_8  and  C7_12 
ROOT
HETATM    1  O2  UNK     1      21.085  -3.981  37.614  1.00  0.00    -0.267 OA
HETATM    2  N1  UNK     1      19.681  -3.916  35.756  1.00  0.00    -0.352 N 
HETATM    3  C7  UNK     1      20.398  -4.538  36.761  1.00  0.00     0.258 C 
HETATM    4  H4  UNK     1      19.128  -4.465  35.105  1.00  0.00     0.163 HD
ENDROOT
BRANCH   3   5
HETATM    5  C3  UNK     1      20.269  -6.000  36.732  1.00  0.00     0.108 A 
HETATM    6  C6  UNK     1      20.055  -6.598  37.911  1.00  0.00     0.037 A 
HETATM    7  C2  UNK     1      19.914  -8.044  37.985  1.00  0.00    -0.001 A 
HETATM    8  C5  UNK     1      20.006  -8.789  36.813  1.00  0.00     0.089 A 
HETATM    9  C8  UNK     1      19.688  -8.709  39.191  1.00  0.00     0.014 A 
HETATM   10  C10 UNK     1      19.880 -10.177  36.815  1.00  0.00     0.038 A 
HETATM   11  O1  UNK     1      20.231  -8.154  35.576  1.00  0.00    -0.274 OA
HETATM   12  C14 UNK     1      19.656 -10.833  38.024  1.00  0.00     0.003 A 
HETATM   13  C13 UNK     1      19.560 -10.101  39.209  1.00  0.00     0.001 A 
HETATM   14  C9  UNK     1      20.370  -6.773  35.474  1.00  0.00     0.304 A 
HETATM   15  O3  UNK     1      20.567  -6.229  34.393  1.00  0.00    -0.259 OA
ENDBRANCH   3   5
BRANCH   2  16
HETATM   16  C1  UNK     1      19.651  -2.481  35.582  1.00  0.00     0.164 C 
BRANCH  16  17
HETATM   17  C4  UNK     1      19.738  -2.088  34.136  1.00  0.00    -0.002 A 
HETATM   18  C11 UNK     1      18.822  -1.185  33.608  1.00  0.00     0.124 A 
HETATM   19  F1  UNK     1      17.858  -0.660  34.376  1.00  0.00    -0.205 F 
HETATM   20  C15 UNK     1      18.906  -0.824  32.264  1.00  0.00     0.043 A 
HETATM   21  C17 UNK     1      19.905  -1.366  31.456  1.00  0.00     0.003 A 
HETATM   22  C16 UNK     1      20.820  -2.272  31.993  1.00  0.00     0.001 A 
HETATM   23  C12 UNK     1      20.737  -2.634  33.337  1.00  0.00     0.012 A 
ENDBRANCH  16  17
ENDBRANCH   2  16
TORSDOF 3
ENDMDL
MODEL 8
REMARK VINA RESULT:      -8.5      6.858     11.406
REMARK  3 active torsions:
REMARK  status: ('A' for Active; 'I' for Inactive)
REMARK    1  A    between atoms: C1_6  and  N1_5 
REMARK       I    between atoms: C7_12  and  N1_5 
REMARK    2  A    between atoms: C1_6  and  C4_9 
REMARK    3  A    between atoms: C3_8  and  C7_12 
ROOT
HETATM    1  O2  UNK     1      20.341  -4.495  37.724  1.00  0.00    -0.267 OA
HETATM    2  N1  UNK     1      18.348  -4.997  36.625  1.00  0.00    -0.352 N 
HETATM    3  C7  UNK     1      19.377  -4.169  37.035  1.00  0.00     0.258 C 
HETATM    4  H4  UNK     1      17.601  -4.634  36.041  1.00  0.00     0.163 HD
ENDROOT
BRANCH   3   5
HETATM    5  C3  UNK     1      19.224  -2.789  36.558  1.00  0.00     0.108 A 
HETATM    6  C6  UNK     1      18.451  -1.989  37.302  1.00  0.00     0.037 A 
HETATM    7  C2  UNK     1      18.238  -0.604  36.911  1.00  0.00    -0.001 A 
HETATM    8  C5  UNK     1      18.849  -0.131  35.753  1.00  0.00     0.089 A 
HETATM    9  C8  UNK     1      17.441   0.267  37.657  1.00  0.00     0.014 A 
HETATM   10  C10 UNK     1      18.685   1.185  35.323  1.00  0.00     0.038 A 
HETATM   11  O1  UNK     1      19.661  -0.978  34.975  1.00  0.00    -0.274 OA
HETATM   12  C14 UNK     1      17.888   2.047  36.074  1.00  0.00     0.003 A 
HETATM   13  C13 UNK     1      17.267   1.589  37.238  1.00  0.00     0.001 A 
HETATM   14  C9  UNK     1      19.884  -2.306  35.324  1.00  0.00     0.304 A 
HETATM   15  O3  UNK     1      20.592  -3.037  34.639  1.00  0.00    -0.259 OA
ENDBRANCH   3   5
BRANCH   2  16
HETATM   16  C1  UNK     1      18.281  -6.399  36.969  1.00  0.00     0.164 C 
BRANCH  16  17
HETATM   17  C4  UNK     1      19.330  -7.203  36.257  1.00  0.00    -0.002 A 
HETATM   18  C11 UNK     1      19.906  -8.300  36.886  1.00  0.00     0.124 A 
HETATM   19  F1  UNK     1      19.537  -8.651  38.125  1.00  0.00    -0.205 F 
HETATM   20  C15 UNK     1      20.881  -9.044  36.221  1.00  0.00     0.043 A 
HETATM   21  C17 UNK     1      21.272  -8.686  34.931  1.00  0.00     0.003 A 
HETATM   22  C16 UNK     1      20.690  -7.583  34.306  1.00  0.00     0.001 A 
HETATM   23  C12 UNK     1      19.716  -6.840  34.971  1.00  0.00     0.012 A 
ENDBRANCH  16  17
ENDBRANCH   2  16
TORSDOF 3
ENDMDL
MODEL 9
REMARK VINA RESULT:      -8.5     14.843     16.702
REMARK  3 active torsions:
REMARK  status: ('A' for Active; 'I' for Inactive)
REMARK    1  A    between atoms: C1_6  and  N1_5 
REMARK       I    between atoms: C7_12  and  N1_5 
REMARK    2  A    between atoms: C1_6  and  C4_9 
REMARK    3  A    between atoms: C3_8  and  C7_12 
ROOT
HETATM    1  O2  UNK     1      16.877  -2.108  16.627  1.00  0.00    -0.267 OA
HETATM    2  N1  UNK     1      19.053  -1.320  16.898  1.00  0.00    -0.352 N 
HETATM    3  C7  UNK     1      18.040  -2.002  16.248  1.00  0.00     0.258 C 
HETATM    4  H4  UNK     1      19.984  -1.278  16.493  1.00  0.00     0.163 HD
ENDROOT
BRANCH   3   5
HETATM    5  C3  UNK     1      18.486  -2.627  14.996  1.00  0.00     0.108 A 
HETATM    6  C6  UNK     1      19.172  -1.843  14.156  1.00  0.00     0.037 A 
HETATM    7  C2  UNK     1      19.655  -2.371  12.890  1.00  0.00    -0.001 A 
HETATM    8  C5  UNK     1      19.392  -3.700  12.571  1.00  0.00     0.089 A 
HETATM    9  C8  UNK     1      20.376  -1.590  11.983  1.00  0.00     0.014 A 
HETATM   10  C10 UNK     1      19.827  -4.267  11.375  1.00  0.00     0.038 A 
HETATM   11  O1  UNK     1      18.670  -4.520  13.459  1.00  0.00    -0.274 OA
HETATM   12  C14 UNK     1      20.544  -3.480  10.475  1.00  0.00     0.003 A 
HETATM   13  C13 UNK     1      20.818  -2.145  10.779  1.00  0.00     0.001 A 
HETATM   14  C9  UNK     1      18.195  -4.043  14.677  1.00  0.00     0.304 A 
HETATM   15  O3  UNK     1      17.566  -4.764  15.445  1.00  0.00    -0.259 OA
ENDBRANCH   3   5
BRANCH   2  16
HETATM   16  C1  UNK     1      18.856  -0.622  18.148  1.00  0.00     0.164 C 
BRANCH  16  17
HETATM   17  C4  UNK     1      19.124   0.849  18.018  1.00  0.00    -0.002 A 
HETATM   18  C11 UNK     1      19.286   1.626  19.159  1.00  0.00     0.124 A 
HETATM   19  F1  UNK     1      19.203   1.078  20.379  1.00  0.00    -0.205 F 
HETATM   20  C15 UNK     1      19.534   2.993  19.033  1.00  0.00     0.043 A 
HETATM   21  C17 UNK     1      19.620   3.573  17.768  1.00  0.00     0.003 A 
HETATM   22  C16 UNK     1      19.456   2.787  16.628  1.00  0.00     0.001 A 
HETATM   23  C12 UNK     1      19.208   1.420  16.753  1.00  0.00     0.012 A 
ENDBRANCH  16  17
ENDBRANCH   2  16
TORSDOF 3
ENDMDL
MODEL 10
REMARK VINA RESULT:      -8.4      2.957      4.119
REMARK  3 active torsions:
REMARK  status: ('A' for Active; 'I' for Inactive)
REMARK    1  A    between atoms: C1_6  and  N1_5 
REMARK       I    between atoms: C7_12  and  N1_5 
REMARK    2  A    between atoms: C1_6  and  C4_9 
REMARK    3  A    between atoms: C3_8  and  C7_12 
ROOT
HETATM    1  O2  UNK     1      17.605   2.732  31.159  1.00  0.00    -0.267 OA
HETATM    2  N1  UNK     1      18.621   4.199  32.658  1.00  0.00    -0.352 N 
HETATM    3  C7  UNK     1      18.100   2.983  32.255  1.00  0.00     0.258 C 
HETATM    4  H4  UNK     1      19.024   4.302  33.585  1.00  0.00     0.163 HD
ENDROOT
BRANCH   3   5
HETATM    5  C3  UNK     1      18.189   1.951  33.297  1.00  0.00     0.108 A 
HETATM    6  C6  UNK     1      17.852   2.332  34.535  1.00  0.00     0.037 A 
HETATM    7  C2  UNK     1      17.908   1.381  35.635  1.00  0.00    -0.001 A 
HETATM    8  C5  UNK     1      18.317   0.076  35.375  1.00  0.00     0.089 A 
HETATM    9  C8  UNK     1      17.565   1.733  36.942  1.00  0.00     0.014 A 
HETATM   10  C10 UNK     1      18.392  -0.883  36.384  1.00  0.00     0.038 A 
HETATM   11  O1  UNK     1      18.669  -0.318  34.070  1.00  0.00    -0.274 OA
HETATM   12  C14 UNK     1      18.049  -0.522  37.685  1.00  0.00     0.003 A 
HETATM   13  C13 UNK     1      17.637   0.782  37.964  1.00  0.00     0.001 A 
HETATM   14  C9  UNK     1      18.626   0.569  32.998  1.00  0.00     0.304 A 
HETATM   15  O3  UNK     1      18.935   0.217  31.865  1.00  0.00    -0.259 OA
ENDBRANCH   3   5
BRANCH   2  16
HETATM   16  C1  UNK     1      18.648   5.366  31.805  1.00  0.00     0.164 C 
BRANCH  16  17
HETATM   17  C4  UNK     1      18.680   6.640  32.598  1.00  0.00    -0.002 A 
HETATM   18  C11 UNK     1      19.831   6.994  33.292  1.00  0.00     0.124 A 
HETATM   19  F1  UNK     1      20.916   6.208  33.266  1.00  0.00    -0.205 F 
HETATM   20  C15 UNK     1      19.856   8.178  34.028  1.00  0.00     0.043 A 
HETATM   21  C17 UNK     1      18.732   9.003  34.063  1.00  0.00     0.003 A 
HETATM   22  C16 UNK     1      17.580   8.641  33.364  1.00  0.00     0.001 A 
HETATM   23  C12 UNK     1      17.555   7.456  32.628  1.00  0.00     0.012 A 
ENDBRANCH  16  17
ENDBRANCH   2  16
TORSDOF 3
ENDMDL
