MODEL 1
REMARK VINA RESULT:      -8.3      0.000      0.000
REMARK  4 active torsions:
REMARK  status: ('A' for Active; 'I' for Inactive)
REMARK    1  A    between atoms: C12_18  and  O3_3 
REMARK    2  A    between atoms: C1_7  and  N1_5 
REMARK       I    between atoms: C4_10  and  N1_5 
REMARK    3  A    between atoms: C1_7  and  C7_13 
REMARK    4  A    between atoms: C2_8  and  C4_10 
ROOT
HETATM    1  O1  UNK     1      19.300   0.731  15.073  1.00  0.00    -0.274 OA
HETATM    2  O4  UNK     1      19.125  -1.004  13.595  1.00  0.00    -0.259 OA
HETATM    3  C2  UNK     1      18.757  -1.513  15.879  1.00  0.00     0.108 A 
HETATM    4  C3  UNK     1      18.944   0.328  17.443  1.00  0.00     0.002 A 
HETATM    5  C5  UNK     1      18.698  -1.074  17.142  1.00  0.00     0.037 A 
HETATM    6  C6  UNK     1      19.240   1.199  16.400  1.00  0.00     0.089 A 
HETATM    7  C8  UNK     1      18.893   0.830  18.746  1.00  0.00     0.051 A 
HETATM    8  C10 UNK     1      19.070  -0.605  14.753  1.00  0.00     0.304 A 
HETATM    9  C11 UNK     1      19.484   2.553  16.620  1.00  0.00     0.041 A 
HETATM   10  C12 UNK     1      19.137   2.186  18.984  1.00  0.00     0.069 A 
HETATM   11  C13 UNK     1      19.432   3.045  17.923  1.00  0.00     0.039 A 
ENDROOT
BRANCH   3  12
HETATM   12  C4  UNK     1      18.495  -2.943  15.677  1.00  0.00     0.259 C 
HETATM   13  O2  UNK     1      17.323  -3.308  15.525  1.00  0.00    -0.267 OA
HETATM   14  N1  UNK     1      19.594  -3.806  15.653  1.00  0.00    -0.348 N 
HETATM   15  C9  UNK     1      20.962  -3.329  15.836  1.00  0.00     0.153 C 
BRANCH  14  16
HETATM   16  C1  UNK     1      19.450  -5.240  15.443  1.00  0.00     0.165 C 
BRANCH  16  17
HETATM   17  C7  UNK     1      19.950  -5.665  14.092  1.00  0.00    -0.023 A 
HETATM   18  C14 UNK     1      19.495  -5.037  12.946  1.00  0.00     0.012 A 
HETATM   19  C16 UNK     1      19.976  -5.450  11.710  1.00  0.00     0.020 A 
HETATM   20  C17 UNK     1      20.900  -6.483  11.684  1.00  0.00     0.116 A 
HETATM   21  N2  UNK     1      21.361  -7.112  12.789  1.00  0.00    -0.273 NA
HETATM   22  C15 UNK     1      20.871  -6.683  13.974  1.00  0.00     0.124 A 
ENDBRANCH  16  17
ENDBRANCH  14  16
ENDBRANCH   3  12
BRANCH  10  23
HETATM   23  O3  UNK     1      19.086   2.671  20.255  1.00  0.00    -0.356 OA
HETATM   24  C18 UNK     1      19.540   1.807  21.297  1.00  0.00     0.210 C 
ENDBRANCH  10  23
TORSDOF 4
ENDMDL
MODEL 2
REMARK VINA RESULT:      -8.3     14.031     17.757
REMARK  4 active torsions:
REMARK  status: ('A' for Active; 'I' for Inactive)
REMARK    1  A    between atoms: C12_18  and  O3_3 
REMARK    2  A    between atoms: C1_7  and  N1_5 
REMARK       I    between atoms: C4_10  and  N1_5 
REMARK    3  A    between atoms: C1_7  and  C7_13 
REMARK    4  A    between atoms: C2_8  and  C4_10 
ROOT
HETATM    1  O1  UNK     1      18.792   1.972  28.673  1.00  0.00    -0.274 OA
HETATM    2  O4  UNK     1      18.061   4.125  28.893  1.00  0.00    -0.259 OA
HETATM    3  C2  UNK     1      18.705   3.013  30.883  1.00  0.00     0.108 A 
HETATM    4  C3  UNK     1      19.479   0.729  30.646  1.00  0.00     0.002 A 
HETATM    5  C5  UNK     1      19.170   1.897  31.457  1.00  0.00     0.037 A 
HETATM    6  C6  UNK     1      19.282   0.794  29.270  1.00  0.00     0.089 A 
HETATM    7  C8  UNK     1      19.966  -0.456  31.202  1.00  0.00     0.051 A 
HETATM    8  C10 UNK     1      18.488   3.105  29.422  1.00  0.00     0.304 A 
HETATM    9  C11 UNK     1      19.559  -0.288  28.437  1.00  0.00     0.041 A 
HETATM   10  C12 UNK     1      20.248  -1.550  30.379  1.00  0.00     0.069 A 
HETATM   11  C13 UNK     1      20.044  -1.467  29.000  1.00  0.00     0.039 A 
ENDROOT
BRANCH   3  12
HETATM   12  C4  UNK     1      18.422   4.137  31.785  1.00  0.00     0.259 C 
HETATM   13  O2  UNK     1      17.476   4.030  32.574  1.00  0.00    -0.267 OA
HETATM   14  N1  UNK     1      19.253   5.257  31.703  1.00  0.00    -0.348 N 
HETATM   15  C9  UNK     1      20.360   5.338  30.754  1.00  0.00     0.153 C 
BRANCH  14  16
HETATM   16  C1  UNK     1      19.073   6.421  32.561  1.00  0.00     0.165 C 
BRANCH  16  17
HETATM   17  C7  UNK     1      17.734   7.069  32.356  1.00  0.00    -0.023 A 
HETATM   18  C14 UNK     1      16.853   7.209  33.413  1.00  0.00     0.012 A 
HETATM   19  C16 UNK     1      15.621   7.814  33.194  1.00  0.00     0.020 A 
HETATM   20  C17 UNK     1      15.333   8.256  31.912  1.00  0.00     0.116 A 
HETATM   21  N2  UNK     1      16.177   8.133  30.863  1.00  0.00    -0.273 NA
HETATM   22  C15 UNK     1      17.365   7.539  31.114  1.00  0.00     0.124 A 
ENDBRANCH  16  17
ENDBRANCH  14  16
ENDBRANCH   3  12
BRANCH  10  23
HETATM   23  O3  UNK     1      20.723  -2.704  30.926  1.00  0.00    -0.356 OA
HETATM   24  C18 UNK     1      20.986  -2.697  32.328  1.00  0.00     0.210 C 
ENDBRANCH  10  23
TORSDOF 4
ENDMDL
MODEL 3
REMARK VINA RESULT:      -7.9     12.346     14.486
REMARK  4 active torsions:
REMARK  status: ('A' for Active; 'I' for Inactive)
REMARK    1  A    between atoms: C12_18  and  O3_3 
REMARK    2  A    between atoms: C1_7  and  N1_5 
REMARK       I    between atoms: C4_10  and  N1_5 
REMARK    3  A    between atoms: C1_7  and  C7_13 
REMARK    4  A    between atoms: C2_8  and  C4_10 
ROOT
HETATM    1  O1  UNK     1      16.415   8.639  10.415  1.00  0.00    -0.274 OA
HETATM    2  O4  UNK     1      15.273   6.881  11.324  1.00  0.00    -0.259 OA
HETATM    3  C2  UNK     1      14.173   8.089   9.609  1.00  0.00     0.108 A 
HETATM    4  C3  UNK     1      15.386   9.953   8.647  1.00  0.00     0.002 A 
HETATM    5  C5  UNK     1      14.212   9.098   8.731  1.00  0.00     0.037 A 
HETATM    6  C6  UNK     1      16.462   9.703   9.493  1.00  0.00     0.089 A 
HETATM    7  C8  UNK     1      15.469  11.017   7.746  1.00  0.00     0.051 A 
HETATM    8  C10 UNK     1      15.306   7.804  10.518  1.00  0.00     0.304 A 
HETATM    9  C11 UNK     1      17.616  10.484   9.463  1.00  0.00     0.041 A 
HETATM   10  C12 UNK     1      16.620  11.810   7.705  1.00  0.00     0.069 A 
HETATM   11  C13 UNK     1      17.691  11.544   8.562  1.00  0.00     0.039 A 
ENDROOT
BRANCH   3  12
HETATM   12  C4  UNK     1      12.946   7.283   9.618  1.00  0.00     0.259 C 
HETATM   13  O2  UNK     1      11.946   7.747  10.180  1.00  0.00    -0.267 OA
HETATM   14  N1  UNK     1      12.980   6.043   8.976  1.00  0.00    -0.348 N 
HETATM   15  C9  UNK     1      14.186   5.536   8.324  1.00  0.00     0.153 C 
BRANCH  14  16
HETATM   16  C1  UNK     1      11.816   5.170   8.911  1.00  0.00     0.165 C 
BRANCH  16  17
HETATM   17  C7  UNK     1      10.799   5.660   7.921  1.00  0.00    -0.023 A 
HETATM   18  C14 UNK     1      11.144   5.850   6.595  1.00  0.00     0.012 A 
HETATM   19  C16 UNK     1      10.180   6.304   5.701  1.00  0.00     0.020 A 
HETATM   20  C17 UNK     1       8.905   6.545   6.188  1.00  0.00     0.116 A 
HETATM   21  N2  UNK     1       8.542   6.366   7.478  1.00  0.00    -0.273 NA
HETATM   22  C15 UNK     1       9.506   5.924   8.318  1.00  0.00     0.124 A 
ENDBRANCH  16  17
ENDBRANCH  14  16
ENDBRANCH   3  12
BRANCH  10  23
HETATM   23  O3  UNK     1      16.698  12.846   6.825  1.00  0.00    -0.356 OA
HETATM   24  C18 UNK     1      18.003  13.322   6.498  1.00  0.00     0.210 C 
ENDBRANCH  10  23
TORSDOF 4
ENDMDL
MODEL 4
REMARK VINA RESULT:      -7.4     14.296     17.467
REMARK  4 active torsions:
REMARK  status: ('A' for Active; 'I' for Inactive)
REMARK    1  A    between atoms: C12_18  and  O3_3 
REMARK    2  A    between atoms: C1_7  and  N1_5 
REMARK       I    between atoms: C4_10  and  N1_5 
REMARK    3  A    between atoms: C1_7  and  C7_13 
REMARK    4  A    between atoms: C2_8  and  C4_10 
ROOT
HETATM    1  O1  UNK     1      20.254   6.973  32.648  1.00  0.00    -0.274 OA
HETATM    2  O4  UNK     1      21.244   5.503  31.206  1.00  0.00    -0.259 OA
HETATM    3  C2  UNK     1      18.875   5.533  31.233  1.00  0.00     0.108 A 
HETATM    4  C3  UNK     1      17.829   7.092  32.764  1.00  0.00     0.002 A 
HETATM    5  C5  UNK     1      17.755   6.055  31.746  1.00  0.00     0.037 A 
HETATM    6  C6  UNK     1      19.079   7.527  33.192  1.00  0.00     0.089 A 
HETATM    7  C8  UNK     1      16.686   7.665  33.327  1.00  0.00     0.051 A 
HETATM    8  C10 UNK     1      20.216   5.980  31.673  1.00  0.00     0.304 A 
HETATM    9  C11 UNK     1      19.219   8.517  34.163  1.00  0.00     0.041 A 
HETATM   10  C12 UNK     1      16.811   8.659  34.302  1.00  0.00     0.069 A 
HETATM   11  C13 UNK     1      18.074   9.083  34.720  1.00  0.00     0.039 A 
ENDROOT
BRANCH   3  12
HETATM   12  C4  UNK     1      18.698   4.493  30.212  1.00  0.00     0.259 C 
HETATM   13  O2  UNK     1      18.896   4.794  29.029  1.00  0.00    -0.267 OA
HETATM   14  N1  UNK     1      18.327   3.216  30.645  1.00  0.00    -0.348 N 
HETATM   15  C9  UNK     1      18.104   2.907  32.055  1.00  0.00     0.153 C 
BRANCH  14  16
HETATM   16  C1  UNK     1      18.140   2.107  29.720  1.00  0.00     0.165 C 
BRANCH  16  17
HETATM   17  C7  UNK     1      19.104   0.986  29.981  1.00  0.00    -0.023 A 
HETATM   18  C14 UNK     1      19.757   0.363  28.932  1.00  0.00     0.012 A 
HETATM   19  C16 UNK     1      20.645  -0.671  29.205  1.00  0.00     0.020 A 
HETATM   20  C17 UNK     1      20.837  -1.030  30.530  1.00  0.00     0.116 A 
HETATM   21  N2  UNK     1      20.213  -0.436  31.572  1.00  0.00    -0.273 NA
HETATM   22  C15 UNK     1      19.357   0.565  31.269  1.00  0.00     0.124 A 
ENDBRANCH  16  17
ENDBRANCH  14  16
ENDBRANCH   3  12
BRANCH  10  23
HETATM   23  O3  UNK     1      15.694   9.216  34.848  1.00  0.00    -0.356 OA
HETATM   24  C18 UNK     1      14.463   9.008  34.157  1.00  0.00     0.210 C 
ENDBRANCH  10  23
TORSDOF 4
ENDMDL
MODEL 5
REMARK VINA RESULT:      -7.4     12.457     14.039
REMARK  4 active torsions:
REMARK  status: ('A' for Active; 'I' for Inactive)
REMARK    1  A    between atoms: C12_18  and  O3_3 
REMARK    2  A    between atoms: C1_7  and  N1_5 
REMARK       I    between atoms: C4_10  and  N1_5 
REMARK    3  A    between atoms: C1_7  and  C7_13 
REMARK    4  A    between atoms: C2_8  and  C4_10 
ROOT
HETATM    1  O1  UNK     1      14.536  10.113  11.433  1.00  0.00    -0.274 OA
HETATM    2  O4  UNK     1      12.782   8.661  11.623  1.00  0.00    -0.259 OA
HETATM    3  C2  UNK     1      14.547   8.011  10.183  1.00  0.00     0.108 A 
HETATM    4  C3  UNK     1      16.405   9.553   9.983  1.00  0.00     0.002 A 
HETATM    5  C5  UNK     1      15.736   8.306   9.646  1.00  0.00     0.037 A 
HETATM    6  C6  UNK     1      15.788  10.430  10.870  1.00  0.00     0.089 A 
HETATM    7  C8  UNK     1      17.646   9.902   9.445  1.00  0.00     0.051 A 
HETATM    8  C10 UNK     1      13.872   8.928  11.129  1.00  0.00     0.304 A 
HETATM    9  C11 UNK     1      16.375  11.639  11.235  1.00  0.00     0.041 A 
HETATM   10  C12 UNK     1      18.248  11.113   9.801  1.00  0.00     0.069 A 
HETATM   11  C13 UNK     1      17.613  11.980  10.694  1.00  0.00     0.039 A 
ENDROOT
BRANCH   3  12
HETATM   12  C4  UNK     1      13.952   6.730   9.781  1.00  0.00     0.259 C 
HETATM   13  O2  UNK     1      14.225   5.724  10.447  1.00  0.00    -0.267 OA
HETATM   14  N1  UNK     1      13.099   6.732   8.674  1.00  0.00    -0.348 N 
HETATM   15  C9  UNK     1      12.806   7.947   7.918  1.00  0.00     0.153 C 
BRANCH  14  16
HETATM   16  C1  UNK     1      12.444   5.521   8.199  1.00  0.00     0.165 C 
BRANCH  16  17
HETATM   17  C7  UNK     1      11.009   5.766   7.830  1.00  0.00    -0.023 A 
HETATM   18  C14 UNK     1      10.641   5.920   6.505  1.00  0.00     0.012 A 
HETATM   19  C16 UNK     1       9.305   6.144   6.194  1.00  0.00     0.020 A 
HETATM   20  C17 UNK     1       8.395   6.200   7.237  1.00  0.00     0.116 A 
HETATM   21  N2  UNK     1       8.728   6.051   8.539  1.00  0.00    -0.273 NA
HETATM   22  C15 UNK     1      10.037   5.836   8.804  1.00  0.00     0.124 A 
ENDBRANCH  16  17
ENDBRANCH  14  16
ENDBRANCH   3  12
BRANCH  10  23
HETATM   23  O3  UNK     1      19.458  11.448   9.276  1.00  0.00    -0.356 OA
HETATM   24  C18 UNK     1      19.479  11.865   7.911  1.00  0.00     0.210 C 
ENDBRANCH  10  23
TORSDOF 4
ENDMDL
MODEL 6
REMARK VINA RESULT:      -7.4     12.332     14.546
REMARK  4 active torsions:
REMARK  status: ('A' for Active; 'I' for Inactive)
REMARK    1  A    between atoms: C12_18  and  O3_3 
REMARK    2  A    between atoms: C1_7  and  N1_5 
REMARK       I    between atoms: C4_10  and  N1_5 
REMARK    3  A    between atoms: C1_7  and  C7_13 
REMARK    4  A    between atoms: C2_8  and  C4_10 
ROOT
HETATM    1  O1  UNK     1      14.414   6.265  10.437  1.00  0.00    -0.274 OA
HETATM    2  O4  UNK     1      12.312   5.368  10.419  1.00  0.00    -0.259 OA
HETATM    3  C2  UNK     1      12.583   7.463   9.346  1.00  0.00     0.108 A 
HETATM    4  C3  UNK     1      14.812   8.411   9.367  1.00  0.00     0.002 A 
HETATM    5  C5  UNK     1      13.405   8.461   9.002  1.00  0.00     0.037 A 
HETATM    6  C6  UNK     1      15.285   7.312  10.077  1.00  0.00     0.089 A 
HETATM    7  C8  UNK     1      15.706   9.430   9.029  1.00  0.00     0.051 A 
HETATM    8  C10 UNK     1      13.063   6.284  10.102  1.00  0.00     0.304 A 
HETATM    9  C11 UNK     1      16.621   7.203  10.457  1.00  0.00     0.041 A 
HETATM   10  C12 UNK     1      17.049   9.335   9.403  1.00  0.00     0.069 A 
HETATM   11  C13 UNK     1      17.506   8.224  10.116  1.00  0.00     0.039 A 
ENDROOT
BRANCH   3  12
HETATM   12  C4  UNK     1      11.181   7.605   8.933  1.00  0.00     0.259 C 
HETATM   13  O2  UNK     1      10.472   8.418   9.537  1.00  0.00    -0.267 OA
HETATM   14  N1  UNK     1      10.737   6.817   7.867  1.00  0.00    -0.348 N 
HETATM   15  C9  UNK     1      11.612   5.869   7.182  1.00  0.00     0.153 C 
BRANCH  14  16
HETATM   16  C1  UNK     1       9.371   6.889   7.365  1.00  0.00     0.165 C 
BRANCH  16  17
HETATM   17  C7  UNK     1       8.365   6.520   8.416  1.00  0.00    -0.023 A 
HETATM   18  C14 UNK     1       8.451   5.306   9.076  1.00  0.00     0.012 A 
HETATM   19  C16 UNK     1       7.505   4.993  10.045  1.00  0.00     0.020 A 
HETATM   20  C17 UNK     1       6.512   5.923  10.309  1.00  0.00     0.116 A 
HETATM   21  N2  UNK     1       6.406   7.115   9.680  1.00  0.00    -0.273 NA
HETATM   22  C15 UNK     1       7.343   7.385   8.743  1.00  0.00     0.124 A 
ENDBRANCH  16  17
ENDBRANCH  14  16
ENDBRANCH   3  12
BRANCH  10  23
HETATM   23  O3  UNK     1      17.917  10.330   9.071  1.00  0.00    -0.356 OA
HETATM   24  C18 UNK     1      17.399  11.410   8.295  1.00  0.00     0.210 C 
ENDBRANCH  10  23
TORSDOF 4
ENDMDL
MODEL 7
REMARK VINA RESULT:      -7.3     12.468     14.998
REMARK  4 active torsions:
REMARK  status: ('A' for Active; 'I' for Inactive)
REMARK    1  A    between atoms: C12_18  and  O3_3 
REMARK    2  A    between atoms: C1_7  and  N1_5 
REMARK       I    between atoms: C4_10  and  N1_5 
REMARK    3  A    between atoms: C1_7  and  C7_13 
REMARK    4  A    between atoms: C2_8  and  C4_10 
ROOT
HETATM    1  O1  UNK     1      11.979   6.718   6.410  1.00  0.00    -0.274 OA
HETATM    2  O4  UNK     1      14.207   7.193   6.589  1.00  0.00    -0.259 OA
HETATM    3  C2  UNK     1      13.046   6.768   8.609  1.00  0.00     0.108 A 
HETATM    4  C3  UNK     1      10.684   6.265   8.416  1.00  0.00     0.002 A 
HETATM    5  C5  UNK     1      11.888   6.464   9.208  1.00  0.00     0.037 A 
HETATM    6  C6  UNK     1      10.757   6.398   7.033  1.00  0.00     0.089 A 
HETATM    7  C8  UNK     1       9.455   5.947   8.999  1.00  0.00     0.051 A 
HETATM    8  C10 UNK     1      13.148   6.913   7.140  1.00  0.00     0.304 A 
HETATM    9  C11 UNK     1       9.641   6.220   6.218  1.00  0.00     0.041 A 
HETATM   10  C12 UNK     1       8.326   5.767   8.194  1.00  0.00     0.069 A 
HETATM   11  C13 UNK     1       8.419   5.903   6.807  1.00  0.00     0.039 A 
ENDROOT
BRANCH   3  12
HETATM   12  C4  UNK     1      14.205   6.949   9.492  1.00  0.00     0.259 C 
HETATM   13  O2  UNK     1      15.000   6.009   9.615  1.00  0.00    -0.267 OA
HETATM   14  N1  UNK     1      14.346   8.184  10.131  1.00  0.00    -0.348 N 
HETATM   15  C9  UNK     1      13.381   9.266   9.955  1.00  0.00     0.153 C 
BRANCH  14  16
HETATM   16  C1  UNK     1      15.466   8.477  11.015  1.00  0.00     0.165 C 
BRANCH  16  17
HETATM   17  C7  UNK     1      16.348   9.561  10.467  1.00  0.00    -0.023 A 
HETATM   18  C14 UNK     1      16.292  10.842  10.985  1.00  0.00     0.012 A 
HETATM   19  C16 UNK     1      17.123  11.824  10.458  1.00  0.00     0.020 A 
HETATM   20  C17 UNK     1      17.977  11.468   9.427  1.00  0.00     0.116 A 
HETATM   21  N2  UNK     1      18.052  10.224   8.903  1.00  0.00    -0.273 NA
HETATM   22  C15 UNK     1      17.230   9.295   9.441  1.00  0.00     0.124 A 
ENDBRANCH  16  17
ENDBRANCH  14  16
ENDBRANCH   3  12
BRANCH  10  23
HETATM   23  O3  UNK     1       7.129   5.456   8.766  1.00  0.00    -0.356 OA
HETATM   24  C18 UNK     1       7.067   4.247   9.522  1.00  0.00     0.210 C 
ENDBRANCH  10  23
TORSDOF 4
ENDMDL
MODEL 8
REMARK VINA RESULT:      -7.3     21.940     24.374
REMARK  4 active torsions:
REMARK  status: ('A' for Active; 'I' for Inactive)
REMARK    1  A    between atoms: C12_18  and  O3_3 
REMARK    2  A    between atoms: C1_7  and  N1_5 
REMARK       I    between atoms: C4_10  and  N1_5 
REMARK    3  A    between atoms: C1_7  and  C7_13 
REMARK    4  A    between atoms: C2_8  and  C4_10 
ROOT
HETATM    1  O1  UNK     1      25.817  -5.918  38.604  1.00  0.00    -0.274 OA
HETATM    2  O4  UNK     1      23.600  -5.406  38.813  1.00  0.00    -0.259 OA
HETATM    3  C2  UNK     1      24.188  -7.690  39.036  1.00  0.00     0.108 A 
HETATM    4  C3  UNK     1      26.540  -8.229  38.813  1.00  0.00     0.002 A 
HETATM    5  C5  UNK     1      25.155  -8.615  39.035  1.00  0.00     0.037 A 
HETATM    6  C6  UNK     1      26.839  -6.887  38.602  1.00  0.00     0.089 A 
HETATM    7  C8  UNK     1      27.580  -9.162  38.804  1.00  0.00     0.051 A 
HETATM    8  C10 UNK     1      24.483  -6.256  38.814  1.00  0.00     0.304 A 
HETATM    9  C11 UNK     1      28.144  -6.452  38.384  1.00  0.00     0.041 A 
HETATM   10  C12 UNK     1      28.895  -8.740  38.586  1.00  0.00     0.069 A 
HETATM   11  C13 UNK     1      29.177  -7.388  38.376  1.00  0.00     0.039 A 
ENDROOT
BRANCH   3  12
HETATM   12  C4  UNK     1      22.823  -8.177  39.268  1.00  0.00     0.259 C 
HETATM   13  O2  UNK     1      22.354  -8.082  40.408  1.00  0.00    -0.267 OA
HETATM   14  N1  UNK     1      22.131  -8.708  38.176  1.00  0.00    -0.348 N 
HETATM   15  C9  UNK     1      22.727  -8.800  36.846  1.00  0.00     0.153 C 
BRANCH  14  16
HETATM   16  C1  UNK     1      20.766  -9.205  38.290  1.00  0.00     0.165 C 
BRANCH  16  17
HETATM   17  C7  UNK     1      19.781  -8.312  37.594  1.00  0.00    -0.023 A 
HETATM   18  C14 UNK     1      19.646  -6.987  37.970  1.00  0.00     0.012 A 
HETATM   19  C16 UNK     1      18.726  -6.184  37.306  1.00  0.00     0.020 A 
HETATM   20  C17 UNK     1      17.981  -6.754  36.286  1.00  0.00     0.116 A 
HETATM   21  N2  UNK     1      18.095  -8.045  35.899  1.00  0.00    -0.273 NA
HETATM   22  C15 UNK     1      18.999  -8.796  36.567  1.00  0.00     0.124 A 
ENDBRANCH  16  17
ENDBRANCH  14  16
ENDBRANCH   3  12
BRANCH  10  23
HETATM   23  O3  UNK     1      29.906  -9.652  38.578  1.00  0.00    -0.356 OA
HETATM   24  C18 UNK     1      31.163  -9.222  38.056  1.00  0.00     0.210 C 
ENDBRANCH  10  23
TORSDOF 4
ENDMDL
MODEL 9
REMARK VINA RESULT:      -7.2     16.240     20.139
REMARK  4 active torsions:
REMARK  status: ('A' for Active; 'I' for Inactive)
REMARK    1  A    between atoms: C12_18  and  O3_3 
REMARK    2  A    between atoms: C1_7  and  N1_5 
REMARK       I    between atoms: C4_10  and  N1_5 
REMARK    3  A    between atoms: C1_7  and  C7_13 
REMARK    4  A    between atoms: C2_8  and  C4_10 
ROOT
HETATM    1  O1  UNK     1      18.634  -1.333  35.430  1.00  0.00    -0.274 OA
HETATM    2  O4  UNK     1      18.573  -2.153  37.562  1.00  0.00    -0.259 OA
HETATM    3  C2  UNK     1      19.990  -3.277  36.032  1.00  0.00     0.108 A 
HETATM    4  C3  UNK     1      20.052  -2.406  33.772  1.00  0.00     0.002 A 
HETATM    5  C5  UNK     1      20.474  -3.359  34.787  1.00  0.00     0.037 A 
HETATM    6  C6  UNK     1      19.140  -1.414  34.117  1.00  0.00     0.089 A 
HETATM    7  C8  UNK     1      20.531  -2.454  32.461  1.00  0.00     0.051 A 
HETATM    8  C10 UNK     1      19.019  -2.230  36.422  1.00  0.00     0.304 A 
HETATM    9  C11 UNK     1      18.696  -0.471  33.193  1.00  0.00     0.041 A 
HETATM   10  C12 UNK     1      20.094  -1.515  31.522  1.00  0.00     0.069 A 
HETATM   11  C13 UNK     1      19.178  -0.526  31.887  1.00  0.00     0.039 A 
ENDROOT
BRANCH   3  12
HETATM   12  C4  UNK     1      20.475  -4.284  36.984  1.00  0.00     0.259 C 
HETATM   13  O2  UNK     1      21.556  -4.081  37.550  1.00  0.00    -0.267 OA
HETATM   14  N1  UNK     1      19.673  -5.407  37.204  1.00  0.00    -0.348 N 
HETATM   15  C9  UNK     1      18.402  -5.604  36.512  1.00  0.00     0.153 C 
BRANCH  14  16
HETATM   16  C1  UNK     1      20.051  -6.459  38.139  1.00  0.00     0.165 C 
BRANCH  16  17
HETATM   17  C7  UNK     1      20.380  -7.745  37.437  1.00  0.00    -0.023 A 
HETATM   18  C14 UNK     1      19.642  -8.889  37.684  1.00  0.00     0.012 A 
HETATM   19  C16 UNK     1      19.970 -10.064  37.019  1.00  0.00     0.020 A 
HETATM   20  C17 UNK     1      21.032 -10.033  36.128  1.00  0.00     0.116 A 
HETATM   21  N2  UNK     1      21.767  -8.928  35.868  1.00  0.00    -0.273 NA
HETATM   22  C15 UNK     1      21.420  -7.804  36.534  1.00  0.00     0.124 A 
ENDBRANCH  16  17
ENDBRANCH  14  16
ENDBRANCH   3  12
BRANCH  10  23
HETATM   23  O3  UNK     1      20.563  -1.565  30.244  1.00  0.00    -0.356 OA
HETATM   24  C18 UNK     1      20.512  -0.356  29.488  1.00  0.00     0.210 C 
ENDBRANCH  10  23
TORSDOF 4
ENDMDL
MODEL 10
REMARK VINA RESULT:      -7.2     13.470     15.083
REMARK  4 active torsions:
REMARK  status: ('A' for Active; 'I' for Inactive)
REMARK    1  A    between atoms: C12_18  and  O3_3 
REMARK    2  A    between atoms: C1_7  and  N1_5 
REMARK       I    between atoms: C4_10  and  N1_5 
REMARK    3  A    between atoms: C1_7  and  C7_13 
REMARK    4  A    between atoms: C2_8  and  C4_10 
ROOT
HETATM    1  O1  UNK     1       6.759   6.157   9.191  1.00  0.00    -0.274 OA
HETATM    2  O4  UNK     1       7.855   4.738   7.774  1.00  0.00    -0.259 OA
HETATM    3  C2  UNK     1       9.062   6.633   8.523  1.00  0.00     0.108 A 
HETATM    4  C3  UNK     1       7.897   8.137  10.023  1.00  0.00     0.002 A 
HETATM    5  C5  UNK     1       9.074   7.749   9.261  1.00  0.00     0.037 A 
HETATM    6  C6  UNK     1       6.765   7.330   9.970  1.00  0.00     0.089 A 
HETATM    7  C8  UNK     1       7.865   9.293  10.807  1.00  0.00     0.051 A 
HETATM    8  C10 UNK     1       7.869   5.760   8.451  1.00  0.00     0.304 A 
HETATM    9  C11 UNK     1       5.605   7.644  10.676  1.00  0.00     0.041 A 
HETATM   10  C12 UNK     1       6.709   9.621  11.521  1.00  0.00     0.069 A 
HETATM   11  C13 UNK     1       5.582   8.800  11.455  1.00  0.00     0.039 A 
ENDROOT
BRANCH   3  12
HETATM   12  C4  UNK     1      10.297   6.327   7.790  1.00  0.00     0.259 C 
HETATM   13  O2  UNK     1      10.475   6.868   6.691  1.00  0.00    -0.267 OA
HETATM   14  N1  UNK     1      11.205   5.450   8.389  1.00  0.00    -0.348 N 
HETATM   15  C9  UNK     1      10.952   4.835   9.689  1.00  0.00     0.153 C 
BRANCH  14  16
HETATM   16  C1  UNK     1      12.468   5.090   7.757  1.00  0.00     0.165 C 
BRANCH  16  17
HETATM   17  C7  UNK     1      13.649   5.612   8.522  1.00  0.00    -0.023 A 
HETATM   18  C14 UNK     1      13.831   6.973   8.691  1.00  0.00     0.012 A 
HETATM   19  C16 UNK     1      14.934   7.427   9.405  1.00  0.00     0.020 A 
HETATM   20  C17 UNK     1      15.807   6.483   9.921  1.00  0.00     0.116 A 
HETATM   21  N2  UNK     1      15.652   5.148   9.772  1.00  0.00    -0.273 NA
HETATM   22  C15 UNK     1      14.568   4.744   9.071  1.00  0.00     0.124 A 
ENDBRANCH  16  17
ENDBRANCH  14  16
ENDBRANCH   3  12
BRANCH  10  23
HETATM   23  O3  UNK     1       6.682  10.749  12.285  1.00  0.00    -0.356 OA
HETATM   24  C18 UNK     1       7.107  11.962  11.664  1.00  0.00     0.210 C 
ENDBRANCH  10  23
TORSDOF 4
ENDMDL
