MODEL 1
REMARK VINA RESULT:      -8.0      0.000      0.000
REMARK  4 active torsions:
REMARK  status: ('A' for Active; 'I' for Inactive)
REMARK    1  A    between atoms: C15_21  and  O4_4 
REMARK    2  A    between atoms: C16_22  and  O5_5 
REMARK       I    between atoms: C5_11  and  N1_6 
REMARK    3  A    between atoms: C5_11  and  C6_12 
REMARK    4  A    between atoms: C6_12  and  C7_13 
ROOT
HETATM    1  O2  UNK     1      17.923   4.526  33.930  1.00  0.00    -0.274 OA
HETATM    2  O3  UNK     1      17.552   6.612  34.743  1.00  0.00    -0.259 OA
HETATM    3  C7  UNK     1      18.047   6.458  32.418  1.00  0.00     0.033 A 
HETATM    4  C8  UNK     1      18.378   5.663  31.378  1.00  0.00    -0.036 A 
HETATM    5  C9  UNK     1      18.463   4.202  31.580  1.00  0.00     0.007 A 
HETATM    6  C10 UNK     1      17.818   5.897  33.781  1.00  0.00     0.295 A 
HETATM    7  C11 UNK     1      18.232   3.683  32.851  1.00  0.00     0.093 A 
HETATM    8  C12 UNK     1      18.690   6.180  29.995  1.00  0.00     0.050 C 
HETATM    9  C13 UNK     1      18.755   3.285  30.559  1.00  0.00     0.054 A 
HETATM   10  C14 UNK     1      18.291   2.315  33.128  1.00  0.00     0.077 A 
HETATM   11  C15 UNK     1      18.817   1.910  30.817  1.00  0.00     0.102 A 
HETATM   12  C16 UNK     1      18.586   1.425  32.101  1.00  0.00     0.104 A 
ENDROOT
BRANCH   3  13
HETATM   13  C6  UNK     1      17.866   7.953  32.336  1.00  0.00     0.148 C 
BRANCH  13  14
HETATM   14  C5  UNK     1      16.387   8.206  32.196  1.00  0.00     0.224 C 
HETATM   15  O1  UNK     1      15.741   7.659  31.300  1.00  0.00    -0.273 OA
HETATM   16  N1  UNK     1      15.841   9.078  33.120  1.00  0.00    -0.352 N 
HETATM   17  C3  UNK     1      14.429   9.433  33.116  1.00  0.00     0.126 C 
HETATM   18  C4  UNK     1      16.548   9.755  34.204  1.00  0.00     0.126 C 
HETATM   19  C1  UNK     1      14.206  10.124  34.452  1.00  0.00     0.021 C 
HETATM   20  C2  UNK     1      15.552  10.785  34.720  1.00  0.00     0.021 C 
ENDBRANCH  13  14
ENDBRANCH   3  13
BRANCH  11  21
HETATM   21  O4  UNK     1      19.105   1.053  29.797  1.00  0.00    -0.353 OA
HETATM   22  C17 UNK     1      18.332   1.181  28.606  1.00  0.00     0.210 C 
ENDBRANCH  11  21
BRANCH  12  23
HETATM   23  O5  UNK     1      18.645   0.091  32.363  1.00  0.00    -0.353 OA
HETATM   24  C18 UNK     1      18.322  -0.326  33.689  1.00  0.00     0.210 C 
ENDBRANCH  12  23
TORSDOF 4
ENDMDL
MODEL 2
REMARK VINA RESULT:      -7.6     16.483     18.689
REMARK  4 active torsions:
REMARK  status: ('A' for Active; 'I' for Inactive)
REMARK    1  A    between atoms: C15_21  and  O4_4 
REMARK    2  A    between atoms: C16_22  and  O5_5 
REMARK       I    between atoms: C5_11  and  N1_6 
REMARK    3  A    between atoms: C5_11  and  C6_12 
REMARK    4  A    between atoms: C6_12  and  C7_13 
ROOT
HETATM    1  O2  UNK     1      28.250  -5.177  39.237  1.00  0.00    -0.274 OA
HETATM    2  O3  UNK     1      29.848  -3.589  39.509  1.00  0.00    -0.259 OA
HETATM    3  C7  UNK     1      30.583  -5.692  38.668  1.00  0.00     0.033 A 
HETATM    4  C8  UNK     1      30.255  -6.959  38.332  1.00  0.00    -0.036 A 
HETATM    5  C9  UNK     1      28.842  -7.386  38.408  1.00  0.00     0.007 A 
HETATM    6  C10 UNK     1      29.558  -4.731  39.166  1.00  0.00     0.295 A 
HETATM    7  C11 UNK     1      27.888  -6.479  38.858  1.00  0.00     0.093 A 
HETATM    8  C12 UNK     1      31.259  -7.994  37.889  1.00  0.00     0.050 C 
HETATM    9  C13 UNK     1      28.389  -8.662  38.040  1.00  0.00     0.054 A 
HETATM   10  C14 UNK     1      26.532  -6.801  38.959  1.00  0.00     0.077 A 
HETATM   11  C15 UNK     1      27.034  -9.003  38.133  1.00  0.00     0.102 A 
HETATM   12  C16 UNK     1      26.106  -8.073  38.594  1.00  0.00     0.104 A 
ENDROOT
BRANCH   3  13
HETATM   13  C6  UNK     1      31.971  -5.110  38.577  1.00  0.00     0.148 C 
BRANCH  13  14
HETATM   14  C5  UNK     1      32.175  -4.688  37.145  1.00  0.00     0.224 C 
HETATM   15  O1  UNK     1      31.359  -3.951  36.589  1.00  0.00    -0.273 OA
HETATM   16  N1  UNK     1      33.310  -5.187  36.532  1.00  0.00    -0.352 N 
HETATM   17  C3  UNK     1      33.646  -4.879  35.149  1.00  0.00     0.126 C 
HETATM   18  C4  UNK     1      34.314  -6.060  37.133  1.00  0.00     0.126 C 
HETATM   19  C1  UNK     1      35.086  -5.342  34.996  1.00  0.00     0.021 C 
HETATM   20  C2  UNK     1      35.169  -6.518  35.959  1.00  0.00     0.021 C 
ENDBRANCH  13  14
ENDBRANCH   3  13
BRANCH  11  21
HETATM   21  O4  UNK     1      26.635 -10.253  37.767  1.00  0.00    -0.353 OA
HETATM   22  C17 UNK     1      26.297 -10.450  36.396  1.00  0.00     0.210 C 
ENDBRANCH  11  21
BRANCH  12  23
HETATM   23  O5  UNK     1      24.787  -8.394  38.689  1.00  0.00    -0.353 OA
HETATM   24  C18 UNK     1      23.886  -7.343  39.035  1.00  0.00     0.210 C 
ENDBRANCH  12  23
TORSDOF 4
ENDMDL
MODEL 3
REMARK VINA RESULT:      -7.5     14.462     16.887
REMARK  4 active torsions:
REMARK  status: ('A' for Active; 'I' for Inactive)
REMARK    1  A    between atoms: C15_21  and  O4_4 
REMARK    2  A    between atoms: C16_22  and  O5_5 
REMARK       I    between atoms: C5_11  and  N1_6 
REMARK    3  A    between atoms: C5_11  and  C6_12 
REMARK    4  A    between atoms: C6_12  and  C7_13 
ROOT
HETATM    1  O2  UNK     1      26.162  -5.176  38.782  1.00  0.00    -0.274 OA
HETATM    2  O3  UNK     1      23.915  -5.396  39.012  1.00  0.00    -0.259 OA
HETATM    3  C7  UNK     1      25.178  -7.415  39.016  1.00  0.00     0.033 A 
HETATM    4  C8  UNK     1      26.392  -7.995  38.898  1.00  0.00    -0.036 A 
HETATM    5  C9  UNK     1      27.591  -7.145  38.745  1.00  0.00     0.007 A 
HETATM    6  C10 UNK     1      25.016  -5.935  38.942  1.00  0.00     0.295 A 
HETATM    7  C11 UNK     1      27.433  -5.763  38.692  1.00  0.00     0.093 A 
HETATM    8  C12 UNK     1      26.609  -9.488  38.895  1.00  0.00     0.050 C 
HETATM    9  C13 UNK     1      28.899  -7.643  38.659  1.00  0.00     0.054 A 
HETATM   10  C14 UNK     1      28.513  -4.887  38.550  1.00  0.00     0.077 A 
HETATM   11  C15 UNK     1      29.994  -6.781  38.517  1.00  0.00     0.102 A 
HETATM   12  C16 UNK     1      29.801  -5.404  38.462  1.00  0.00     0.104 A 
ENDROOT
BRANCH   3  13
HETATM   13  C6  UNK     1      23.886  -8.160  39.239  1.00  0.00     0.148 C 
BRANCH  13  14
HETATM   14  C5  UNK     1      23.189  -8.235  37.905  1.00  0.00     0.224 C 
HETATM   15  O1  UNK     1      23.799  -8.610  36.902  1.00  0.00    -0.273 OA
HETATM   16  N1  UNK     1      21.860  -7.854  37.905  1.00  0.00    -0.352 N 
HETATM   17  C3  UNK     1      21.049  -7.863  36.696  1.00  0.00     0.126 C 
HETATM   18  C4  UNK     1      21.080  -7.404  39.055  1.00  0.00     0.126 C 
HETATM   19  C1  UNK     1      19.621  -7.700  37.194  1.00  0.00     0.021 C 
HETATM   20  C2  UNK     1      19.795  -6.857  38.450  1.00  0.00     0.021 C 
ENDBRANCH  13  14
ENDBRANCH   3  13
BRANCH  11  21
HETATM   21  O4  UNK     1      31.249  -7.306  38.435  1.00  0.00    -0.353 OA
HETATM   22  C17 UNK     1      31.354  -8.682  38.077  1.00  0.00     0.210 C 
ENDBRANCH  11  21
BRANCH  12  23
HETATM   23  O5  UNK     1      30.857  -4.557  38.323  1.00  0.00    -0.353 OA
HETATM   24  C18 UNK     1      31.202  -4.159  36.997  1.00  0.00     0.210 C 
ENDBRANCH  12  23
TORSDOF 4
ENDMDL
MODEL 4
REMARK VINA RESULT:      -7.3      1.515      2.732
REMARK  4 active torsions:
REMARK  status: ('A' for Active; 'I' for Inactive)
REMARK    1  A    between atoms: C15_21  and  O4_4 
REMARK    2  A    between atoms: C16_22  and  O5_5 
REMARK       I    between atoms: C5_11  and  N1_6 
REMARK    3  A    between atoms: C5_11  and  C6_12 
REMARK    4  A    between atoms: C6_12  and  C7_13 
ROOT
HETATM    1  O2  UNK     1      18.892   4.301  30.328  1.00  0.00    -0.274 OA
HETATM    2  O3  UNK     1      18.921   6.466  29.649  1.00  0.00    -0.259 OA
HETATM    3  C7  UNK     1      18.307   6.081  31.917  1.00  0.00     0.033 A 
HETATM    4  C8  UNK     1      18.060   5.175  32.888  1.00  0.00    -0.036 A 
HETATM    5  C9  UNK     1      18.264   3.739  32.609  1.00  0.00     0.007 A 
HETATM    6  C10 UNK     1      18.729   5.657  30.551  1.00  0.00     0.295 A 
HETATM    7  C11 UNK     1      18.674   3.351  31.337  1.00  0.00     0.093 A 
HETATM    8  C12 UNK     1      17.564   5.540  34.266  1.00  0.00     0.050 C 
HETATM    9  C13 UNK     1      18.080   2.723  33.559  1.00  0.00     0.054 A 
HETATM   10  C14 UNK     1      18.891   2.015  30.990  1.00  0.00     0.077 A 
HETATM   11  C15 UNK     1      18.293   1.378  33.230  1.00  0.00     0.102 A 
HETATM   12  C16 UNK     1      18.697   1.024  31.946  1.00  0.00     0.104 A 
ENDROOT
BRANCH   3  13
HETATM   13  C6  UNK     1      18.200   7.575  32.086  1.00  0.00     0.148 C 
BRANCH  13  14
HETATM   14  C5  UNK     1      16.747   7.933  31.903  1.00  0.00     0.224 C 
HETATM   15  O1  UNK     1      16.150   7.613  30.873  1.00  0.00    -0.273 OA
HETATM   16  N1  UNK     1      16.168   8.631  32.947  1.00  0.00    -0.352 N 
HETATM   17  C3  UNK     1      14.777   9.057  32.921  1.00  0.00     0.126 C 
HETATM   18  C4  UNK     1      16.817   9.037  34.191  1.00  0.00     0.126 C 
HETATM   19  C1  UNK     1      14.481   9.477  34.352  1.00  0.00     0.021 C 
HETATM   20  C2  UNK     1      15.828   9.996  34.838  1.00  0.00     0.021 C 
ENDBRANCH  13  14
ENDBRANCH   3  13
BRANCH  11  21
HETATM   21  O4  UNK     1      18.102   0.421  34.182  1.00  0.00    -0.353 OA
HETATM   22  C17 UNK     1      16.877   0.467  34.910  1.00  0.00     0.210 C 
ENDBRANCH  11  21
BRANCH  12  23
HETATM   23  O5  UNK     1      18.907  -0.279  31.616  1.00  0.00    -0.353 OA
HETATM   24  C18 UNK     1      20.158  -0.604  31.012  1.00  0.00     0.210 C 
ENDBRANCH  12  23
TORSDOF 4
ENDMDL
MODEL 5
REMARK VINA RESULT:      -7.3     22.917     24.580
REMARK  4 active torsions:
REMARK  status: ('A' for Active; 'I' for Inactive)
REMARK    1  A    between atoms: C15_21  and  O4_4 
REMARK    2  A    between atoms: C16_22  and  O5_5 
REMARK       I    between atoms: C5_11  and  N1_6 
REMARK    3  A    between atoms: C5_11  and  C6_12 
REMARK    4  A    between atoms: C6_12  and  C7_13 
ROOT
HETATM    1  O2  UNK     1      16.308   6.898   9.839  1.00  0.00    -0.274 OA
HETATM    2  O3  UNK     1      15.610   4.767   9.488  1.00  0.00    -0.259 OA
HETATM    3  C7  UNK     1      14.137   6.493   8.763  1.00  0.00     0.033 A 
HETATM    4  C8  UNK     1      13.892   7.819   8.687  1.00  0.00    -0.036 A 
HETATM    5  C9  UNK     1      14.908   8.773   9.176  1.00  0.00     0.007 A 
HETATM    6  C10 UNK     1      15.390   5.970   9.379  1.00  0.00     0.295 A 
HETATM    7  C11 UNK     1      16.082   8.279   9.736  1.00  0.00     0.093 A 
HETATM    8  C12 UNK     1      12.614   8.403   8.139  1.00  0.00     0.050 C 
HETATM    9  C13 UNK     1      14.772  10.168   9.102  1.00  0.00     0.054 A 
HETATM   10  C14 UNK     1      17.094   9.112  10.221  1.00  0.00     0.077 A 
HETATM   11  C15 UNK     1      15.776  11.019   9.583  1.00  0.00     0.102 A 
HETATM   12  C16 UNK     1      16.936  10.491  10.142  1.00  0.00     0.104 A 
ENDROOT
BRANCH   3  13
HETATM   13  C6  UNK     1      13.216   5.416   8.246  1.00  0.00     0.148 C 
BRANCH  13  14
HETATM   14  C5  UNK     1      11.951   5.494   9.062  1.00  0.00     0.224 C 
HETATM   15  O1  UNK     1      11.986   5.331  10.283  1.00  0.00    -0.273 OA
HETATM   16  N1  UNK     1      10.795   5.746   8.348  1.00  0.00    -0.352 N 
HETATM   17  C3  UNK     1       9.491   5.843   8.987  1.00  0.00     0.126 C 
HETATM   18  C4  UNK     1      10.687   5.949   6.906  1.00  0.00     0.126 C 
HETATM   19  C1  UNK     1       8.587   6.438   7.920  1.00  0.00     0.021 C 
HETATM   20  C2  UNK     1       9.191   5.904   6.628  1.00  0.00     0.021 C 
ENDBRANCH  13  14
ENDBRANCH   3  13
BRANCH  11  21
HETATM   21  O4  UNK     1      15.605  12.368   9.494  1.00  0.00    -0.353 OA
HETATM   22  C17 UNK     1      15.655  12.943   8.190  1.00  0.00     0.210 C 
ENDBRANCH  11  21
BRANCH  12  23
HETATM   23  O5  UNK     1      17.917  11.308  10.612  1.00  0.00    -0.353 OA
HETATM   24  C18 UNK     1      18.997  11.602   9.728  1.00  0.00     0.210 C 
ENDBRANCH  12  23
TORSDOF 4
ENDMDL
MODEL 6
REMARK VINA RESULT:      -7.3     15.643     17.874
REMARK  4 active torsions:
REMARK  status: ('A' for Active; 'I' for Inactive)
REMARK    1  A    between atoms: C15_21  and  O4_4 
REMARK    2  A    between atoms: C16_22  and  O5_5 
REMARK       I    between atoms: C5_11  and  N1_6 
REMARK    3  A    between atoms: C5_11  and  C6_12 
REMARK    4  A    between atoms: C6_12  and  C7_13 
ROOT
HETATM    1  O2  UNK     1      27.931  -5.169  38.313  1.00  0.00    -0.274 OA
HETATM    2  O3  UNK     1      25.728  -5.463  38.769  1.00  0.00    -0.259 OA
HETATM    3  C7  UNK     1      27.099  -7.407  38.892  1.00  0.00     0.033 A 
HETATM    4  C8  UNK     1      28.330  -7.940  38.732  1.00  0.00    -0.036 A 
HETATM    5  C9  UNK     1      29.461  -7.060  38.374  1.00  0.00     0.007 A 
HETATM    6  C10 UNK     1      26.847  -5.955  38.663  1.00  0.00     0.295 A 
HETATM    7  C11 UNK     1      29.222  -5.703  38.177  1.00  0.00     0.093 A 
HETATM    8  C12 UNK     1      28.630  -9.411  38.881  1.00  0.00     0.050 C 
HETATM    9  C13 UNK     1      30.784  -7.504  38.227  1.00  0.00     0.054 A 
HETATM   10  C14 UNK     1      30.235  -4.801  37.838  1.00  0.00     0.077 A 
HETATM   11  C15 UNK     1      31.812  -6.616  37.889  1.00  0.00     0.102 A 
HETATM   12  C16 UNK     1      31.537  -5.265  37.693  1.00  0.00     0.104 A 
ENDROOT
BRANCH   3  13
HETATM   13  C6  UNK     1      25.875  -8.178  39.315  1.00  0.00     0.148 C 
BRANCH  13  14
HETATM   14  C5  UNK     1      25.065  -8.432  38.069  1.00  0.00     0.224 C 
HETATM   15  O1  UNK     1      25.624  -8.728  37.012  1.00  0.00    -0.273 OA
HETATM   16  N1  UNK     1      23.696  -8.301  38.210  1.00  0.00    -0.352 N 
HETATM   17  C3  UNK     1      22.777  -8.505  37.100  1.00  0.00     0.126 C 
HETATM   18  C4  UNK     1      22.974  -7.955  39.431  1.00  0.00     0.126 C 
HETATM   19  C1  UNK     1      21.405  -8.587  37.752  1.00  0.00     0.021 C 
HETATM   20  C2  UNK     1      21.552  -7.677  38.964  1.00  0.00     0.021 C 
ENDBRANCH  13  14
ENDBRANCH   3  13
BRANCH  11  21
HETATM   21  O4  UNK     1      33.083  -7.088  37.755  1.00  0.00    -0.353 OA
HETATM   22  C17 UNK     1      33.384  -7.811  36.563  1.00  0.00     0.210 C 
ENDBRANCH  11  21
BRANCH  12  23
HETATM   23  O5  UNK     1      32.529  -4.394  37.364  1.00  0.00    -0.353 OA
HETATM   24  C18 UNK     1      32.626  -4.008  35.993  1.00  0.00     0.210 C 
ENDBRANCH  12  23
TORSDOF 4
ENDMDL
MODEL 7
REMARK VINA RESULT:      -7.3      2.386      8.160
REMARK  4 active torsions:
REMARK  status: ('A' for Active; 'I' for Inactive)
REMARK    1  A    between atoms: C15_21  and  O4_4 
REMARK    2  A    between atoms: C16_22  and  O5_5 
REMARK       I    between atoms: C5_11  and  N1_6 
REMARK    3  A    between atoms: C5_11  and  C6_12 
REMARK    4  A    between atoms: C6_12  and  C7_13 
ROOT
HETATM    1  O2  UNK     1      15.746   8.580  31.505  1.00  0.00    -0.274 OA
HETATM    2  O3  UNK     1      17.098   7.269  30.238  1.00  0.00    -0.259 OA
HETATM    3  C7  UNK     1      17.752   7.578  32.507  1.00  0.00     0.033 A 
HETATM    4  C8  UNK     1      17.499   8.179  33.690  1.00  0.00    -0.036 A 
HETATM    5  C9  UNK     1      16.288   9.012  33.837  1.00  0.00     0.007 A 
HETATM    6  C10 UNK     1      16.861   7.780  31.329  1.00  0.00     0.295 A 
HETATM    7  C11 UNK     1      15.451   9.183  32.737  1.00  0.00     0.093 A 
HETATM    8  C12 UNK     1      18.401   8.068  34.894  1.00  0.00     0.050 C 
HETATM    9  C13 UNK     1      15.910   9.642  35.032  1.00  0.00     0.054 A 
HETATM   10  C14 UNK     1      14.286   9.952  32.790  1.00  0.00     0.077 A 
HETATM   11  C15 UNK     1      14.745  10.417  35.104  1.00  0.00     0.102 A 
HETATM   12  C16 UNK     1      13.934  10.572  33.984  1.00  0.00     0.104 A 
ENDROOT
BRANCH   3  13
HETATM   13  C6  UNK     1      18.915   6.656  32.241  1.00  0.00     0.148 C 
BRANCH  13  14
HETATM   14  C5  UNK     1      18.459   5.264  32.598  1.00  0.00     0.224 C 
HETATM   15  O1  UNK     1      18.096   5.001  33.746  1.00  0.00    -0.273 OA
HETATM   16  N1  UNK     1      18.491   4.343  31.566  1.00  0.00    -0.352 N 
HETATM   17  C3  UNK     1      18.090   2.956  31.750  1.00  0.00     0.126 C 
HETATM   18  C4  UNK     1      18.907   4.590  30.189  1.00  0.00     0.126 C 
HETATM   19  C1  UNK     1      17.967   2.406  30.337  1.00  0.00     0.021 C 
HETATM   20  C2  UNK     1      19.013   3.203  29.570  1.00  0.00     0.021 C 
ENDBRANCH  13  14
ENDBRANCH   3  13
BRANCH  11  21
HETATM   21  O4  UNK     1      14.414  11.014  36.284  1.00  0.00    -0.353 OA
HETATM   22  C17 UNK     1      14.910  12.332  36.504  1.00  0.00     0.210 C 
ENDBRANCH  11  21
BRANCH  12  23
HETATM   23  O5  UNK     1      12.801  11.322  34.043  1.00  0.00    -0.353 OA
HETATM   24  C18 UNK     1      12.274  11.804  32.807  1.00  0.00     0.210 C 
ENDBRANCH  12  23
TORSDOF 4
ENDMDL
MODEL 8
REMARK VINA RESULT:      -7.3      2.667      4.244
REMARK  4 active torsions:
REMARK  status: ('A' for Active; 'I' for Inactive)
REMARK    1  A    between atoms: C15_21  and  O4_4 
REMARK    2  A    between atoms: C16_22  and  O5_5 
REMARK       I    between atoms: C5_11  and  N1_6 
REMARK    3  A    between atoms: C5_11  and  C6_12 
REMARK    4  A    between atoms: C6_12  and  C7_13 
ROOT
HETATM    1  O2  UNK     1      18.988   2.260  29.742  1.00  0.00    -0.274 OA
HETATM    2  O3  UNK     1      18.683   4.355  28.925  1.00  0.00    -0.259 OA
HETATM    3  C7  UNK     1      18.387   4.085  31.273  1.00  0.00     0.033 A 
HETATM    4  C8  UNK     1      18.365   3.237  32.325  1.00  0.00    -0.036 A 
HETATM    5  C9  UNK     1      18.701   1.814  32.116  1.00  0.00     0.007 A 
HETATM    6  C10 UNK     1      18.694   3.604  29.896  1.00  0.00     0.295 A 
HETATM    7  C11 UNK     1      19.002   1.374  30.830  1.00  0.00     0.093 A 
HETATM    8  C12 UNK     1      17.993   3.653  33.726  1.00  0.00     0.050 C 
HETATM    9  C13 UNK     1      18.750   0.862  33.146  1.00  0.00     0.054 A 
HETATM   10  C14 UNK     1      19.332   0.047  30.547  1.00  0.00     0.077 A 
HETATM   11  C15 UNK     1      19.080  -0.473  32.881  1.00  0.00     0.102 A 
HETATM   12  C16 UNK     1      19.370  -0.881  31.582  1.00  0.00     0.104 A 
ENDROOT
BRANCH   3  13
HETATM   13  C6  UNK     1      18.127   5.568  31.357  1.00  0.00     0.148 C 
BRANCH  13  14
HETATM   14  C5  UNK     1      19.389   6.205  31.878  1.00  0.00     0.224 C 
HETATM   15  O1  UNK     1      20.470   5.992  31.325  1.00  0.00    -0.273 OA
HETATM   16  N1  UNK     1      19.235   7.012  32.990  1.00  0.00    -0.352 N 
HETATM   17  C3  UNK     1      20.357   7.693  33.618  1.00  0.00     0.126 C 
HETATM   18  C4  UNK     1      17.986   7.307  33.688  1.00  0.00     0.126 C 
HETATM   19  C1  UNK     1      19.713   8.697  34.563  1.00  0.00     0.021 C 
HETATM   20  C2  UNK     1      18.424   7.997  34.972  1.00  0.00     0.021 C 
ENDBRANCH  13  14
ENDBRANCH   3  13
BRANCH  11  21
HETATM   21  O4  UNK     1      19.115  -1.368  33.909  1.00  0.00    -0.353 OA
HETATM   22  C17 UNK     1      18.468  -0.986  35.121  1.00  0.00     0.210 C 
ENDBRANCH  11  21
BRANCH  12  23
HETATM   23  O5  UNK     1      19.690  -2.175  31.313  1.00  0.00    -0.353 OA
HETATM   24  C18 UNK     1      20.523  -2.418  30.180  1.00  0.00     0.210 C 
ENDBRANCH  12  23
TORSDOF 4
ENDMDL
MODEL 9
REMARK VINA RESULT:      -7.2      1.989      3.633
REMARK  4 active torsions:
REMARK  status: ('A' for Active; 'I' for Inactive)
REMARK    1  A    between atoms: C15_21  and  O4_4 
REMARK    2  A    between atoms: C16_22  and  O5_5 
REMARK       I    between atoms: C5_11  and  N1_6 
REMARK    3  A    between atoms: C5_11  and  C6_12 
REMARK    4  A    between atoms: C6_12  and  C7_13 
ROOT
HETATM    1  O2  UNK     1      18.441   4.460  30.284  1.00  0.00    -0.274 OA
HETATM    2  O3  UNK     1      17.912   6.570  30.929  1.00  0.00    -0.259 OA
HETATM    3  C7  UNK     1      17.983   4.927  32.652  1.00  0.00     0.033 A 
HETATM    4  C8  UNK     1      18.161   3.628  32.974  1.00  0.00    -0.036 A 
HETATM    5  C9  UNK     1      18.534   2.663  31.920  1.00  0.00     0.007 A 
HETATM    6  C10 UNK     1      18.105   5.400  31.242  1.00  0.00     0.295 A 
HETATM    7  C11 UNK     1      18.662   3.113  30.609  1.00  0.00     0.093 A 
HETATM    8  C12 UNK     1      17.982   3.080  34.369  1.00  0.00     0.050 C 
HETATM    9  C13 UNK     1      18.785   1.302  32.156  1.00  0.00     0.054 A 
HETATM   10  C14 UNK     1      19.013   2.268  29.553  1.00  0.00     0.077 A 
HETATM   11  C15 UNK     1      19.138   0.440  31.110  1.00  0.00     0.102 A 
HETATM   12  C16 UNK     1      19.252   0.923  29.810  1.00  0.00     0.104 A 
ENDROOT
BRANCH   3  13
HETATM   13  C6  UNK     1      17.663   6.023  33.636  1.00  0.00     0.148 C 
BRANCH  13  14
HETATM   14  C5  UNK     1      18.970   6.676  34.005  1.00  0.00     0.224 C 
HETATM   15  O1  UNK     1      19.966   5.990  34.243  1.00  0.00    -0.273 OA
HETATM   16  N1  UNK     1      18.953   8.058  34.057  1.00  0.00    -0.352 N 
HETATM   17  C3  UNK     1      20.132   8.837  34.405  1.00  0.00     0.126 C 
HETATM   18  C4  UNK     1      17.812   8.927  33.785  1.00  0.00     0.126 C 
HETATM   19  C1  UNK     1      19.769  10.265  34.028  1.00  0.00     0.021 C 
HETATM   20  C2  UNK     1      18.264  10.303  34.255  1.00  0.00     0.021 C 
ENDBRANCH  13  14
ENDBRANCH   3  13
BRANCH  11  21
HETATM   21  O4  UNK     1      19.372  -0.875  31.381  1.00  0.00    -0.353 OA
HETATM   22  C17 UNK     1      18.944  -1.360  32.652  1.00  0.00     0.210 C 
ENDBRANCH  11  21
BRANCH  12  23
HETATM   23  O5  UNK     1      19.594   0.094  28.787  1.00  0.00    -0.353 OA
HETATM   24  C18 UNK     1      20.848  -0.580  28.887  1.00  0.00     0.210 C 
ENDBRANCH  12  23
TORSDOF 4
ENDMDL
MODEL 10
REMARK VINA RESULT:      -7.1     22.311     24.615
REMARK  4 active torsions:
REMARK  status: ('A' for Active; 'I' for Inactive)
REMARK    1  A    between atoms: C15_21  and  O4_4 
REMARK    2  A    between atoms: C16_22  and  O5_5 
REMARK       I    between atoms: C5_11  and  N1_6 
REMARK    3  A    between atoms: C5_11  and  C6_12 
REMARK    4  A    between atoms: C6_12  and  C7_13 
ROOT
HETATM    1  O2  UNK     1       9.968   5.076   8.563  1.00  0.00    -0.274 OA
HETATM    2  O3  UNK     1      12.057   4.631   7.798  1.00  0.00    -0.259 OA
HETATM    3  C7  UNK     1      11.647   6.868   8.506  1.00  0.00     0.033 A 
HETATM    4  C8  UNK     1      10.753   7.764   8.977  1.00  0.00    -0.036 A 
HETATM    5  C9  UNK     1       9.383   7.318   9.303  1.00  0.00     0.007 A 
HETATM    6  C10 UNK     1      11.265   5.448   8.259  1.00  0.00     0.295 A 
HETATM    7  C11 UNK     1       9.037   5.988   9.085  1.00  0.00     0.093 A 
HETATM    8  C12 UNK     1      11.062   9.227   9.180  1.00  0.00     0.050 C 
HETATM    9  C13 UNK     1       8.393   8.157   9.838  1.00  0.00     0.054 A 
HETATM   10  C14 UNK     1       7.765   5.484   9.368  1.00  0.00     0.077 A 
HETATM   11  C15 UNK     1       7.112   7.670  10.129  1.00  0.00     0.102 A 
HETATM   12  C16 UNK     1       6.798   6.334   9.893  1.00  0.00     0.104 A 
ENDROOT
BRANCH   3  13
HETATM   13  C6  UNK     1      13.090   7.174   8.193  1.00  0.00     0.148 C 
BRANCH  13  14
HETATM   14  C5  UNK     1      13.824   7.216   9.509  1.00  0.00     0.224 C 
HETATM   15  O1  UNK     1      13.684   6.309  10.331  1.00  0.00    -0.273 OA
HETATM   16  N1  UNK     1      14.629   8.323   9.708  1.00  0.00    -0.352 N 
HETATM   17  C3  UNK     1      15.397   8.516  10.929  1.00  0.00     0.126 C 
HETATM   18  C4  UNK     1      14.839   9.428   8.777  1.00  0.00     0.126 C 
HETATM   19  C1  UNK     1      16.360   9.645  10.599  1.00  0.00     0.021 C 
HETATM   20  C2  UNK     1      15.573  10.480   9.598  1.00  0.00     0.021 C 
ENDBRANCH  13  14
ENDBRANCH   3  13
BRANCH  11  21
HETATM   21  O4  UNK     1       6.179   8.517  10.646  1.00  0.00    -0.353 OA
HETATM   22  C17 UNK     1       6.608   9.401  11.679  1.00  0.00     0.210 C 
ENDBRANCH  11  21
BRANCH  12  23
HETATM   23  O5  UNK     1       5.557   5.851  10.171  1.00  0.00    -0.353 OA
HETATM   24  C18 UNK     1       5.484   4.645  10.930  1.00  0.00     0.210 C 
ENDBRANCH  12  23
TORSDOF 4
ENDMDL
