MODEL 1
REMARK VINA RESULT:      -8.5      0.000      0.000
REMARK  12 active torsions:
REMARK  status: ('A' for Active; 'I' for Inactive)
REMARK    1  A    between atoms: C3_10  and  O1_1 
REMARK    2  A    between atoms: C4_11  and  O2_2 
REMARK    3  A    between atoms: C5_12  and  O3_3 
REMARK    4  A    between atoms: C1_8  and  N1_7 
REMARK    5  A    between atoms: C2_9  and  N1_7 
REMARK    6  A    between atoms: C1_8  and  C3_10 
REMARK    7  A    between atoms: C1_8  and  C4_11 
REMARK    8  A    between atoms: C1_8  and  C5_12 
REMARK    9  A    between atoms: C2_9  and  C6_13 
REMARK   10  A    between atoms: C2_9  and  C7_14 
REMARK   11  A    between atoms: C6_13  and  C8_15 
REMARK   12  A    between atoms: C11_18  and  C8_15 
ROOT
HETATM    1  C2  UNK     1      18.102   5.868  33.142  1.00  0.00     0.262 C 
ENDROOT
BRANCH   1   2
HETATM    2  N1  UNK     1      16.937   6.019  32.262  1.00  0.00     0.109 N 
HETATM    3  H2  UNK     1      17.200   6.043  31.280  1.00  0.00     0.318 HD
BRANCH   2   4
HETATM    4  C1  UNK     1      16.150   7.176  32.652  1.00  0.00     0.220 C 
BRANCH   4   5
HETATM    5  C3  UNK     1      16.599   8.357  31.768  1.00  0.00     0.210 C 
BRANCH   5   6
HETATM    6  O1  UNK     1      16.723   7.942  30.412  1.00  0.00    -0.398 OA
HETATM    7  H13 UNK     1      16.962   8.728  29.891  1.00  0.00     0.209 HD
ENDBRANCH   5   6
ENDBRANCH   4   5
BRANCH   4   8
HETATM    8  C4  UNK     1      14.652   6.854  32.458  1.00  0.00     0.210 C 
BRANCH   8   9
HETATM    9  O2  UNK     1      14.211   7.240  31.162  1.00  0.00    -0.398 OA
HETATM   10  H14 UNK     1      13.283   7.526  31.233  1.00  0.00     0.209 HD
ENDBRANCH   8   9
ENDBRANCH   4   8
BRANCH   4  11
HETATM   11  C5  UNK     1      16.400   7.456  34.149  1.00  0.00     0.210 C 
BRANCH  11  12
HETATM   12  O3  UNK     1      15.257   7.126  34.930  1.00  0.00    -0.398 OA
HETATM   13  H15 UNK     1      15.542   7.089  35.858  1.00  0.00     0.209 HD
ENDBRANCH  11  12
ENDBRANCH   4  11
ENDBRANCH   2   4
ENDBRANCH   1   2
BRANCH   1  14
HETATM   14  C6  UNK     1      17.967   4.578  33.974  1.00  0.00     0.124 C 
BRANCH  14  15
HETATM   15  C8  UNK     1      17.905   3.319  33.119  1.00  0.00     0.168 C 
HETATM   16  O4  UNK     1      17.721   3.348  31.901  1.00  0.00    -0.292 OA
BRANCH  15  17
HETATM   17  C11 UNK     1      18.116   2.037  33.802  1.00  0.00     0.086 A 
HETATM   18  C14 UNK     1      17.856   2.017  35.115  1.00  0.00     0.035 A 
HETATM   19  C17 UNK     1      18.037   0.792  35.879  1.00  0.00    -0.001 A 
HETATM   20  C18 UNK     1      18.481  -0.352  35.223  1.00  0.00     0.089 A 
HETATM   21  C19 UNK     1      17.777   0.724  37.250  1.00  0.00     0.014 A 
HETATM   22  O5  UNK     1      18.752  -0.324  33.840  1.00  0.00    -0.274 OA
HETATM   23  C20 UNK     1      18.675  -1.556  35.896  1.00  0.00     0.038 A 
HETATM   24  C16 UNK     1      18.590   0.834  33.083  1.00  0.00     0.302 A 
HETATM   25  O6  UNK     1      18.829   0.849  31.881  1.00  0.00    -0.259 OA
HETATM   26  C22 UNK     1      18.414  -1.614  37.263  1.00  0.00     0.003 A 
HETATM   27  C21 UNK     1      17.967  -0.477  37.939  1.00  0.00     0.001 A 
ENDBRANCH  15  17
ENDBRANCH  14  15
ENDBRANCH   1  14
BRANCH   1  28
HETATM   28  C7  UNK     1      19.390   5.934  32.338  1.00  0.00    -0.025 A 
HETATM   29  C10 UNK     1      20.587   6.104  33.005  1.00  0.00     0.009 A 
HETATM   30  C13 UNK     1      21.769   6.165  32.266  1.00  0.00     0.001 A 
HETATM   31  C15 UNK     1      21.730   6.054  30.876  1.00  0.00     0.000 A 
HETATM   32  C12 UNK     1      20.508   5.882  30.224  1.00  0.00     0.001 A 
HETATM   33  C9  UNK     1      19.327   5.822  30.962  1.00  0.00     0.009 A 
ENDBRANCH   1  28
TORSDOF 12
ENDMDL
MODEL 2
REMARK VINA RESULT:      -8.5     15.369     17.814
REMARK  12 active torsions:
REMARK  status: ('A' for Active; 'I' for Inactive)
REMARK    1  A    between atoms: C3_10  and  O1_1 
REMARK    2  A    between atoms: C4_11  and  O2_2 
REMARK    3  A    between atoms: C5_12  and  O3_3 
REMARK    4  A    between atoms: C1_8  and  N1_7 
REMARK    5  A    between atoms: C2_9  and  N1_7 
REMARK    6  A    between atoms: C1_8  and  C3_10 
REMARK    7  A    between atoms: C1_8  and  C4_11 
REMARK    8  A    between atoms: C1_8  and  C5_12 
REMARK    9  A    between atoms: C2_9  and  C6_13 
REMARK   10  A    between atoms: C2_9  and  C7_14 
REMARK   11  A    between atoms: C6_13  and  C8_15 
REMARK   12  A    between atoms: C11_18  and  C8_15 
ROOT
HETATM    1  C2  UNK     1      31.856  -5.769  35.688  1.00  0.00     0.262 C 
ENDROOT
BRANCH   1   2
HETATM    2  N1  UNK     1      33.208  -5.663  35.126  1.00  0.00     0.109 N 
HETATM    3  H2  UNK     1      33.203  -5.711  34.110  1.00  0.00     0.318 HD
BRANCH   2   4
HETATM    4  C1  UNK     1      34.087  -6.654  35.722  1.00  0.00     0.220 C 
BRANCH   4   5
HETATM    5  C3  UNK     1      33.215  -7.861  36.123  1.00  0.00     0.210 C 
BRANCH   5   6
HETATM    6  O1  UNK     1      33.501  -8.978  35.289  1.00  0.00    -0.398 OA
HETATM    7  H13 UNK     1      33.515  -8.657  34.371  1.00  0.00     0.209 HD
ENDBRANCH   5   6
ENDBRANCH   4   5
BRANCH   4   8
HETATM    8  C4  UNK     1      35.170  -7.048  34.694  1.00  0.00     0.210 C 
BRANCH   8   9
HETATM    9  O2  UNK     1      36.272  -7.684  35.330  1.00  0.00    -0.398 OA
HETATM   10  H14 UNK     1      36.969  -7.814  34.665  1.00  0.00     0.209 HD
ENDBRANCH   8   9
ENDBRANCH   4   8
BRANCH   4  11
HETATM   11  C5  UNK     1      34.782  -6.019  36.945  1.00  0.00     0.210 C 
BRANCH  11  12
HETATM   12  O3  UNK     1      34.662  -6.853  38.092  1.00  0.00    -0.398 OA
HETATM   13  H15 UNK     1      34.407  -6.284  38.837  1.00  0.00     0.209 HD
ENDBRANCH  11  12
ENDBRANCH   4  11
ENDBRANCH   2   4
ENDBRANCH   1   2
BRANCH   1  14
HETATM   14  C6  UNK     1      31.618  -4.630  36.699  1.00  0.00     0.124 C 
BRANCH  14  15
HETATM   15  C8  UNK     1      31.512  -5.120  38.137  1.00  0.00     0.168 C 
HETATM   16  O4  UNK     1      32.391  -4.919  38.977  1.00  0.00    -0.292 OA
BRANCH  15  17
HETATM   17  C11 UNK     1      30.280  -5.823  38.514  1.00  0.00     0.086 A 
HETATM   18  C14 UNK     1      30.255  -7.140  38.278  1.00  0.00     0.035 A 
HETATM   19  C17 UNK     1      29.077  -7.924  38.616  1.00  0.00    -0.001 A 
HETATM   20  C18 UNK     1      27.983  -7.282  39.188  1.00  0.00     0.089 A 
HETATM   21  C19 UNK     1      29.007  -9.300  38.388  1.00  0.00     0.014 A 
HETATM   22  O5  UNK     1      28.015  -5.895  39.435  1.00  0.00    -0.274 OA
HETATM   23  C20 UNK     1      26.825  -7.974  39.535  1.00  0.00     0.038 A 
HETATM   24  C16 UNK     1      29.129  -5.119  39.121  1.00  0.00     0.302 A 
HETATM   25  O6  UNK     1      29.147  -3.913  39.339  1.00  0.00    -0.259 OA
HETATM   26  C22 UNK     1      26.764  -9.346  39.303  1.00  0.00     0.003 A 
HETATM   27  C21 UNK     1      27.851 -10.008  38.731  1.00  0.00     0.001 A 
ENDBRANCH  15  17
ENDBRANCH  14  15
ENDBRANCH   1  14
BRANCH   1  28
HETATM   28  C7  UNK     1      30.818  -5.816  34.579  1.00  0.00    -0.025 A 
HETATM   29  C10 UNK     1      31.149  -5.321  33.332  1.00  0.00     0.009 A 
HETATM   30  C13 UNK     1      30.196  -5.364  32.314  1.00  0.00     0.001 A 
HETATM   31  C15 UNK     1      28.933  -5.901  32.563  1.00  0.00     0.000 A 
HETATM   32  C12 UNK     1      28.622  -6.395  33.830  1.00  0.00     0.001 A 
HETATM   33  C9  UNK     1      29.574  -6.352  34.847  1.00  0.00     0.009 A 
ENDBRANCH   1  28
TORSDOF 12
ENDMDL
MODEL 3
REMARK VINA RESULT:      -8.5      2.076      3.860
REMARK  12 active torsions:
REMARK  status: ('A' for Active; 'I' for Inactive)
REMARK    1  A    between atoms: C3_10  and  O1_1 
REMARK    2  A    between atoms: C4_11  and  O2_2 
REMARK    3  A    between atoms: C5_12  and  O3_3 
REMARK    4  A    between atoms: C1_8  and  N1_7 
REMARK    5  A    between atoms: C2_9  and  N1_7 
REMARK    6  A    between atoms: C1_8  and  C3_10 
REMARK    7  A    between atoms: C1_8  and  C4_11 
REMARK    8  A    between atoms: C1_8  and  C5_12 
REMARK    9  A    between atoms: C2_9  and  C6_13 
REMARK   10  A    between atoms: C2_9  and  C7_14 
REMARK   11  A    between atoms: C6_13  and  C8_15 
REMARK   12  A    between atoms: C11_18  and  C8_15 
ROOT
HETATM    1  C2  UNK     1      18.004   5.440  32.607  1.00  0.00     0.262 C 
ENDROOT
BRANCH   1   2
HETATM    2  N1  UNK     1      17.085   6.394  31.974  1.00  0.00     0.109 N 
HETATM    3  H2  UNK     1      17.473   6.789  31.121  1.00  0.00     0.318 HD
BRANCH   2   4
HETATM    4  C1  UNK     1      16.681   7.418  32.923  1.00  0.00     0.220 C 
BRANCH   4   5
HETATM    5  C3  UNK     1      16.497   6.731  34.291  1.00  0.00     0.210 C 
BRANCH   5   6
HETATM    6  O1  UNK     1      16.587   7.686  35.341  1.00  0.00    -0.398 OA
HETATM    7  H13 UNK     1      17.301   8.305  35.108  1.00  0.00     0.209 HD
ENDBRANCH   5   6
ENDBRANCH   4   5
BRANCH   4   8
HETATM    8  C4  UNK     1      17.768   8.513  32.974  1.00  0.00     0.210 C 
BRANCH   8   9
HETATM    9  O2  UNK     1      17.207   9.773  33.325  1.00  0.00    -0.398 OA
HETATM   10  H14 UNK     1      17.788  10.186  33.987  1.00  0.00     0.209 HD
ENDBRANCH   8   9
ENDBRANCH   4   8
BRANCH   4  11
HETATM   11  C5  UNK     1      15.367   8.055  32.423  1.00  0.00     0.210 C 
BRANCH  11  12
HETATM   12  O3  UNK     1      15.554   8.699  31.168  1.00  0.00    -0.398 OA
HETATM   13  H15 UNK     1      16.404   8.394  30.810  1.00  0.00     0.209 HD
ENDBRANCH  11  12
ENDBRANCH   4  11
ENDBRANCH   2   4
ENDBRANCH   1   2
BRANCH   1  14
HETATM   14  C6  UNK     1      17.526   3.999  32.345  1.00  0.00     0.124 C 
BRANCH  14  15
HETATM   15  C8  UNK     1      18.133   2.985  33.306  1.00  0.00     0.168 C 
HETATM   16  O4  UNK     1      18.219   3.183  34.519  1.00  0.00    -0.292 OA
BRANCH  15  17
HETATM   17  C11 UNK     1      18.589   1.712  32.733  1.00  0.00     0.086 A 
HETATM   18  C14 UNK     1      18.994   1.749  31.458  1.00  0.00     0.035 A 
HETATM   19  C17 UNK     1      19.463   0.538  30.802  1.00  0.00    -0.001 A 
HETATM   20  C18 UNK     1      19.481  -0.653  31.521  1.00  0.00     0.089 A 
HETATM   21  C19 UNK     1      19.895   0.530  29.474  1.00  0.00     0.014 A 
HETATM   22  O5  UNK     1      19.054  -0.685  32.864  1.00  0.00    -0.274 OA
HETATM   23  C20 UNK     1      19.918  -1.847  30.953  1.00  0.00     0.038 A 
HETATM   24  C16 UNK     1      18.600   0.458  33.518  1.00  0.00     0.302 A 
HETATM   25  O6  UNK     1      18.229   0.420  34.685  1.00  0.00    -0.259 OA
HETATM   26  C22 UNK     1      20.347  -1.846  29.627  1.00  0.00     0.003 A 
HETATM   27  C21 UNK     1      20.336  -0.661  28.890  1.00  0.00     0.001 A 
ENDBRANCH  15  17
ENDBRANCH  14  15
ENDBRANCH   1  14
BRANCH   1  28
HETATM   28  C7  UNK     1      19.432   5.693  32.152  1.00  0.00    -0.025 A 
HETATM   29  C10 UNK     1      19.742   5.556  30.812  1.00  0.00     0.009 A 
HETATM   30  C13 UNK     1      21.052   5.788  30.394  1.00  0.00     0.001 A 
HETATM   31  C15 UNK     1      22.027   6.151  31.324  1.00  0.00     0.000 A 
HETATM   32  C12 UNK     1      21.691   6.283  32.671  1.00  0.00     0.001 A 
HETATM   33  C9  UNK     1      20.381   6.052  33.089  1.00  0.00     0.009 A 
ENDBRANCH   1  28
TORSDOF 12
ENDMDL
MODEL 4
REMARK VINA RESULT:      -8.1      6.001     11.720
REMARK  12 active torsions:
REMARK  status: ('A' for Active; 'I' for Inactive)
REMARK    1  A    between atoms: C3_10  and  O1_1 
REMARK    2  A    between atoms: C4_11  and  O2_2 
REMARK    3  A    between atoms: C5_12  and  O3_3 
REMARK    4  A    between atoms: C1_8  and  N1_7 
REMARK    5  A    between atoms: C2_9  and  N1_7 
REMARK    6  A    between atoms: C1_8  and  C3_10 
REMARK    7  A    between atoms: C1_8  and  C4_11 
REMARK    8  A    between atoms: C1_8  and  C5_12 
REMARK    9  A    between atoms: C2_9  and  C6_13 
REMARK   10  A    between atoms: C2_9  and  C7_14 
REMARK   11  A    between atoms: C6_13  and  C8_15 
REMARK   12  A    between atoms: C11_18  and  C8_15 
ROOT
HETATM    1  C2  UNK     1      20.407  -6.159  37.124  1.00  0.00     0.262 C 
ENDROOT
BRANCH   1   2
HETATM    2  N1  UNK     1      19.147  -6.903  37.237  1.00  0.00     0.109 N 
HETATM    3  H2  UNK     1      19.070  -7.391  38.126  1.00  0.00     0.318 HD
BRANCH   2   4
HETATM    4  C1  UNK     1      18.978  -7.794  36.102  1.00  0.00     0.220 C 
BRANCH   4   5
HETATM    5  C3  UNK     1      17.775  -7.278  35.287  1.00  0.00     0.210 C 
BRANCH   5   6
HETATM    6  O1  UNK     1      16.726  -8.239  35.287  1.00  0.00    -0.398 OA
HETATM    7  H13 UNK     1      15.920  -7.787  35.590  1.00  0.00     0.209 HD
ENDBRANCH   5   6
ENDBRANCH   4   5
BRANCH   4   8
HETATM    8  C4  UNK     1      20.276  -7.795  35.266  1.00  0.00     0.210 C 
BRANCH   8   9
HETATM    9  O2  UNK     1      20.022  -7.387  33.927  1.00  0.00    -0.398 OA
HETATM   10  H14 UNK     1      20.406  -6.502  33.804  1.00  0.00     0.209 HD
ENDBRANCH   8   9
ENDBRANCH   4   8
BRANCH   4  11
HETATM   11  C5  UNK     1      18.737  -9.223  36.633  1.00  0.00     0.210 C 
BRANCH  11  12
HETATM   12  O3  UNK     1      18.232  -9.197  37.963  1.00  0.00    -0.398 OA
HETATM   13  H15 UNK     1      18.974  -8.976  38.550  1.00  0.00     0.209 HD
ENDBRANCH  11  12
ENDBRANCH   4  11
ENDBRANCH   2   4
ENDBRANCH   1   2
BRANCH   1  14
HETATM   14  C6  UNK     1      20.127  -4.644  37.174  1.00  0.00     0.124 C 
BRANCH  14  15
HETATM   15  C8  UNK     1      20.042  -4.006  35.794  1.00  0.00     0.168 C 
HETATM   16  O4  UNK     1      20.305  -4.619  34.758  1.00  0.00    -0.292 OA
BRANCH  15  17
HETATM   17  C11 UNK     1      19.585  -2.613  35.729  1.00  0.00     0.086 A 
HETATM   18  C14 UNK     1      18.957  -2.146  36.815  1.00  0.00     0.035 A 
HETATM   19  C17 UNK     1      18.466  -0.776  36.846  1.00  0.00    -0.001 A 
HETATM   20  C18 UNK     1      18.661   0.034  35.732  1.00  0.00     0.089 A 
HETATM   21  C19 UNK     1      17.807  -0.247  37.958  1.00  0.00     0.014 A 
HETATM   22  O5  UNK     1      19.323  -0.464  34.592  1.00  0.00    -0.274 OA
HETATM   23  C20 UNK     1      18.215   1.353  35.697  1.00  0.00     0.038 A 
HETATM   24  C16 UNK     1      19.803  -1.770  34.533  1.00  0.00     0.302 A 
HETATM   25  O6  UNK     1      20.377  -2.194  33.536  1.00  0.00    -0.259 OA
HETATM   26  C22 UNK     1      17.557   1.873  36.809  1.00  0.00     0.003 A 
HETATM   27  C21 UNK     1      17.353   1.076  37.937  1.00  0.00     0.001 A 
ENDBRANCH  15  17
ENDBRANCH  14  15
ENDBRANCH   1  14
BRANCH   1  28
HETATM   28  C7  UNK     1      21.398  -6.623  38.179  1.00  0.00    -0.025 A 
HETATM   29  C10 UNK     1      21.143  -7.794  38.866  1.00  0.00     0.009 A 
HETATM   30  C13 UNK     1      22.053  -8.220  39.834  1.00  0.00     0.001 A 
HETATM   31  C15 UNK     1      23.198  -7.467  40.096  1.00  0.00     0.000 A 
HETATM   32  C12 UNK     1      23.433  -6.288  39.389  1.00  0.00     0.001 A 
HETATM   33  C9  UNK     1      22.525  -5.862  38.421  1.00  0.00     0.009 A 
ENDBRANCH   1  28
TORSDOF 12
ENDMDL
MODEL 5
REMARK VINA RESULT:      -8.1     15.901     17.982
REMARK  12 active torsions:
REMARK  status: ('A' for Active; 'I' for Inactive)
REMARK    1  A    between atoms: C3_10  and  O1_1 
REMARK    2  A    between atoms: C4_11  and  O2_2 
REMARK    3  A    between atoms: C5_12  and  O3_3 
REMARK    4  A    between atoms: C1_8  and  N1_7 
REMARK    5  A    between atoms: C2_9  and  N1_7 
REMARK    6  A    between atoms: C1_8  and  C3_10 
REMARK    7  A    between atoms: C1_8  and  C4_11 
REMARK    8  A    between atoms: C1_8  and  C5_12 
REMARK    9  A    between atoms: C2_9  and  C6_13 
REMARK   10  A    between atoms: C2_9  and  C7_14 
REMARK   11  A    between atoms: C6_13  and  C8_15 
REMARK   12  A    between atoms: C11_18  and  C8_15 
ROOT
HETATM    1  C2  UNK     1      31.760  -5.809  35.289  1.00  0.00     0.262 C 
ENDROOT
BRANCH   1   2
HETATM    2  N1  UNK     1      32.982  -5.422  34.574  1.00  0.00     0.109 N 
HETATM    3  H2  UNK     1      32.803  -5.217  33.595  1.00  0.00     0.318 HD
BRANCH   2   4
HETATM    4  C1  UNK     1      34.015  -6.429  34.747  1.00  0.00     0.220 C 
BRANCH   4   5
HETATM    5  C3  UNK     1      33.317  -7.804  34.774  1.00  0.00     0.210 C 
BRANCH   5   6
HETATM    6  O1  UNK     1      34.264  -8.844  34.560  1.00  0.00    -0.398 OA
HETATM    7  H13 UNK     1      34.773  -8.613  33.764  1.00  0.00     0.209 HD
ENDBRANCH   5   6
ENDBRANCH   4   5
BRANCH   4   8
HETATM    8  C4  UNK     1      35.022  -6.321  33.582  1.00  0.00     0.210 C 
BRANCH   8   9
HETATM    9  O2  UNK     1      36.303  -6.807  33.967  1.00  0.00    -0.398 OA
HETATM   10  H14 UNK     1      36.970  -6.370  33.410  1.00  0.00     0.209 HD
ENDBRANCH   8   9
ENDBRANCH   4   8
BRANCH   4  11
HETATM   11  C5  UNK     1      34.762  -6.142  36.068  1.00  0.00     0.210 C 
BRANCH  11  12
HETATM   12  O3  UNK     1      35.037  -7.347  36.773  1.00  0.00    -0.398 OA
HETATM   13  H15 UNK     1      34.568  -8.064  36.315  1.00  0.00     0.209 HD
ENDBRANCH  11  12
ENDBRANCH   4  11
ENDBRANCH   2   4
ENDBRANCH   1   2
BRANCH   1  14
HETATM   14  C6  UNK     1      31.523  -4.856  36.476  1.00  0.00     0.124 C 
BRANCH  14  15
HETATM   15  C8  UNK     1      31.714  -5.527  37.830  1.00  0.00     0.168 C 
HETATM   16  O4  UNK     1      32.511  -5.114  38.673  1.00  0.00    -0.292 OA
BRANCH  15  17
HETATM   17  C11 UNK     1      30.868  -6.690  38.124  1.00  0.00     0.086 A 
HETATM   18  C14 UNK     1      29.573  -6.436  38.350  1.00  0.00     0.035 A 
HETATM   19  C17 UNK     1      28.655  -7.524  38.651  1.00  0.00    -0.001 A 
HETATM   20  C18 UNK     1      29.145  -8.825  38.700  1.00  0.00     0.089 A 
HETATM   21  C19 UNK     1      27.296  -7.306  38.893  1.00  0.00     0.014 A 
HETATM   22  O5  UNK     1      30.509  -9.086  38.460  1.00  0.00    -0.274 OA
HETATM   23  C20 UNK     1      28.320  -9.911  38.983  1.00  0.00     0.038 A 
HETATM   24  C16 UNK     1      31.411  -8.065  38.170  1.00  0.00     0.302 A 
HETATM   25  O6  UNK     1      32.597  -8.301  37.964  1.00  0.00    -0.259 OA
HETATM   26  C22 UNK     1      26.966  -9.685  39.224  1.00  0.00     0.003 A 
HETATM   27  C21 UNK     1      26.455  -8.386  39.179  1.00  0.00     0.001 A 
ENDBRANCH  15  17
ENDBRANCH  14  15
ENDBRANCH   1  14
BRANCH   1  28
HETATM   28  C7  UNK     1      30.582  -5.883  34.332  1.00  0.00    -0.025 A 
HETATM   29  C10 UNK     1      29.393  -6.430  34.774  1.00  0.00     0.009 A 
HETATM   30  C13 UNK     1      28.312  -6.498  33.895  1.00  0.00     0.001 A 
HETATM   31  C15 UNK     1      28.442  -6.019  32.591  1.00  0.00     0.000 A 
HETATM   32  C12 UNK     1      29.653  -5.471  32.167  1.00  0.00     0.001 A 
HETATM   33  C9  UNK     1      30.733  -5.403  33.045  1.00  0.00     0.009 A 
ENDBRANCH   1  28
TORSDOF 12
ENDMDL
MODEL 6
REMARK VINA RESULT:      -8.1     15.534     18.153
REMARK  12 active torsions:
REMARK  status: ('A' for Active; 'I' for Inactive)
REMARK    1  A    between atoms: C3_10  and  O1_1 
REMARK    2  A    between atoms: C4_11  and  O2_2 
REMARK    3  A    between atoms: C5_12  and  O3_3 
REMARK    4  A    between atoms: C1_8  and  N1_7 
REMARK    5  A    between atoms: C2_9  and  N1_7 
REMARK    6  A    between atoms: C1_8  and  C3_10 
REMARK    7  A    between atoms: C1_8  and  C4_11 
REMARK    8  A    between atoms: C1_8  and  C5_12 
REMARK    9  A    between atoms: C2_9  and  C6_13 
REMARK   10  A    between atoms: C2_9  and  C7_14 
REMARK   11  A    between atoms: C6_13  and  C8_15 
REMARK   12  A    between atoms: C11_18  and  C8_15 
ROOT
HETATM    1  C2  UNK     1      33.116  -6.309  37.016  1.00  0.00     0.262 C 
ENDROOT
BRANCH   1   2
HETATM    2  N1  UNK     1      33.034  -5.722  35.674  1.00  0.00     0.109 N 
HETATM    3  H2  UNK     1      32.395  -6.235  35.071  1.00  0.00     0.318 HD
BRANCH   2   4
HETATM    4  C1  UNK     1      34.359  -5.594  35.092  1.00  0.00     0.220 C 
BRANCH   4   5
HETATM    5  C3  UNK     1      35.376  -6.054  36.156  1.00  0.00     0.210 C 
BRANCH   5   6
HETATM    6  O1  UNK     1      36.118  -7.171  35.682  1.00  0.00    -0.398 OA
HETATM    7  H13 UNK     1      36.860  -7.306  36.296  1.00  0.00     0.209 HD
ENDBRANCH   5   6
ENDBRANCH   4   5
BRANCH   4   8
HETATM    8  C4  UNK     1      34.434  -6.461  33.817  1.00  0.00     0.210 C 
BRANCH   8   9
HETATM    9  O2  UNK     1      35.522  -6.063  32.991  1.00  0.00    -0.398 OA
HETATM   10  H14 UNK     1      35.296  -6.283  32.070  1.00  0.00     0.209 HD
ENDBRANCH   8   9
ENDBRANCH   4   8
BRANCH   4  11
HETATM   11  C5  UNK     1      34.578  -4.119  34.693  1.00  0.00     0.210 C 
BRANCH  11  12
HETATM   12  O3  UNK     1      33.768  -3.250  35.477  1.00  0.00    -0.398 OA
HETATM   13  H15 UNK     1      33.124  -2.836  34.879  1.00  0.00     0.209 HD
ENDBRANCH  11  12
ENDBRANCH   4  11
ENDBRANCH   2   4
ENDBRANCH   1   2
BRANCH   1  14
HETATM   14  C6  UNK     1      32.537  -5.327  38.054  1.00  0.00     0.124 C 
BRANCH  14  15
HETATM   15  C8  UNK     1      31.264  -4.639  37.579  1.00  0.00     0.168 C 
HETATM   16  O4  UNK     1      31.274  -3.625  36.880  1.00  0.00    -0.292 OA
BRANCH  15  17
HETATM   17  C11 UNK     1      29.988  -5.261  37.956  1.00  0.00     0.086 A 
HETATM   18  C14 UNK     1      29.568  -6.266  37.177  1.00  0.00     0.035 A 
HETATM   19  C17 UNK     1      28.315  -6.944  37.469  1.00  0.00    -0.001 A 
HETATM   20  C18 UNK     1      27.565  -6.531  38.566  1.00  0.00     0.089 A 
HETATM   21  C19 UNK     1      27.838  -7.997  36.685  1.00  0.00     0.014 A 
HETATM   22  O5  UNK     1      28.013  -5.473  39.382  1.00  0.00    -0.274 OA
HETATM   23  C20 UNK     1      26.356  -7.138  38.900  1.00  0.00     0.038 A 
HETATM   24  C16 UNK     1      29.208  -4.805  39.127  1.00  0.00     0.302 A 
HETATM   25  O6  UNK     1      29.589  -3.885  39.842  1.00  0.00    -0.259 OA
HETATM   26  C22 UNK     1      25.888  -8.188  38.112  1.00  0.00     0.003 A 
HETATM   27  C21 UNK     1      26.626  -8.616  37.008  1.00  0.00     0.001 A 
ENDBRANCH  15  17
ENDBRANCH  14  15
ENDBRANCH   1  14
BRANCH   1  28
HETATM   28  C7  UNK     1      32.451  -7.675  37.043  1.00  0.00    -0.025 A 
HETATM   29  C10 UNK     1      32.239  -8.339  35.851  1.00  0.00     0.009 A 
HETATM   30  C13 UNK     1      31.628  -9.594  35.876  1.00  0.00     0.001 A 
HETATM   31  C15 UNK     1      31.242 -10.158  37.092  1.00  0.00     0.000 A 
HETATM   32  C12 UNK     1      31.466  -9.467  38.283  1.00  0.00     0.001 A 
HETATM   33  C9  UNK     1      32.077  -8.214  38.259  1.00  0.00     0.009 A 
ENDBRANCH   1  28
TORSDOF 12
ENDMDL
MODEL 7
REMARK VINA RESULT:      -8.0     16.273     19.132
REMARK  12 active torsions:
REMARK  status: ('A' for Active; 'I' for Inactive)
REMARK    1  A    between atoms: C3_10  and  O1_1 
REMARK    2  A    between atoms: C4_11  and  O2_2 
REMARK    3  A    between atoms: C5_12  and  O3_3 
REMARK    4  A    between atoms: C1_8  and  N1_7 
REMARK    5  A    between atoms: C2_9  and  N1_7 
REMARK    6  A    between atoms: C1_8  and  C3_10 
REMARK    7  A    between atoms: C1_8  and  C4_11 
REMARK    8  A    between atoms: C1_8  and  C5_12 
REMARK    9  A    between atoms: C2_9  and  C6_13 
REMARK   10  A    between atoms: C2_9  and  C7_14 
REMARK   11  A    between atoms: C6_13  and  C8_15 
REMARK   12  A    between atoms: C11_18  and  C8_15 
ROOT
HETATM    1  C2  UNK     1      20.268  -3.333  15.404  1.00  0.00     0.262 C 
ENDROOT
BRANCH   1   2
HETATM    2  N1  UNK     1      21.705  -3.266  15.112  1.00  0.00     0.109 N 
HETATM    3  H2  UNK     1      21.944  -3.750  14.251  1.00  0.00     0.318 HD
BRANCH   2   4
HETATM    4  C1  UNK     1      22.478  -3.744  16.246  1.00  0.00     0.220 C 
BRANCH   4   5
HETATM    5  C3  UNK     1      21.867  -3.118  17.516  1.00  0.00     0.210 C 
BRANCH   5   6
HETATM    6  O1  UNK     1      22.338  -3.793  18.677  1.00  0.00    -0.398 OA
HETATM    7  H13 UNK     1      22.635  -4.676  18.397  1.00  0.00     0.209 HD
ENDBRANCH   5   6
ENDBRANCH   4   5
BRANCH   4   8
HETATM    8  C4  UNK     1      22.416  -5.286  16.282  1.00  0.00     0.210 C 
BRANCH   8   9
HETATM    9  O2  UNK     1      23.432  -5.819  17.124  1.00  0.00    -0.398 OA
HETATM   10  H14 UNK     1      24.103  -6.237  16.558  1.00  0.00     0.209 HD
ENDBRANCH   8   9
ENDBRANCH   4   8
BRANCH   4  11
HETATM   11  C5  UNK     1      23.949  -3.317  16.050  1.00  0.00     0.210 C 
BRANCH  11  12
HETATM   12  O3  UNK     1      24.518  -2.864  17.273  1.00  0.00    -0.398 OA
HETATM   13  H15 UNK     1      23.825  -2.385  17.755  1.00  0.00     0.209 HD
ENDBRANCH  11  12
ENDBRANCH   4  11
ENDBRANCH   2   4
ENDBRANCH   1   2
BRANCH   1  14
HETATM   14  C6  UNK     1      19.588  -2.012  14.997  1.00  0.00     0.124 C 
BRANCH  14  15
HETATM   15  C8  UNK     1      18.515  -1.565  15.980  1.00  0.00     0.168 C 
HETATM   16  O4  UNK     1      17.414  -2.112  16.061  1.00  0.00    -0.292 OA
BRANCH  15  17
HETATM   17  C11 UNK     1      18.854  -0.458  16.883  1.00  0.00     0.086 A 
HETATM   18  C14 UNK     1      18.868  -0.745  18.190  1.00  0.00     0.035 A 
HETATM   19  C17 UNK     1      19.191   0.287  19.163  1.00  0.00    -0.001 A 
HETATM   20  C18 UNK     1      19.485   1.570  18.712  1.00  0.00     0.089 A 
HETATM   21  C19 UNK     1      19.218   0.033  20.537  1.00  0.00     0.014 A 
HETATM   22  O5  UNK     1      19.470   1.865  17.334  1.00  0.00    -0.274 OA
HETATM   23  C20 UNK     1      19.803   2.603  19.591  1.00  0.00     0.038 A 
HETATM   24  C16 UNK     1      19.163   0.898  16.380  1.00  0.00     0.302 A 
HETATM   25  O6  UNK     1      19.151   1.165  15.183  1.00  0.00    -0.259 OA
HETATM   26  C22 UNK     1      19.826   2.341  20.959  1.00  0.00     0.003 A 
HETATM   27  C21 UNK     1      19.535   1.060  21.431  1.00  0.00     0.001 A 
ENDBRANCH  15  17
ENDBRANCH  14  15
ENDBRANCH   1  14
BRANCH   1  28
HETATM   28  C7  UNK     1      19.648  -4.556  14.748  1.00  0.00    -0.025 A 
HETATM   29  C10 UNK     1      18.763  -5.329  15.475  1.00  0.00     0.009 A 
HETATM   30  C13 UNK     1      18.193  -6.451  14.873  1.00  0.00     0.001 A 
HETATM   31  C15 UNK     1      18.521  -6.779  13.557  1.00  0.00     0.000 A 
HETATM   32  C12 UNK     1      19.418  -5.984  12.843  1.00  0.00     0.001 A 
HETATM   33  C9  UNK     1      19.987  -4.862  13.444  1.00  0.00     0.009 A 
ENDBRANCH   1  28
TORSDOF 12
ENDMDL
MODEL 8
REMARK VINA RESULT:      -8.0      5.081      7.349
REMARK  12 active torsions:
REMARK  status: ('A' for Active; 'I' for Inactive)
REMARK    1  A    between atoms: C3_10  and  O1_1 
REMARK    2  A    between atoms: C4_11  and  O2_2 
REMARK    3  A    between atoms: C5_12  and  O3_3 
REMARK    4  A    between atoms: C1_8  and  N1_7 
REMARK    5  A    between atoms: C2_9  and  N1_7 
REMARK    6  A    between atoms: C1_8  and  C3_10 
REMARK    7  A    between atoms: C1_8  and  C4_11 
REMARK    8  A    between atoms: C1_8  and  C5_12 
REMARK    9  A    between atoms: C2_9  and  C6_13 
REMARK   10  A    between atoms: C2_9  and  C7_14 
REMARK   11  A    between atoms: C6_13  and  C8_15 
REMARK   12  A    between atoms: C11_18  and  C8_15 
ROOT
HETATM    1  C2  UNK     1      19.186  -1.077  33.344  1.00  0.00     0.262 C 
ENDROOT
BRANCH   1   2
HETATM    2  N1  UNK     1      17.743  -1.125  33.609  1.00  0.00     0.109 N 
HETATM    3  H2  UNK     1      17.197  -0.824  32.806  1.00  0.00     0.318 HD
BRANCH   2   4
HETATM    4  C1  UNK     1      17.420  -0.373  34.809  1.00  0.00     0.220 C 
BRANCH   4   5
HETATM    5  C3  UNK     1      17.321  -1.382  35.972  1.00  0.00     0.210 C 
BRANCH   5   6
HETATM    6  O1  UNK     1      17.799  -0.797  37.178  1.00  0.00    -0.398 OA
HETATM    7  H13 UNK     1      17.257  -1.150  37.904  1.00  0.00     0.209 HD
ENDBRANCH   5   6
ENDBRANCH   4   5
BRANCH   4   8
HETATM    8  C4  UNK     1      18.525   0.677  35.056  1.00  0.00     0.210 C 
BRANCH   8   9
HETATM    9  O2  UNK     1      18.042   1.747  35.861  1.00  0.00    -0.398 OA
HETATM   10  H14 UNK     1      18.588   2.531  35.677  1.00  0.00     0.209 HD
ENDBRANCH   8   9
ENDBRANCH   4   8
BRANCH   4  11
HETATM   11  C5  UNK     1      16.085   0.366  34.580  1.00  0.00     0.210 C 
BRANCH  11  12
HETATM   12  O3  UNK     1      15.317   0.422  35.777  1.00  0.00    -0.398 OA
HETATM   13  H15 UNK     1      15.925   0.266  36.518  1.00  0.00     0.209 HD
ENDBRANCH  11  12
ENDBRANCH   4  11
ENDBRANCH   2   4
ENDBRANCH   1   2
BRANCH   1  14
HETATM   14  C6  UNK     1      19.826  -2.438  33.680  1.00  0.00     0.124 C 
BRANCH  14  15
HETATM   15  C8  UNK     1      20.471  -2.471  35.059  1.00  0.00     0.168 C 
HETATM   16  O4  UNK     1      21.136  -1.535  35.507  1.00  0.00    -0.292 OA
BRANCH  15  17
HETATM   17  C11 UNK     1      20.236  -3.666  35.879  1.00  0.00     0.086 A 
HETATM   18  C14 UNK     1      20.183  -4.831  35.222  1.00  0.00     0.035 A 
HETATM   19  C17 UNK     1      19.954  -6.071  35.948  1.00  0.00    -0.001 A 
HETATM   20  C18 UNK     1      19.791  -6.023  37.329  1.00  0.00     0.089 A 
HETATM   21  C19 UNK     1      19.892  -7.309  35.305  1.00  0.00     0.014 A 
HETATM   22  O5  UNK     1      19.848  -4.793  38.014  1.00  0.00    -0.274 OA
HETATM   23  C20 UNK     1      19.568  -7.173  38.082  1.00  0.00     0.038 A 
HETATM   24  C16 UNK     1      20.066  -3.590  37.347  1.00  0.00     0.302 A 
HETATM   25  O6  UNK     1      20.113  -2.525  37.951  1.00  0.00    -0.259 OA
HETATM   26  C22 UNK     1      19.507  -8.404  37.432  1.00  0.00     0.003 A 
HETATM   27  C21 UNK     1      19.668  -8.473  36.047  1.00  0.00     0.001 A 
ENDBRANCH  15  17
ENDBRANCH  14  15
ENDBRANCH   1  14
BRANCH   1  28
HETATM   28  C7  UNK     1      19.452  -0.623  31.918  1.00  0.00    -0.025 A 
HETATM   29  C10 UNK     1      19.017   0.627  31.522  1.00  0.00     0.009 A 
HETATM   30  C13 UNK     1      19.261   1.044  30.213  1.00  0.00     0.001 A 
HETATM   31  C15 UNK     1      19.934   0.203  29.327  1.00  0.00     0.000 A 
HETATM   32  C12 UNK     1      20.363  -1.055  29.750  1.00  0.00     0.001 A 
HETATM   33  C9  UNK     1      20.120  -1.472  31.058  1.00  0.00     0.009 A 
ENDBRANCH   1  28
TORSDOF 12
ENDMDL
MODEL 9
REMARK VINA RESULT:      -7.9     15.514     18.362
REMARK  12 active torsions:
REMARK  status: ('A' for Active; 'I' for Inactive)
REMARK    1  A    between atoms: C3_10  and  O1_1 
REMARK    2  A    between atoms: C4_11  and  O2_2 
REMARK    3  A    between atoms: C5_12  and  O3_3 
REMARK    4  A    between atoms: C1_8  and  N1_7 
REMARK    5  A    between atoms: C2_9  and  N1_7 
REMARK    6  A    between atoms: C1_8  and  C3_10 
REMARK    7  A    between atoms: C1_8  and  C4_11 
REMARK    8  A    between atoms: C1_8  and  C5_12 
REMARK    9  A    between atoms: C2_9  and  C6_13 
REMARK   10  A    between atoms: C2_9  and  C7_14 
REMARK   11  A    between atoms: C6_13  and  C8_15 
REMARK   12  A    between atoms: C11_18  and  C8_15 
ROOT
HETATM    1  C2  UNK     1      29.551  -9.815  31.602  1.00  0.00     0.262 C 
ENDROOT
BRANCH   1   2
HETATM    2  N1  UNK     1      30.938  -9.355  31.469  1.00  0.00     0.109 N 
HETATM    3  H2  UNK     1      31.015  -8.344  31.544  1.00  0.00     0.318 HD
BRANCH   2   4
HETATM    4  C1  UNK     1      31.529  -9.863  30.242  1.00  0.00     0.220 C 
BRANCH   4   5
HETATM    5  C3  UNK     1      31.602  -8.688  29.246  1.00  0.00     0.210 C 
BRANCH   5   6
HETATM    6  O1  UNK     1      32.592  -8.940  28.255  1.00  0.00    -0.398 OA
HETATM    7  H13 UNK     1      33.455  -8.721  28.648  1.00  0.00     0.209 HD
ENDBRANCH   5   6
ENDBRANCH   4   5
BRANCH   4   8
HETATM    8  C4  UNK     1      32.928 -10.434  30.557  1.00  0.00     0.210 C 
BRANCH   8   9
HETATM    9  O2  UNK     1      33.266 -11.484  29.658  1.00  0.00    -0.398 OA
HETATM   10  H14 UNK     1      34.226 -11.631  29.715  1.00  0.00     0.209 HD
ENDBRANCH   8   9
ENDBRANCH   4   8
BRANCH   4  11
HETATM   11  C5  UNK     1      30.641 -11.008  29.710  1.00  0.00     0.210 C 
BRANCH  11  12
HETATM   12  O3  UNK     1      30.649 -11.044  28.287  1.00  0.00    -0.398 OA
HETATM   13  H15 UNK     1      30.588 -11.977  28.021  1.00  0.00     0.209 HD
ENDBRANCH  11  12
ENDBRANCH   4  11
ENDBRANCH   2   4
ENDBRANCH   1   2
BRANCH   1  14
HETATM   14  C6  UNK     1      29.360 -10.519  32.959  1.00  0.00     0.124 C 
BRANCH  14  15
HETATM   15  C8  UNK     1      30.521 -10.292  33.918  1.00  0.00     0.168 C 
HETATM   16  O4  UNK     1      31.587 -10.903  33.833  1.00  0.00    -0.292 OA
BRANCH  15  17
HETATM   17  C11 UNK     1      30.341  -9.266  34.952  1.00  0.00     0.086 A 
HETATM   18  C14 UNK     1      29.487  -9.564  35.939  1.00  0.00     0.035 A 
HETATM   19  C17 UNK     1      29.242  -8.610  37.010  1.00  0.00    -0.001 A 
HETATM   20  C18 UNK     1      29.908  -7.389  36.989  1.00  0.00     0.089 A 
HETATM   21  C19 UNK     1      28.360  -8.879  38.059  1.00  0.00     0.014 A 
HETATM   22  O5  UNK     1      30.806  -7.081  35.948  1.00  0.00    -0.274 OA
HETATM   23  C20 UNK     1      29.718  -6.432  37.984  1.00  0.00     0.038 A 
HETATM   24  C16 UNK     1      31.061  -7.974  34.910  1.00  0.00     0.302 A 
HETATM   25  O6  UNK     1      31.843  -7.697  34.008  1.00  0.00    -0.259 OA
HETATM   26  C22 UNK     1      28.836  -6.708  39.026  1.00  0.00     0.003 A 
HETATM   27  C21 UNK     1      28.158  -7.928  39.064  1.00  0.00     0.001 A 
ENDBRANCH  15  17
ENDBRANCH  14  15
ENDBRANCH   1  14
BRANCH   1  28
HETATM   28  C7  UNK     1      28.584  -8.664  31.379  1.00  0.00    -0.025 A 
HETATM   29  C10 UNK     1      27.736  -8.704  30.289  1.00  0.00     0.009 A 
HETATM   30  C13 UNK     1      26.848  -7.647  30.086  1.00  0.00     0.001 A 
HETATM   31  C15 UNK     1      26.826  -6.572  30.975  1.00  0.00     0.000 A 
HETATM   32  C12 UNK     1      27.692  -6.554  32.068  1.00  0.00     0.001 A 
HETATM   33  C9  UNK     1      28.579  -7.610  32.272  1.00  0.00     0.009 A 
ENDBRANCH   1  28
TORSDOF 12
ENDMDL
MODEL 10
REMARK VINA RESULT:      -7.9     15.525     18.347
REMARK  12 active torsions:
REMARK  status: ('A' for Active; 'I' for Inactive)
REMARK    1  A    between atoms: C3_10  and  O1_1 
REMARK    2  A    between atoms: C4_11  and  O2_2 
REMARK    3  A    between atoms: C5_12  and  O3_3 
REMARK    4  A    between atoms: C1_8  and  N1_7 
REMARK    5  A    between atoms: C2_9  and  N1_7 
REMARK    6  A    between atoms: C1_8  and  C3_10 
REMARK    7  A    between atoms: C1_8  and  C4_11 
REMARK    8  A    between atoms: C1_8  and  C5_12 
REMARK    9  A    between atoms: C2_9  and  C6_13 
REMARK   10  A    between atoms: C2_9  and  C7_14 
REMARK   11  A    between atoms: C6_13  and  C8_15 
REMARK   12  A    between atoms: C11_18  and  C8_15 
ROOT
HETATM    1  C2  UNK     1      29.546  -9.829  31.650  1.00  0.00     0.262 C 
ENDROOT
BRANCH   1   2
HETATM    2  N1  UNK     1      30.935  -9.371  31.534  1.00  0.00     0.109 N 
HETATM    3  H2  UNK     1      31.013  -8.360  31.620  1.00  0.00     0.318 HD
BRANCH   2   4
HETATM    4  C1  UNK     1      31.536  -9.868  30.308  1.00  0.00     0.220 C 
BRANCH   4   5
HETATM    5  C3  UNK     1      30.622 -10.987  29.769  1.00  0.00     0.210 C 
BRANCH   5   6
HETATM    6  O1  UNK     1      30.735 -11.080  28.354  1.00  0.00    -0.398 OA
HETATM    7  H13 UNK     1      31.561 -11.556  28.161  1.00  0.00     0.209 HD
ENDBRANCH   5   6
ENDBRANCH   4   5
BRANCH   4   8
HETATM    8  C4  UNK     1      31.667  -8.703  29.304  1.00  0.00     0.210 C 
BRANCH   8   9
HETATM    9  O2  UNK     1      32.642  -8.993  28.309  1.00  0.00    -0.398 OA
HETATM   10  H14 UNK     1      33.202  -8.205  28.199  1.00  0.00     0.209 HD
ENDBRANCH   8   9
ENDBRANCH   4   8
BRANCH   4  11
HETATM   11  C5  UNK     1      32.950 -10.394  30.635  1.00  0.00     0.210 C 
BRANCH  11  12
HETATM   12  O3  UNK     1      33.355 -11.390  29.703  1.00  0.00    -0.398 OA
HETATM   13  H15 UNK     1      33.909 -10.954  29.035  1.00  0.00     0.209 HD
ENDBRANCH  11  12
ENDBRANCH   4  11
ENDBRANCH   2   4
ENDBRANCH   1   2
BRANCH   1  14
HETATM   14  C6  UNK     1      29.339 -10.540  33.001  1.00  0.00     0.124 C 
BRANCH  14  15
HETATM   15  C8  UNK     1      30.495 -10.329  33.970  1.00  0.00     0.168 C 
HETATM   16  O4  UNK     1      31.546 -10.969  33.904  1.00  0.00    -0.292 OA
BRANCH  15  17
HETATM   17  C11 UNK     1      30.332  -9.285  34.988  1.00  0.00     0.086 A 
HETATM   18  C14 UNK     1      29.460  -9.548  35.970  1.00  0.00     0.035 A 
HETATM   19  C17 UNK     1      29.228  -8.573  37.025  1.00  0.00    -0.001 A 
HETATM   20  C18 UNK     1      29.926  -7.369  36.995  1.00  0.00     0.089 A 
HETATM   21  C19 UNK     1      28.329  -8.805  38.068  1.00  0.00     0.014 A 
HETATM   22  O5  UNK     1      30.843  -7.099  35.959  1.00  0.00    -0.274 OA
HETATM   23  C20 UNK     1      29.750  -6.394  37.974  1.00  0.00     0.038 A 
HETATM   24  C16 UNK     1      31.085  -8.012  34.936  1.00  0.00     0.302 A 
HETATM   25  O6  UNK     1      31.883  -7.768  34.039  1.00  0.00    -0.259 OA
HETATM   26  C22 UNK     1      28.851  -6.633  39.011  1.00  0.00     0.003 A 
HETATM   27  C21 UNK     1      28.142  -7.835  39.058  1.00  0.00     0.001 A 
ENDBRANCH  15  17
ENDBRANCH  14  15
ENDBRANCH   1  14
BRANCH   1  28
HETATM   28  C7  UNK     1      28.583  -8.676  31.423  1.00  0.00    -0.025 A 
HETATM   29  C10 UNK     1      28.561  -7.634  32.330  1.00  0.00     0.009 A 
HETATM   30  C13 UNK     1      27.677  -6.575  32.121  1.00  0.00     0.001 A 
HETATM   31  C15 UNK     1      26.832  -6.579  31.011  1.00  0.00     0.000 A 
HETATM   32  C12 UNK     1      26.872  -7.643  30.109  1.00  0.00     0.001 A 
HETATM   33  C9  UNK     1      27.756  -8.701  30.317  1.00  0.00     0.009 A 
ENDBRANCH   1  28
TORSDOF 12
ENDMDL
