MODEL 1
REMARK VINA RESULT:      -9.4      0.000      0.000
REMARK  8 active torsions:
REMARK  status: ('A' for Active; 'I' for Inactive)
REMARK    1  A    between atoms: C5_17  and  O1_4 
REMARK    2  A    between atoms: C7_19  and  O1_4 
REMARK    3  A    between atoms: C6_18  and  O2_5 
REMARK    4  A    between atoms: C8_20  and  O2_5 
REMARK       I    between atoms: C6_18  and  N1_12 
REMARK    5  A    between atoms: C1_13  and  C5_17 
REMARK    6  A    between atoms: C18_30  and  C8_20 
REMARK    7  A    between atoms: C13_25  and  C16_28 
REMARK    8  A    between atoms: C17_29  and  C23_35 
ROOT
HETATM    1  O5  UNK     1      28.803  -8.152  38.860  1.00  0.00    -0.304 OA
HETATM    2  O8  UNK     1      26.070  -5.214  38.189  1.00  0.00    -0.286 OA
HETATM    3  C7  UNK     1      31.071  -5.326  38.503  1.00  0.00     0.082 A 
HETATM    4  C9  UNK     1      30.589  -6.619  38.699  1.00  0.00     0.075 A 
HETATM    5  C10 UNK     1      29.215  -6.863  38.660  1.00  0.00     0.093 A 
HETATM    6  C11 UNK     1      28.330  -5.817  38.427  1.00  0.00     0.049 A 
HETATM    7  C12 UNK     1      30.182  -4.277  38.268  1.00  0.00     0.038 A 
HETATM    8  C13 UNK     1      26.482  -7.518  38.618  1.00  0.00     0.064 A 
HETATM    9  C14 UNK     1      28.809  -4.519  38.229  1.00  0.00     0.021 A 
HETATM   10  C15 UNK     1      26.890  -6.102  38.392  1.00  0.00     0.198 A 
HETATM   11  C17 UNK     1      27.445  -8.440  38.832  1.00  0.00     0.174 A 
ENDROOT
BRANCH   3  12
HETATM   12  O1  UNK     1      32.446  -5.080  38.540  1.00  0.00    -0.277 OA
BRANCH  12  13
HETATM   13  C5  UNK     1      33.170  -5.956  37.739  1.00  0.00     0.287 C 
HETATM   14  O3  UNK     1      33.983  -6.794  38.108  1.00  0.00    -0.262 OA
BRANCH  13  15
HETATM   15  C1  UNK     1      32.799  -5.716  36.307  1.00  0.00     0.189 C 
HETATM   16  N1  UNK     1      33.684  -6.536  35.493  1.00  0.00    -0.314 N 
HETATM   17  C4  UNK     1      34.673  -5.722  34.793  1.00  0.00     0.129 C 
HETATM   18  C6  UNK     1      33.493  -7.895  35.293  1.00  0.00     0.363 C 
HETATM   19  C3  UNK     1      34.557  -4.345  35.427  1.00  0.00     0.022 C 
HETATM   20  C2  UNK     1      33.098  -4.285  35.875  1.00  0.00     0.037 C 
HETATM   21  O4  UNK     1      34.139  -8.577  34.499  1.00  0.00    -0.238 OA
BRANCH  18  22
HETATM   22  O2  UNK     1      32.494  -8.394  36.086  1.00  0.00    -0.299 OA
BRANCH  22  23
HETATM   23  C8  UNK     1      31.594  -9.313  35.458  1.00  0.00     0.219 C 
BRANCH  23  24
HETATM   24  C18 UNK     1      30.243  -8.672  35.339  1.00  0.00    -0.034 A 
HETATM   25  C27 UNK     1      29.091  -9.434  35.530  1.00  0.00     0.009 A 
HETATM   26  C29 UNK     1      27.834  -8.839  35.420  1.00  0.00     0.001 A 
HETATM   27  C31 UNK     1      27.730  -7.482  35.118  1.00  0.00     0.000 A 
HETATM   28  C30 UNK     1      28.882  -6.718  34.926  1.00  0.00     0.001 A 
HETATM   29  C28 UNK     1      30.138  -7.314  35.037  1.00  0.00     0.009 A 
ENDBRANCH  23  24
ENDBRANCH  22  23
ENDBRANCH  18  22
ENDBRANCH  13  15
ENDBRANCH  12  13
ENDBRANCH   3  12
BRANCH  11  30
HETATM   30  C23 UNK     1      27.191  -9.902  39.074  1.00  0.00     0.440 C 
HETATM   31  F1  UNK     1      28.338 -10.541  39.372  1.00  0.00    -0.164 F 
HETATM   32  F2  UNK     1      26.337 -10.076  40.100  1.00  0.00    -0.164 F 
HETATM   33  F3  UNK     1      26.658 -10.486  37.984  1.00  0.00    -0.164 F 
ENDBRANCH  11  30
BRANCH   8  34
HETATM   34  C16 UNK     1      25.067  -7.865  38.597  1.00  0.00    -0.016 A 
HETATM   35  C19 UNK     1      24.517  -8.480  37.473  1.00  0.00     0.052 A 
HETATM   36  C20 UNK     1      23.163  -8.818  37.460  1.00  0.00     0.102 A 
HETATM   37  O6  UNK     1      22.686  -9.439  36.335  1.00  0.00    -0.346 OA
HETATM   38  C22 UNK     1      22.356  -8.514  38.558  1.00  0.00     0.102 A 
HETATM   39  C25 UNK     1      21.408 -10.041  36.560  1.00  0.00     0.202 C 
HETATM   40  C26 UNK     1      20.494  -9.077  37.291  1.00  0.00     0.202 C 
HETATM   41  O7  UNK     1      21.014  -8.792  38.593  1.00  0.00    -0.346 OA
HETATM   42  C24 UNK     1      22.910  -7.911  39.688  1.00  0.00     0.040 A 
HETATM   43  C21 UNK     1      24.266  -7.586  39.706  1.00  0.00     0.015 A 
ENDBRANCH   8  34
TORSDOF 8
ENDMDL
MODEL 2
REMARK VINA RESULT:      -9.3      2.305      4.316
REMARK  8 active torsions:
REMARK  status: ('A' for Active; 'I' for Inactive)
REMARK    1  A    between atoms: C5_17  and  O1_4 
REMARK    2  A    between atoms: C7_19  and  O1_4 
REMARK    3  A    between atoms: C6_18  and  O2_5 
REMARK    4  A    between atoms: C8_20  and  O2_5 
REMARK       I    between atoms: C6_18  and  N1_12 
REMARK    5  A    between atoms: C1_13  and  C5_17 
REMARK    6  A    between atoms: C18_30  and  C8_20 
REMARK    7  A    between atoms: C13_25  and  C16_28 
REMARK    8  A    between atoms: C17_29  and  C23_35 
ROOT
HETATM    1  O5  UNK     1      25.345 -10.246  36.613  1.00  0.00    -0.304 OA
HETATM    2  O8  UNK     1      24.214  -7.019  38.817  1.00  0.00    -0.286 OA
HETATM    3  C7  UNK     1      28.621  -9.173  37.789  1.00  0.00     0.082 A 
HETATM    4  C9  UNK     1      27.616  -9.894  37.143  1.00  0.00     0.075 A 
HETATM    5  C10 UNK     1      26.285  -9.498  37.270  1.00  0.00     0.093 A 
HETATM    6  C11 UNK     1      25.960  -8.385  38.037  1.00  0.00     0.049 A 
HETATM    7  C12 UNK     1      28.294  -8.057  38.558  1.00  0.00     0.038 A 
HETATM    8  C13 UNK     1      23.557  -8.834  37.426  1.00  0.00     0.064 A 
HETATM    9  C14 UNK     1      26.962  -7.659  38.685  1.00  0.00     0.021 A 
HETATM   10  C15 UNK     1      24.550  -7.992  38.153  1.00  0.00     0.198 A 
HETATM   11  C17 UNK     1      24.007  -9.888  36.712  1.00  0.00     0.174 A 
ENDROOT
BRANCH   3  12
HETATM   12  O1  UNK     1      29.955  -9.568  37.663  1.00  0.00    -0.277 OA
BRANCH  12  13
HETATM   13  C5  UNK     1      30.572  -9.026  36.541  1.00  0.00     0.287 C 
HETATM   14  O3  UNK     1      30.238  -8.020  35.928  1.00  0.00    -0.262 OA
BRANCH  13  15
HETATM   15  C1  UNK     1      31.744  -9.885  36.176  1.00  0.00     0.189 C 
HETATM   16  N1  UNK     1      32.611  -9.085  35.322  1.00  0.00    -0.314 N 
HETATM   17  C4  UNK     1      32.558  -9.536  33.935  1.00  0.00     0.129 C 
HETATM   18  C6  UNK     1      33.489  -8.129  35.811  1.00  0.00     0.363 C 
HETATM   19  C3  UNK     1      31.382 -10.499  33.888  1.00  0.00     0.022 C 
HETATM   20  C2  UNK     1      31.334 -11.067  35.305  1.00  0.00     0.037 C 
HETATM   21  O4  UNK     1      34.329  -7.546  35.128  1.00  0.00    -0.238 OA
BRANCH  18  22
HETATM   22  O2  UNK     1      33.313  -7.909  37.151  1.00  0.00    -0.299 OA
BRANCH  22  23
HETATM   23  C8  UNK     1      33.742  -6.634  37.640  1.00  0.00     0.219 C 
BRANCH  23  24
HETATM   24  C18 UNK     1      32.571  -5.695  37.654  1.00  0.00    -0.034 A 
HETATM   25  C27 UNK     1      31.494  -5.938  38.506  1.00  0.00     0.009 A 
HETATM   26  C29 UNK     1      30.405  -5.065  38.521  1.00  0.00     0.001 A 
HETATM   27  C31 UNK     1      30.394  -3.951  37.682  1.00  0.00     0.000 A 
HETATM   28  C30 UNK     1      31.471  -3.708  36.829  1.00  0.00     0.001 A 
HETATM   29  C28 UNK     1      32.560  -4.581  36.815  1.00  0.00     0.009 A 
ENDBRANCH  23  24
ENDBRANCH  22  23
ENDBRANCH  18  22
ENDBRANCH  13  15
ENDBRANCH  12  13
ENDBRANCH   3  12
BRANCH  11  30
HETATM   30  C23 UNK     1      23.131 -10.827  35.928  1.00  0.00     0.440 C 
HETATM   31  F1  UNK     1      22.569 -10.191  34.883  1.00  0.00    -0.164 F 
HETATM   32  F2  UNK     1      23.847 -11.863  35.452  1.00  0.00    -0.164 F 
HETATM   33  F3  UNK     1      22.144 -11.321  36.698  1.00  0.00    -0.164 F 
ENDBRANCH  11  30
BRANCH   8  34
HETATM   34  C16 UNK     1      22.143  -8.496  37.503  1.00  0.00    -0.016 A 
HETATM   35  C19 UNK     1      21.511  -7.889  36.417  1.00  0.00     0.052 A 
HETATM   36  C20 UNK     1      20.154  -7.574  36.491  1.00  0.00     0.102 A 
HETATM   37  O6  UNK     1      19.586  -6.998  35.384  1.00  0.00    -0.346 OA
HETATM   38  C22 UNK     1      19.437  -7.839  37.660  1.00  0.00     0.102 A 
HETATM   39  C25 UNK     1      18.157  -7.039  35.437  1.00  0.00     0.202 C 
HETATM   40  C26 UNK     1      17.668  -6.603  36.804  1.00  0.00     0.202 C 
HETATM   41  O7  UNK     1      18.111  -7.524  37.805  1.00  0.00    -0.346 OA
HETATM   42  C24 UNK     1      20.066  -8.459  38.740  1.00  0.00     0.040 A 
HETATM   43  C21 UNK     1      21.419  -8.786  38.661  1.00  0.00     0.015 A 
ENDBRANCH   8  34
TORSDOF 8
ENDMDL
MODEL 3
REMARK VINA RESULT:      -9.1      1.674      3.322
REMARK  8 active torsions:
REMARK  status: ('A' for Active; 'I' for Inactive)
REMARK    1  A    between atoms: C5_17  and  O1_4 
REMARK    2  A    between atoms: C7_19  and  O1_4 
REMARK    3  A    between atoms: C6_18  and  O2_5 
REMARK    4  A    between atoms: C8_20  and  O2_5 
REMARK       I    between atoms: C6_18  and  N1_12 
REMARK    5  A    between atoms: C1_13  and  C5_17 
REMARK    6  A    between atoms: C18_30  and  C8_20 
REMARK    7  A    between atoms: C13_25  and  C16_28 
REMARK    8  A    between atoms: C17_29  and  C23_35 
ROOT
HETATM    1  O5  UNK     1      29.513  -9.391  38.192  1.00  0.00    -0.304 OA
HETATM    2  O8  UNK     1      27.316  -6.970  35.770  1.00  0.00    -0.286 OA
HETATM    3  C7  UNK     1      32.195  -8.059  36.120  1.00  0.00     0.082 A 
HETATM    4  C9  UNK     1      31.512  -8.782  37.097  1.00  0.00     0.075 A 
HETATM    5  C10 UNK     1      30.127  -8.657  37.214  1.00  0.00     0.093 A 
HETATM    6  C11 UNK     1      29.431  -7.813  36.356  1.00  0.00     0.049 A 
HETATM    7  C12 UNK     1      31.496  -7.213  35.260  1.00  0.00     0.038 A 
HETATM    8  C13 UNK     1      27.343  -8.513  37.581  1.00  0.00     0.064 A 
HETATM    9  C14 UNK     1      30.111  -7.087  35.375  1.00  0.00     0.021 A 
HETATM   10  C15 UNK     1      27.974  -7.700  36.502  1.00  0.00     0.198 A 
HETATM   11  C17 UNK     1      28.136  -9.296  38.345  1.00  0.00     0.174 A 
ENDROOT
BRANCH   3  12
HETATM   12  O1  UNK     1      33.582  -8.185  36.001  1.00  0.00    -0.277 OA
BRANCH  12  13
HETATM   13  C5  UNK     1      34.044  -7.857  34.731  1.00  0.00     0.287 C 
HETATM   14  O3  UNK     1      33.485  -8.073  33.664  1.00  0.00    -0.262 OA
BRANCH  13  15
HETATM   15  C1  UNK     1      35.374  -7.181  34.864  1.00  0.00     0.189 C 
HETATM   16  N1  UNK     1      35.320  -5.968  34.061  1.00  0.00    -0.314 N 
HETATM   17  C4  UNK     1      36.128  -6.091  32.852  1.00  0.00     0.129 C 
HETATM   18  C6  UNK     1      34.706  -4.799  34.487  1.00  0.00     0.363 C 
HETATM   19  C3  UNK     1      36.485  -7.567  32.776  1.00  0.00     0.022 C 
HETATM   20  C2  UNK     1      36.496  -8.004  34.239  1.00  0.00     0.037 C 
HETATM   21  O4  UNK     1      34.771  -3.726  33.892  1.00  0.00    -0.238 OA
BRANCH  18  22
HETATM   22  O2  UNK     1      34.016  -4.981  35.657  1.00  0.00    -0.299 OA
BRANCH  22  23
HETATM   23  C8  UNK     1      33.327  -3.833  36.162  1.00  0.00     0.219 C 
BRANCH  23  24
HETATM   24  C18 UNK     1      32.229  -4.285  37.080  1.00  0.00    -0.034 A 
HETATM   25  C27 UNK     1      32.496  -5.227  38.073  1.00  0.00     0.009 A 
HETATM   26  C29 UNK     1      31.476  -5.648  38.928  1.00  0.00     0.001 A 
HETATM   27  C31 UNK     1      30.191  -5.127  38.788  1.00  0.00     0.000 A 
HETATM   28  C30 UNK     1      29.923  -4.185  37.794  1.00  0.00     0.001 A 
HETATM   29  C28 UNK     1      30.943  -3.764  36.940  1.00  0.00     0.009 A 
ENDBRANCH  23  24
ENDBRANCH  22  23
ENDBRANCH  18  22
ENDBRANCH  13  15
ENDBRANCH  12  13
ENDBRANCH   3  12
BRANCH  11  30
HETATM   30  C23 UNK     1      27.649 -10.171  39.467  1.00  0.00     0.440 C 
HETATM   31  F1  UNK     1      28.684 -10.769  40.087  1.00  0.00    -0.164 F 
HETATM   32  F2  UNK     1      26.977  -9.445  40.381  1.00  0.00    -0.164 F 
HETATM   33  F3  UNK     1      26.825 -11.130  39.007  1.00  0.00    -0.164 F 
ENDBRANCH  11  30
BRANCH   8  34
HETATM   34  C16 UNK     1      25.902  -8.443  37.778  1.00  0.00    -0.016 A 
HETATM   35  C19 UNK     1      25.051  -9.206  36.976  1.00  0.00     0.052 A 
HETATM   36  C20 UNK     1      23.672  -9.142  37.172  1.00  0.00     0.102 A 
HETATM   37  O6  UNK     1      22.890  -9.930  36.367  1.00  0.00    -0.346 OA
HETATM   38  C22 UNK     1      23.142  -8.296  38.148  1.00  0.00     0.102 A 
HETATM   39  C25 UNK     1      21.558 -10.051  36.873  1.00  0.00     0.202 C 
HETATM   40  C26 UNK     1      21.025  -8.692  37.283  1.00  0.00     0.202 C 
HETATM   41  O7  UNK     1      21.795  -8.166  38.367  1.00  0.00    -0.346 OA
HETATM   42  C24 UNK     1      23.994  -7.544  38.959  1.00  0.00     0.040 A 
HETATM   43  C21 UNK     1      25.373  -7.618  38.772  1.00  0.00     0.015 A 
ENDBRANCH   8  34
TORSDOF 8
ENDMDL
MODEL 4
REMARK VINA RESULT:      -9.1      2.022      2.697
REMARK  8 active torsions:
REMARK  status: ('A' for Active; 'I' for Inactive)
REMARK    1  A    between atoms: C5_17  and  O1_4 
REMARK    2  A    between atoms: C7_19  and  O1_4 
REMARK    3  A    between atoms: C6_18  and  O2_5 
REMARK    4  A    between atoms: C8_20  and  O2_5 
REMARK       I    between atoms: C6_18  and  N1_12 
REMARK    5  A    between atoms: C1_13  and  C5_17 
REMARK    6  A    between atoms: C18_30  and  C8_20 
REMARK    7  A    between atoms: C13_25  and  C16_28 
REMARK    8  A    between atoms: C17_29  and  C23_35 
ROOT
HETATM    1  O5  UNK     1      29.491  -9.196  38.295  1.00  0.00    -0.304 OA
HETATM    2  O8  UNK     1      27.246  -6.706  35.990  1.00  0.00    -0.286 OA
HETATM    3  C7  UNK     1      32.159  -7.607  36.394  1.00  0.00     0.082 A 
HETATM    4  C9  UNK     1      31.486  -8.426  37.300  1.00  0.00     0.075 A 
HETATM    5  C10 UNK     1      30.094  -8.369  37.388  1.00  0.00     0.093 A 
HETATM    6  C11 UNK     1      29.381  -7.497  36.573  1.00  0.00     0.049 A 
HETATM    7  C12 UNK     1      31.443  -6.733  35.576  1.00  0.00     0.038 A 
HETATM    8  C13 UNK     1      27.299  -8.371  37.689  1.00  0.00     0.064 A 
HETATM    9  C14 UNK     1      30.052  -6.675  35.663  1.00  0.00     0.021 A 
HETATM   10  C15 UNK     1      27.918  -7.457  36.687  1.00  0.00     0.198 A 
HETATM   11  C17 UNK     1      28.107  -9.171  38.417  1.00  0.00     0.174 A 
ENDROOT
BRANCH   3  12
HETATM   12  O1  UNK     1      33.553  -7.663  36.304  1.00  0.00    -0.277 OA
BRANCH  12  13
HETATM   13  C5  UNK     1      33.995  -8.023  35.036  1.00  0.00     0.287 C 
HETATM   14  O3  UNK     1      33.866  -9.111  34.490  1.00  0.00    -0.262 OA
BRANCH  13  15
HETATM   15  C1  UNK     1      34.679  -6.844  34.414  1.00  0.00     0.189 C 
HETATM   16  N1  UNK     1      35.081  -7.241  33.072  1.00  0.00    -0.314 N 
HETATM   17  C4  UNK     1      36.526  -7.425  32.980  1.00  0.00     0.129 C 
HETATM   18  C6  UNK     1      34.208  -7.277  31.995  1.00  0.00     0.363 C 
HETATM   19  C3  UNK     1      37.011  -7.399  34.421  1.00  0.00     0.022 C 
HETATM   20  C2  UNK     1      35.987  -6.508  35.122  1.00  0.00     0.037 C 
HETATM   21  O4  UNK     1      34.552  -7.469  30.830  1.00  0.00    -0.238 OA
BRANCH  18  22
HETATM   22  O2  UNK     1      32.910  -7.070  32.381  1.00  0.00    -0.299 OA
BRANCH  22  23
HETATM   23  C8  UNK     1      31.915  -7.787  31.643  1.00  0.00     0.219 C 
BRANCH  23  24
HETATM   24  C18 UNK     1      30.564  -7.214  31.959  1.00  0.00    -0.034 A 
HETATM   25  C27 UNK     1      29.510  -8.062  32.298  1.00  0.00     0.009 A 
HETATM   26  C29 UNK     1      28.254  -7.531  32.593  1.00  0.00     0.001 A 
HETATM   27  C31 UNK     1      28.053  -6.152  32.548  1.00  0.00     0.000 A 
HETATM   28  C30 UNK     1      29.106  -5.303  32.208  1.00  0.00     0.001 A 
HETATM   29  C28 UNK     1      30.362  -5.835  31.914  1.00  0.00     0.009 A 
ENDBRANCH  23  24
ENDBRANCH  22  23
ENDBRANCH  18  22
ENDBRANCH  13  15
ENDBRANCH  12  13
ENDBRANCH   3  12
BRANCH  11  30
HETATM   30  C23 UNK     1      27.634 -10.143  39.462  1.00  0.00     0.440 C 
HETATM   31  F1  UNK     1      28.679 -10.725  40.080  1.00  0.00    -0.164 F 
HETATM   32  F2  UNK     1      26.892  -9.517  40.396  1.00  0.00    -0.164 F 
HETATM   33  F3  UNK     1      26.880 -11.113  38.912  1.00  0.00    -0.164 F 
ENDBRANCH  11  30
BRANCH   8  34
HETATM   34  C16 UNK     1      25.852  -8.377  37.851  1.00  0.00    -0.016 A 
HETATM   35  C19 UNK     1      25.059  -9.157  37.008  1.00  0.00     0.052 A 
HETATM   36  C20 UNK     1      23.674  -9.167  37.172  1.00  0.00     0.102 A 
HETATM   37  O6  UNK     1      22.952  -9.969  36.326  1.00  0.00    -0.346 OA
HETATM   38  C22 UNK     1      23.080  -8.376  38.157  1.00  0.00     0.102 A 
HETATM   39  C25 UNK     1      21.615 -10.170  36.795  1.00  0.00     0.202 C 
HETATM   40  C26 UNK     1      21.006  -8.851  37.228  1.00  0.00     0.202 C 
HETATM   41  O7  UNK     1      21.724  -8.318  38.345  1.00  0.00    -0.346 OA
HETATM   42  C24 UNK     1      23.874  -7.607  39.008  1.00  0.00     0.040 A 
HETATM   43  C21 UNK     1      25.259  -7.608  38.854  1.00  0.00     0.015 A 
ENDBRANCH   8  34
TORSDOF 8
ENDMDL
MODEL 5
REMARK VINA RESULT:      -9.1     34.019     36.619
REMARK  8 active torsions:
REMARK  status: ('A' for Active; 'I' for Inactive)
REMARK    1  A    between atoms: C5_17  and  O1_4 
REMARK    2  A    between atoms: C7_19  and  O1_4 
REMARK    3  A    between atoms: C6_18  and  O2_5 
REMARK    4  A    between atoms: C8_20  and  O2_5 
REMARK       I    between atoms: C6_18  and  N1_12 
REMARK    5  A    between atoms: C1_13  and  C5_17 
REMARK    6  A    between atoms: C18_30  and  C8_20 
REMARK    7  A    between atoms: C13_25  and  C16_28 
REMARK    8  A    between atoms: C17_29  and  C23_35 
ROOT
HETATM    1  O5  UNK     1      14.788   9.857   8.027  1.00  0.00    -0.304 OA
HETATM    2  O8  UNK     1      17.065   8.554  11.136  1.00  0.00    -0.286 OA
HETATM    3  C7  UNK     1      13.238   6.605   8.554  1.00  0.00     0.082 A 
HETATM    4  C9  UNK     1      13.523   7.867   8.033  1.00  0.00     0.075 A 
HETATM    5  C10 UNK     1      14.556   8.628   8.581  1.00  0.00     0.093 A 
HETATM    6  C11 UNK     1      15.300   8.128   9.643  1.00  0.00     0.049 A 
HETATM    7  C12 UNK     1      13.985   6.104   9.620  1.00  0.00     0.038 A 
HETATM    8  C13 UNK     1      16.600  10.285   9.571  1.00  0.00     0.064 A 
HETATM    9  C14 UNK     1      15.019   6.864  10.168  1.00  0.00     0.021 A 
HETATM   10  C15 UNK     1      16.381   8.951  10.199  1.00  0.00     0.198 A 
HETATM   11  C17 UNK     1      15.806  10.650   8.542  1.00  0.00     0.174 A 
ENDROOT
BRANCH   3  12
HETATM   12  O1  UNK     1      12.204   5.841   8.006  1.00  0.00    -0.277 OA
BRANCH  12  13
HETATM   13  C5  UNK     1      10.998   6.010   8.676  1.00  0.00     0.287 C 
HETATM   14  O3  UNK     1      10.644   5.462   9.712  1.00  0.00    -0.262 OA
BRANCH  13  15
HETATM   15  C1  UNK     1      10.161   6.996   7.918  1.00  0.00     0.189 C 
HETATM   16  N1  UNK     1       9.102   7.438   8.813  1.00  0.00    -0.314 N 
HETATM   17  C4  UNK     1       7.809   6.884   8.425  1.00  0.00     0.129 C 
HETATM   18  C6  UNK     1       9.291   8.391   9.804  1.00  0.00     0.363 C 
HETATM   19  C3  UNK     1       8.139   5.823   7.387  1.00  0.00     0.022 C 
HETATM   20  C2  UNK     1       9.428   6.340   6.752  1.00  0.00     0.037 C 
HETATM   21  O4  UNK     1       8.385   8.882  10.474  1.00  0.00    -0.238 OA
BRANCH  18  22
HETATM   22  O2  UNK     1      10.611   8.724   9.948  1.00  0.00    -0.299 OA
BRANCH  22  23
HETATM   23  C8  UNK     1      10.920  10.119   9.849  1.00  0.00     0.219 C 
BRANCH  23  24
HETATM   24  C18 UNK     1      12.086  10.427  10.741  1.00  0.00    -0.034 A 
HETATM   25  C27 UNK     1      12.526   9.480  11.666  1.00  0.00     0.009 A 
HETATM   26  C29 UNK     1      13.611   9.765  12.496  1.00  0.00     0.001 A 
HETATM   27  C31 UNK     1      14.255  10.998  12.401  1.00  0.00     0.000 A 
HETATM   28  C30 UNK     1      13.815  11.947  11.477  1.00  0.00     0.001 A 
HETATM   29  C28 UNK     1      12.731  11.660  10.647  1.00  0.00     0.009 A 
ENDBRANCH  23  24
ENDBRANCH  22  23
ENDBRANCH  18  22
ENDBRANCH  13  15
ENDBRANCH  12  13
ENDBRANCH   3  12
BRANCH  11  30
HETATM   30  C23 UNK     1      15.904  11.959   7.808  1.00  0.00     0.440 C 
HETATM   31  F1  UNK     1      17.141  12.131   7.306  1.00  0.00    -0.164 F 
HETATM   32  F2  UNK     1      15.028  12.000   6.785  1.00  0.00    -0.164 F 
HETATM   33  F3  UNK     1      15.637  12.992   8.628  1.00  0.00    -0.164 F 
ENDBRANCH  11  30
BRANCH   8  34
HETATM   34  C16 UNK     1      17.656  11.149  10.080  1.00  0.00    -0.016 A 
HETATM   35  C19 UNK     1      18.950  11.043   9.569  1.00  0.00     0.052 A 
HETATM   36  C20 UNK     1      19.958  11.878  10.053  1.00  0.00     0.102 A 
HETATM   37  O6  UNK     1      21.203  11.739   9.497  1.00  0.00    -0.346 OA
HETATM   38  C22 UNK     1      19.678  12.797  11.066  1.00  0.00     0.102 A 
HETATM   39  C25 UNK     1      22.051  12.849   9.806  1.00  0.00     0.202 C 
HETATM   40  C26 UNK     1      21.956  13.189  11.281  1.00  0.00     0.202 C 
HETATM   41  O7  UNK     1      20.631  13.621  11.605  1.00  0.00    -0.346 OA
HETATM   42  C24 UNK     1      18.381  12.913  11.567  1.00  0.00     0.040 A 
HETATM   43  C21 UNK     1      17.371  12.088  11.073  1.00  0.00     0.015 A 
ENDBRANCH   8  34
TORSDOF 8
ENDMDL
MODEL 6
REMARK VINA RESULT:      -8.9     10.817     13.551
REMARK  8 active torsions:
REMARK  status: ('A' for Active; 'I' for Inactive)
REMARK    1  A    between atoms: C5_17  and  O1_4 
REMARK    2  A    between atoms: C7_19  and  O1_4 
REMARK    3  A    between atoms: C6_18  and  O2_5 
REMARK    4  A    between atoms: C8_20  and  O2_5 
REMARK       I    between atoms: C6_18  and  N1_12 
REMARK    5  A    between atoms: C1_13  and  C5_17 
REMARK    6  A    between atoms: C18_30  and  C8_20 
REMARK    7  A    between atoms: C13_25  and  C16_28 
REMARK    8  A    between atoms: C17_29  and  C23_35 
ROOT
HETATM    1  O5  UNK     1      19.401  -0.801  34.293  1.00  0.00    -0.304 OA
HETATM    2  O8  UNK     1      18.505  -1.744  38.148  1.00  0.00    -0.286 OA
HETATM    3  C7  UNK     1      17.701   2.272  35.259  1.00  0.00     0.082 A 
HETATM    4  C9  UNK     1      18.384   1.317  34.505  1.00  0.00     0.075 A 
HETATM    5  C10 UNK     1      18.732   0.095  35.082  1.00  0.00     0.093 A 
HETATM    6  C11 UNK     1      18.398  -0.170  36.406  1.00  0.00     0.049 A 
HETATM    7  C12 UNK     1      17.366   2.005  36.586  1.00  0.00     0.038 A 
HETATM    8  C13 UNK     1      19.508  -2.410  36.096  1.00  0.00     0.064 A 
HETATM    9  C14 UNK     1      17.713   0.783  37.164  1.00  0.00     0.021 A 
HETATM   10  C15 UNK     1      18.777  -1.464  36.986  1.00  0.00     0.198 A 
HETATM   11  C17 UNK     1      19.769  -2.029  34.827  1.00  0.00     0.174 A 
ENDROOT
BRANCH   3  12
HETATM   12  O1  UNK     1      17.351   3.496  34.682  1.00  0.00    -0.277 OA
BRANCH  12  13
HETATM   13  C5  UNK     1      18.457   4.235  34.278  1.00  0.00     0.287 C 
HETATM   14  O3  UNK     1      19.621   4.066  34.615  1.00  0.00    -0.262 OA
BRANCH  13  15
HETATM   15  C1  UNK     1      17.999   5.308  33.337  1.00  0.00     0.189 C 
HETATM   16  N1  UNK     1      19.012   5.427  32.298  1.00  0.00    -0.314 N 
HETATM   17  C4  UNK     1      19.783   6.657  32.443  1.00  0.00     0.129 C 
HETATM   18  C6  UNK     1      19.107   4.554  31.224  1.00  0.00     0.363 C 
HETATM   19  C3  UNK     1      19.398   7.195  33.812  1.00  0.00     0.022 C 
HETATM   20  C2  UNK     1      17.975   6.677  34.007  1.00  0.00     0.037 C 
HETATM   21  O4  UNK     1      19.857   4.716  30.264  1.00  0.00    -0.238 OA
BRANCH  18  22
HETATM   22  O2  UNK     1      18.261   3.485  31.357  1.00  0.00    -0.299 OA
BRANCH  22  23
HETATM   23  C8  UNK     1      17.876   2.836  30.141  1.00  0.00     0.219 C 
BRANCH  23  24
HETATM   24  C18 UNK     1      18.718   1.608  29.952  1.00  0.00    -0.034 A 
HETATM   25  C27 UNK     1      19.464   1.104  31.018  1.00  0.00     0.009 A 
HETATM   26  C29 UNK     1      20.247  -0.037  30.844  1.00  0.00     0.001 A 
HETATM   27  C31 UNK     1      20.285  -0.674  29.604  1.00  0.00     0.000 A 
HETATM   28  C30 UNK     1      19.540  -0.170  28.537  1.00  0.00     0.001 A 
HETATM   29  C28 UNK     1      18.757   0.971  28.712  1.00  0.00     0.009 A 
ENDBRANCH  23  24
ENDBRANCH  22  23
ENDBRANCH  18  22
ENDBRANCH  13  15
ENDBRANCH  12  13
ENDBRANCH   3  12
BRANCH  11  30
HETATM   30  C23 UNK     1      20.494  -2.871  33.813  1.00  0.00     0.440 C 
HETATM   31  F1  UNK     1      19.990  -2.670  32.580  1.00  0.00    -0.164 F 
HETATM   32  F2  UNK     1      21.804  -2.562  33.784  1.00  0.00    -0.164 F 
HETATM   33  F3  UNK     1      20.379  -4.180  34.103  1.00  0.00    -0.164 F 
ENDBRANCH  11  30
BRANCH   8  34
HETATM   34  C16 UNK     1      19.913  -3.709  36.615  1.00  0.00    -0.016 A 
HETATM   35  C19 UNK     1      21.154  -3.855  37.236  1.00  0.00     0.052 A 
HETATM   36  C20 UNK     1      21.536  -5.100  37.739  1.00  0.00     0.102 A 
HETATM   37  O6  UNK     1      22.757  -5.175  38.356  1.00  0.00    -0.346 OA
HETATM   38  C22 UNK     1      20.691  -6.202  37.594  1.00  0.00     0.102 A 
HETATM   39  C25 UNK     1      22.893  -6.375  39.123  1.00  0.00     0.202 C 
HETATM   40  C26 UNK     1      22.421  -7.570  38.318  1.00  0.00     0.202 C 
HETATM   41  O7  UNK     1      21.023  -7.455  38.037  1.00  0.00    -0.346 OA
HETATM   42  C24 UNK     1      19.444  -6.052  36.985  1.00  0.00     0.040 A 
HETATM   43  C21 UNK     1      19.057  -4.805  36.495  1.00  0.00     0.015 A 
ENDBRANCH   8  34
TORSDOF 8
ENDMDL
MODEL 7
REMARK VINA RESULT:      -8.9      2.728      4.185
REMARK  8 active torsions:
REMARK  status: ('A' for Active; 'I' for Inactive)
REMARK    1  A    between atoms: C5_17  and  O1_4 
REMARK    2  A    between atoms: C7_19  and  O1_4 
REMARK    3  A    between atoms: C6_18  and  O2_5 
REMARK    4  A    between atoms: C8_20  and  O2_5 
REMARK       I    between atoms: C6_18  and  N1_12 
REMARK    5  A    between atoms: C1_13  and  C5_17 
REMARK    6  A    between atoms: C18_30  and  C8_20 
REMARK    7  A    between atoms: C13_25  and  C16_28 
REMARK    8  A    between atoms: C17_29  and  C23_35 
ROOT
HETATM    1  O5  UNK     1      25.146 -10.118  36.736  1.00  0.00    -0.304 OA
HETATM    2  O8  UNK     1      23.988  -6.904  38.945  1.00  0.00    -0.286 OA
HETATM    3  C7  UNK     1      28.395  -9.111  38.036  1.00  0.00     0.082 A 
HETATM    4  C9  UNK     1      27.403  -9.809  37.347  1.00  0.00     0.075 A 
HETATM    5  C10 UNK     1      26.073  -9.394  37.434  1.00  0.00     0.093 A 
HETATM    6  C11 UNK     1      25.739  -8.287  38.205  1.00  0.00     0.049 A 
HETATM    7  C12 UNK     1      28.059  -8.000  38.810  1.00  0.00     0.038 A 
HETATM    8  C13 UNK     1      23.353  -8.690  37.507  1.00  0.00     0.064 A 
HETATM    9  C14 UNK     1      26.730  -7.584  38.897  1.00  0.00     0.021 A 
HETATM   10  C15 UNK     1      24.333  -7.873  38.279  1.00  0.00     0.198 A 
HETATM   11  C17 UNK     1      23.810  -9.742  36.795  1.00  0.00     0.174 A 
ENDROOT
BRANCH   3  12
HETATM   12  O1  UNK     1      29.727  -9.525  37.950  1.00  0.00    -0.277 OA
BRANCH  12  13
HETATM   13  C5  UNK     1      30.352  -9.083  36.790  1.00  0.00     0.287 C 
HETATM   14  O3  UNK     1      30.572  -9.733  35.776  1.00  0.00    -0.262 OA
BRANCH  13  15
HETATM   15  C1  UNK     1      30.735  -7.645  36.968  1.00  0.00     0.189 C 
HETATM   16  N1  UNK     1      31.491  -7.254  35.787  1.00  0.00    -0.314 N 
HETATM   17  C4  UNK     1      32.909  -7.092  36.089  1.00  0.00     0.129 C 
HETATM   18  C6  UNK     1      30.896  -6.925  34.577  1.00  0.00     0.363 C 
HETATM   19  C3  UNK     1      33.076  -7.680  37.481  1.00  0.00     0.022 C 
HETATM   20  C2  UNK     1      31.710  -7.456  38.125  1.00  0.00     0.037 C 
HETATM   21  O4  UNK     1      31.499  -6.456  33.614  1.00  0.00    -0.238 OA
BRANCH  18  22
HETATM   22  O2  UNK     1      29.551  -7.182  34.581  1.00  0.00    -0.299 OA
BRANCH  22  23
HETATM   23  C8  UNK     1      28.742  -6.303  33.793  1.00  0.00     0.219 C 
BRANCH  23  24
HETATM   24  C18 UNK     1      28.270  -7.036  32.571  1.00  0.00    -0.034 A 
HETATM   25  C27 UNK     1      27.333  -6.446  31.724  1.00  0.00     0.009 A 
HETATM   26  C29 UNK     1      26.894  -7.126  30.587  1.00  0.00     0.001 A 
HETATM   27  C31 UNK     1      27.393  -8.396  30.299  1.00  0.00     0.000 A 
HETATM   28  C30 UNK     1      28.331  -8.987  31.146  1.00  0.00     0.001 A 
HETATM   29  C28 UNK     1      28.769  -8.306  32.282  1.00  0.00     0.009 A 
ENDBRANCH  23  24
ENDBRANCH  22  23
ENDBRANCH  18  22
ENDBRANCH  13  15
ENDBRANCH  12  13
ENDBRANCH   3  12
BRANCH  11  30
HETATM   30  C23 UNK     1      22.948 -10.656  35.969  1.00  0.00     0.440 C 
HETATM   31  F1  UNK     1      21.924 -11.134  36.701  1.00  0.00    -0.164 F 
HETATM   32  F2  UNK     1      22.436 -10.002  34.909  1.00  0.00    -0.164 F 
HETATM   33  F3  UNK     1      23.658 -11.703  35.509  1.00  0.00    -0.164 F 
ENDBRANCH  11  30
BRANCH   8  34
HETATM   34  C16 UNK     1      21.941  -8.332  37.541  1.00  0.00    -0.016 A 
HETATM   35  C19 UNK     1      21.322  -7.832  36.395  1.00  0.00     0.052 A 
HETATM   36  C20 UNK     1      19.967  -7.498  36.429  1.00  0.00     0.102 A 
HETATM   37  O6  UNK     1      19.411  -7.031  35.266  1.00  0.00    -0.346 OA
HETATM   38  C22 UNK     1      19.243  -7.634  37.614  1.00  0.00     0.102 A 
HETATM   39  C25 UNK     1      17.982  -7.052  35.314  1.00  0.00     0.202 C 
HETATM   40  C26 UNK     1      17.491  -6.473  36.627  1.00  0.00     0.202 C 
HETATM   41  O7  UNK     1      17.919  -7.292  37.719  1.00  0.00    -0.346 OA
HETATM   42  C24 UNK     1      19.859  -8.147  38.756  1.00  0.00     0.040 A 
HETATM   43  C21 UNK     1      21.209  -8.494  38.718  1.00  0.00     0.015 A 
ENDBRANCH   8  34
TORSDOF 8
ENDMDL
MODEL 8
REMARK VINA RESULT:      -8.7     34.107     36.910
REMARK  8 active torsions:
REMARK  status: ('A' for Active; 'I' for Inactive)
REMARK    1  A    between atoms: C5_17  and  O1_4 
REMARK    2  A    between atoms: C7_19  and  O1_4 
REMARK    3  A    between atoms: C6_18  and  O2_5 
REMARK    4  A    between atoms: C8_20  and  O2_5 
REMARK       I    between atoms: C6_18  and  N1_12 
REMARK    5  A    between atoms: C1_13  and  C5_17 
REMARK    6  A    between atoms: C18_30  and  C8_20 
REMARK    7  A    between atoms: C13_25  and  C16_28 
REMARK    8  A    between atoms: C17_29  and  C23_35 
ROOT
HETATM    1  O5  UNK     1      14.255  10.109   9.566  1.00  0.00    -0.304 OA
HETATM    2  O8  UNK     1      17.898   8.303   9.700  1.00  0.00    -0.286 OA
HETATM    3  C7  UNK     1      13.173   6.662  10.019  1.00  0.00     0.082 A 
HETATM    4  C9  UNK     1      13.148   8.046   9.849  1.00  0.00     0.075 A 
HETATM    5  C10 UNK     1      14.344   8.754   9.732  1.00  0.00     0.093 A 
HETATM    6  C11 UNK     1      15.559   8.080   9.785  1.00  0.00     0.049 A 
HETATM    7  C12 UNK     1      14.392   5.987  10.072  1.00  0.00     0.038 A 
HETATM    8  C13 UNK     1      16.662  10.325   9.484  1.00  0.00     0.064 A 
HETATM    9  C14 UNK     1      15.590   6.694   9.955  1.00  0.00     0.021 A 
HETATM   10  C15 UNK     1      16.802   8.851   9.660  1.00  0.00     0.198 A 
HETATM   11  C17 UNK     1      15.421  10.854   9.447  1.00  0.00     0.174 A 
ENDROOT
BRANCH   3  12
HETATM   12  O1  UNK     1      11.976   5.950  10.136  1.00  0.00    -0.277 OA
BRANCH  12  13
HETATM   13  C5  UNK     1      11.489   5.514   8.909  1.00  0.00     0.287 C 
HETATM   14  O3  UNK     1      11.667   4.420   8.390  1.00  0.00    -0.262 OA
BRANCH  13  15
HETATM   15  C1  UNK     1      10.687   6.619   8.290  1.00  0.00     0.189 C 
HETATM   16  N1  UNK     1       9.486   6.016   7.732  1.00  0.00    -0.314 N 
HETATM   17  C4  UNK     1       9.531   5.985   6.274  1.00  0.00     0.129 C 
HETATM   18  C6  UNK     1       8.381   5.671   8.498  1.00  0.00     0.363 C 
HETATM   19  C3  UNK     1      10.967   6.347   5.926  1.00  0.00     0.022 C 
HETATM   20  C2  UNK     1      11.399   7.235   7.091  1.00  0.00     0.037 C 
HETATM   21  O4  UNK     1       7.307   5.295   8.033  1.00  0.00    -0.238 OA
BRANCH  18  22
HETATM   22  O2  UNK     1       8.628   5.799   9.839  1.00  0.00    -0.299 OA
BRANCH  22  23
HETATM   23  C8  UNK     1       7.956   4.866  10.692  1.00  0.00     0.219 C 
BRANCH  23  24
HETATM   24  C18 UNK     1       6.906   5.591  11.480  1.00  0.00    -0.034 A 
HETATM   25  C27 UNK     1       6.147   4.904  12.428  1.00  0.00     0.009 A 
HETATM   26  C29 UNK     1       5.171   5.578  13.163  1.00  0.00     0.001 A 
HETATM   27  C31 UNK     1       4.953   6.939  12.948  1.00  0.00     0.000 A 
HETATM   28  C30 UNK     1       5.711   7.627  12.000  1.00  0.00     0.001 A 
HETATM   29  C28 UNK     1       6.687   6.952  11.266  1.00  0.00     0.009 A 
ENDBRANCH  23  24
ENDBRANCH  22  23
ENDBRANCH  18  22
ENDBRANCH  13  15
ENDBRANCH  12  13
ENDBRANCH   3  12
BRANCH  11  30
HETATM   30  C23 UNK     1      15.119  12.318   9.276  1.00  0.00     0.440 C 
HETATM   31  F1  UNK     1      15.395  12.717   8.020  1.00  0.00    -0.164 F 
HETATM   32  F2  UNK     1      13.818  12.569   9.518  1.00  0.00    -0.164 F 
HETATM   33  F3  UNK     1      15.853  13.063  10.123  1.00  0.00    -0.164 F 
ENDBRANCH  11  30
BRANCH   8  34
HETATM   34  C16 UNK     1      17.859  11.145   9.356  1.00  0.00    -0.016 A 
HETATM   35  C19 UNK     1      18.330  11.499   8.091  1.00  0.00     0.052 A 
HETATM   36  C20 UNK     1      19.472  12.291   7.972  1.00  0.00     0.102 A 
HETATM   37  O6  UNK     1      19.872  12.621   6.703  1.00  0.00    -0.346 OA
HETATM   38  C22 UNK     1      20.158  12.705   9.115  1.00  0.00     0.102 A 
HETATM   39  C25 UNK     1      20.818  13.695   6.706  1.00  0.00     0.202 C 
HETATM   40  C26 UNK     1      21.885  13.453   7.756  1.00  0.00     0.202 C 
HETATM   41  O7  UNK     1      21.303  13.457   9.063  1.00  0.00    -0.346 OA
HETATM   42  C24 UNK     1      19.679  12.363  10.380  1.00  0.00     0.040 A 
HETATM   43  C21 UNK     1      18.530  11.582  10.499  1.00  0.00     0.015 A 
ENDBRANCH   8  34
TORSDOF 8
ENDMDL
MODEL 9
REMARK VINA RESULT:      -8.7      1.779      3.616
REMARK  8 active torsions:
REMARK  status: ('A' for Active; 'I' for Inactive)
REMARK    1  A    between atoms: C5_17  and  O1_4 
REMARK    2  A    between atoms: C7_19  and  O1_4 
REMARK    3  A    between atoms: C6_18  and  O2_5 
REMARK    4  A    between atoms: C8_20  and  O2_5 
REMARK       I    between atoms: C6_18  and  N1_12 
REMARK    5  A    between atoms: C1_13  and  C5_17 
REMARK    6  A    between atoms: C18_30  and  C8_20 
REMARK    7  A    between atoms: C13_25  and  C16_28 
REMARK    8  A    between atoms: C17_29  and  C23_35 
ROOT
HETATM    1  O5  UNK     1      29.749  -9.374  37.975  1.00  0.00    -0.304 OA
HETATM    2  O8  UNK     1      27.903  -9.251  34.352  1.00  0.00    -0.286 OA
HETATM    3  C7  UNK     1      32.603  -8.464  35.904  1.00  0.00     0.082 A 
HETATM    4  C9  UNK     1      31.822  -8.791  37.013  1.00  0.00     0.075 A 
HETATM    5  C10 UNK     1      30.462  -9.059  36.851  1.00  0.00     0.093 A 
HETATM    6  C11 UNK     1      29.888  -9.002  35.586  1.00  0.00     0.049 A 
HETATM    7  C12 UNK     1      32.026  -8.408  34.636  1.00  0.00     0.038 A 
HETATM    8  C13 UNK     1      27.713  -9.623  36.694  1.00  0.00     0.064 A 
HETATM    9  C14 UNK     1      30.666  -8.676  34.472  1.00  0.00     0.021 A 
HETATM   10  C15 UNK     1      28.455  -9.288  35.446  1.00  0.00     0.198 A 
HETATM   11  C17 UNK     1      28.392  -9.646  37.861  1.00  0.00     0.174 A 
ENDROOT
BRANCH   3  12
HETATM   12  O1  UNK     1      33.965  -8.196  36.064  1.00  0.00    -0.277 OA
BRANCH  12  13
HETATM   13  C5  UNK     1      34.205  -7.127  36.919  1.00  0.00     0.287 C 
HETATM   14  O3  UNK     1      33.890  -7.039  38.098  1.00  0.00    -0.262 OA
BRANCH  13  15
HETATM   15  C1  UNK     1      34.929  -6.058  36.159  1.00  0.00     0.189 C 
HETATM   16  N1  UNK     1      34.069  -5.661  35.053  1.00  0.00    -0.314 N 
HETATM   17  C4  UNK     1      34.585  -6.142  33.776  1.00  0.00     0.129 C 
HETATM   18  C6  UNK     1      32.991  -4.800  35.199  1.00  0.00     0.363 C 
HETATM   19  C3  UNK     1      35.687  -7.122  34.149  1.00  0.00     0.022 C 
HETATM   20  C2  UNK     1      36.191  -6.591  35.490  1.00  0.00     0.037 C 
HETATM   21  O4  UNK     1      32.341  -4.340  34.262  1.00  0.00    -0.238 OA
BRANCH  18  22
HETATM   22  O2  UNK     1      32.734  -4.519  36.514  1.00  0.00    -0.299 OA
BRANCH  22  23
HETATM   23  C8  UNK     1      31.662  -3.603  36.761  1.00  0.00     0.219 C 
BRANCH  23  24
HETATM   24  C18 UNK     1      30.543  -4.332  37.446  1.00  0.00    -0.034 A 
HETATM   25  C27 UNK     1      30.150  -3.956  38.730  1.00  0.00     0.009 A 
HETATM   26  C29 UNK     1      29.109  -4.633  39.368  1.00  0.00     0.001 A 
HETATM   27  C31 UNK     1      28.464  -5.686  38.720  1.00  0.00     0.000 A 
HETATM   28  C30 UNK     1      28.857  -6.063  37.436  1.00  0.00     0.001 A 
HETATM   29  C28 UNK     1      29.897  -5.385  36.799  1.00  0.00     0.009 A 
ENDBRANCH  23  24
ENDBRANCH  22  23
ENDBRANCH  18  22
ENDBRANCH  13  15
ENDBRANCH  12  13
ENDBRANCH   3  12
BRANCH  11  30
HETATM   30  C23 UNK     1      27.784  -9.965  39.199  1.00  0.00     0.440 C 
HETATM   31  F1  UNK     1      28.739 -10.308  40.085  1.00  0.00    -0.164 F 
HETATM   32  F2  UNK     1      27.121  -8.901  39.689  1.00  0.00    -0.164 F 
HETATM   33  F3  UNK     1      26.916 -10.990  39.102  1.00  0.00    -0.164 F 
ENDBRANCH  11  30
BRANCH   8  34
HETATM   34  C16 UNK     1      26.288  -9.915  36.621  1.00  0.00    -0.016 A 
HETATM   35  C19 UNK     1      25.357  -8.942  36.986  1.00  0.00     0.052 A 
HETATM   36  C20 UNK     1      23.992  -9.222  36.907  1.00  0.00     0.102 A 
HETATM   37  O6  UNK     1      23.128  -8.219  37.261  1.00  0.00    -0.346 OA
HETATM   38  C22 UNK     1      23.561 -10.484  36.492  1.00  0.00     0.102 A 
HETATM   39  C25 UNK     1      21.794  -8.486  36.820  1.00  0.00     0.202 C 
HETATM   40  C26 UNK     1      21.407  -9.916  37.148  1.00  0.00     0.202 C 
HETATM   41  O7  UNK     1      22.236 -10.830  36.424  1.00  0.00    -0.346 OA
HETATM   42  C24 UNK     1      24.491 -11.452  36.113  1.00  0.00     0.040 A 
HETATM   43  C21 UNK     1      25.855 -11.166  36.179  1.00  0.00     0.015 A 
ENDBRANCH   8  34
TORSDOF 8
ENDMDL
MODEL 10
REMARK VINA RESULT:      -8.6     34.501     37.146
REMARK  8 active torsions:
REMARK  status: ('A' for Active; 'I' for Inactive)
REMARK    1  A    between atoms: C5_17  and  O1_4 
REMARK    2  A    between atoms: C7_19  and  O1_4 
REMARK    3  A    between atoms: C6_18  and  O2_5 
REMARK    4  A    between atoms: C8_20  and  O2_5 
REMARK       I    between atoms: C6_18  and  N1_12 
REMARK    5  A    between atoms: C1_13  and  C5_17 
REMARK    6  A    between atoms: C18_30  and  C8_20 
REMARK    7  A    between atoms: C13_25  and  C16_28 
REMARK    8  A    between atoms: C17_29  and  C23_35 
ROOT
HETATM    1  O5  UNK     1      14.524  10.603   9.097  1.00  0.00    -0.304 OA
HETATM    2  O8  UNK     1      17.861   8.361   9.722  1.00  0.00    -0.286 OA
HETATM    3  C7  UNK     1      12.944   7.391   9.765  1.00  0.00     0.082 A 
HETATM    4  C9  UNK     1      13.124   8.742   9.467  1.00  0.00     0.075 A 
HETATM    5  C10 UNK     1      14.412   9.272   9.393  1.00  0.00     0.093 A 
HETATM    6  C11 UNK     1      15.515   8.455   9.617  1.00  0.00     0.049 A 
HETATM    7  C12 UNK     1      14.051   6.572   9.989  1.00  0.00     0.038 A 
HETATM    8  C13 UNK     1      16.938  10.494   9.212  1.00  0.00     0.064 A 
HETATM    9  C14 UNK     1      15.340   7.101   9.915  1.00  0.00     0.021 A 
HETATM   10  C15 UNK     1      16.858   9.041   9.533  1.00  0.00     0.198 A 
HETATM   11  C17 UNK     1      15.788  11.174   9.015  1.00  0.00     0.174 A 
ENDROOT
BRANCH   3  12
HETATM   12  O1  UNK     1      11.655   6.858   9.838  1.00  0.00    -0.277 OA
BRANCH  12  13
HETATM   13  C5  UNK     1      11.277   6.203   8.671  1.00  0.00     0.287 C 
HETATM   14  O3  UNK     1      11.387   5.009   8.425  1.00  0.00    -0.262 OA
BRANCH  13  15
HETATM   15  C1  UNK     1      10.698   7.209   7.723  1.00  0.00     0.189 C 
HETATM   16  N1  UNK     1       9.255   7.019   7.727  1.00  0.00    -0.314 N 
HETATM   17  C4  UNK     1       8.793   6.408   6.485  1.00  0.00     0.129 C 
HETATM   18  C6  UNK     1       8.425   7.511   8.724  1.00  0.00     0.363 C 
HETATM   19  C3  UNK     1      10.063   5.948   5.786  1.00  0.00     0.022 C 
HETATM   20  C2  UNK     1      11.116   6.937   6.282  1.00  0.00     0.037 C 
HETATM   21  O4  UNK     1       7.197   7.489   8.676  1.00  0.00    -0.238 OA
BRANCH  18  22
HETATM   22  O2  UNK     1       9.137   8.030   9.772  1.00  0.00    -0.299 OA
BRANCH  22  23
HETATM   23  C8  UNK     1       8.543   9.148  10.441  1.00  0.00     0.219 C 
BRANCH  23  24
HETATM   24  C18 UNK     1       9.542  10.265  10.510  1.00  0.00    -0.034 A 
HETATM   25  C27 UNK     1      10.620  10.183  11.391  1.00  0.00     0.009 A 
HETATM   26  C29 UNK     1      11.550  11.221  11.455  1.00  0.00     0.001 A 
HETATM   27  C31 UNK     1      11.401  12.341  10.638  1.00  0.00     0.000 A 
HETATM   28  C30 UNK     1      10.324  12.424   9.756  1.00  0.00     0.001 A 
HETATM   29  C28 UNK     1       9.394  11.386   9.692  1.00  0.00     0.009 A 
ENDBRANCH  23  24
ENDBRANCH  22  23
ENDBRANCH  18  22
ENDBRANCH  13  15
ENDBRANCH  12  13
ENDBRANCH   3  12
BRANCH  11  30
HETATM   30  C23 UNK     1      15.705  12.639   8.684  1.00  0.00     0.440 C 
HETATM   31  F1  UNK     1      16.404  13.368   9.575  1.00  0.00    -0.164 F 
HETATM   32  F2  UNK     1      16.209  12.881   7.459  1.00  0.00    -0.164 F 
HETATM   33  F3  UNK     1      14.429  13.066   8.703  1.00  0.00    -0.164 F 
ENDBRANCH  11  30
BRANCH   8  34
HETATM   34  C16 UNK     1      18.243  11.134   9.117  1.00  0.00    -0.016 A 
HETATM   35  C19 UNK     1      18.899  11.552  10.275  1.00  0.00     0.052 A 
HETATM   36  C20 UNK     1      20.153  12.158  10.181  1.00  0.00     0.102 A 
HETATM   37  O6  UNK     1      20.756  12.528  11.355  1.00  0.00    -0.346 OA
HETATM   38  C22 UNK     1      20.735  12.371   8.930  1.00  0.00     0.102 A 
HETATM   39  C25 UNK     1      22.147  12.808  11.173  1.00  0.00     0.202 C 
HETATM   40  C26 UNK     1      22.352  13.685   9.953  1.00  0.00     0.202 C 
HETATM   41  O7  UNK     1      21.948  12.989   8.770  1.00  0.00    -0.346 OA
HETATM   42  C24 UNK     1      20.084  11.940   7.773  1.00  0.00     0.040 A 
HETATM   43  C21 UNK     1      18.837  11.323   7.868  1.00  0.00     0.015 A 
ENDBRANCH   8  34
TORSDOF 8
ENDMDL
