MODEL 1
REMARK VINA RESULT:      -8.1      0.000      0.000
REMARK  3 active torsions:
REMARK  status: ('A' for Active; 'I' for Inactive)
REMARK    1  A    between atoms: C1_8  and  N1_5 
REMARK       I    between atoms: C5_12  and  N1_5 
REMARK    2  A    between atoms: C1_8  and  C2_9 
REMARK    3  A    between atoms: C5_12  and  C6_13 
ROOT
HETATM    1 Br1  UNK     1      19.116   2.042  21.001  1.00  0.00    -0.051 Br
HETATM    2  O1  UNK     1      19.223   0.787  15.067  1.00  0.00    -0.274 OA
HETATM    3  O3  UNK     1      19.109  -0.722  13.355  1.00  0.00    -0.259 OA
HETATM    4  C6  UNK     1      18.902  -1.589  15.551  1.00  0.00     0.108 A 
HETATM    5  C8  UNK     1      19.023   0.016  17.363  1.00  0.00     0.000 A 
HETATM    6  C9  UNK     1      18.874  -1.344  16.867  1.00  0.00     0.037 A 
HETATM    7  C11 UNK     1      19.194   1.051  16.450  1.00  0.00     0.089 A 
HETATM    8  C12 UNK     1      19.083  -0.502  14.561  1.00  0.00     0.304 A 
HETATM    9  C14 UNK     1      19.000   0.317  18.727  1.00  0.00     0.033 A 
HETATM   10  C15 UNK     1      19.342   2.374  16.861  1.00  0.00     0.039 A 
HETATM   11  C16 UNK     1      19.147   1.640  19.155  1.00  0.00     0.011 A 
HETATM   12  C17 UNK     1      19.317   2.666  18.223  1.00  0.00     0.022 A 
ENDROOT
BRANCH   4  13
HETATM   13  C5  UNK     1      18.744  -2.990  15.147  1.00  0.00     0.259 C 
HETATM   14  O2  UNK     1      17.599  -3.446  15.051  1.00  0.00    -0.267 OA
HETATM   15  N1  UNK     1      19.905  -3.724  14.883  1.00  0.00    -0.348 N 
HETATM   16  C7  UNK     1      21.239  -3.142  15.012  1.00  0.00     0.153 C 
BRANCH  15  17
HETATM   17  C1  UNK     1      19.864  -5.118  14.462  1.00  0.00     0.167 C 
BRANCH  17  18
HETATM   18  C2  UNK     1      19.376  -5.200  13.048  1.00  0.00     0.003 A 
HETATM   19  C3  UNK     1      18.385  -6.038  12.544  1.00  0.00     0.060 A 
HETATM   20  C10 UNK     1      17.576  -7.040  13.261  1.00  0.00     0.073 C 
HETATM   21  N3  UNK     1      18.195  -5.855  11.235  1.00  0.00    -0.178 NA
HETATM   22  N2  UNK     1      19.082  -4.892  10.930  1.00  0.00    -0.284 N 
HETATM   23  C13 UNK     1      19.180  -4.408   9.573  1.00  0.00     0.179 C 
HETATM   24  C4  UNK     1      19.818  -4.464  11.996  1.00  0.00     0.122 A 
ENDBRANCH  17  18
ENDBRANCH  15  17
ENDBRANCH   4  13
TORSDOF 3
ENDMDL
MODEL 2
REMARK VINA RESULT:      -7.9      1.859      2.741
REMARK  3 active torsions:
REMARK  status: ('A' for Active; 'I' for Inactive)
REMARK    1  A    between atoms: C1_8  and  N1_5 
REMARK       I    between atoms: C5_12  and  N1_5 
REMARK    2  A    between atoms: C1_8  and  C2_9 
REMARK    3  A    between atoms: C5_12  and  C6_13 
ROOT
HETATM    1 Br1  UNK     1      18.620   1.694  20.635  1.00  0.00    -0.051 Br
HETATM    2  O1  UNK     1      19.436   0.597  14.724  1.00  0.00    -0.274 OA
HETATM    3  O3  UNK     1      19.460  -0.855  12.960  1.00  0.00    -0.259 OA
HETATM    4  C6  UNK     1      18.914  -1.766  15.078  1.00  0.00     0.108 A 
HETATM    5  C8  UNK     1      18.889  -0.223  16.947  1.00  0.00     0.000 A 
HETATM    6  C9  UNK     1      18.727  -1.556  16.387  1.00  0.00     0.037 A 
HETATM    7  C11 UNK     1      19.240   0.824  16.100  1.00  0.00     0.089 A 
HETATM    8  C12 UNK     1      19.288  -0.666  14.160  1.00  0.00     0.304 A 
HETATM    9  C14 UNK     1      18.703   0.042  18.306  1.00  0.00     0.033 A 
HETATM   10  C15 UNK     1      19.410   2.124  16.574  1.00  0.00     0.039 A 
HETATM   11  C16 UNK     1      18.871   1.341  18.795  1.00  0.00     0.011 A 
HETATM   12  C17 UNK     1      19.223   2.379  17.930  1.00  0.00     0.022 A 
ENDROOT
BRANCH   4  13
HETATM   13  C5  UNK     1      18.728  -3.144  14.608  1.00  0.00     0.259 C 
HETATM   14  O2  UNK     1      17.777  -3.382  13.855  1.00  0.00    -0.267 OA
HETATM   15  N1  UNK     1      19.652  -4.104  15.034  1.00  0.00    -0.348 N 
HETATM   16  C7  UNK     1      20.761  -3.775  15.927  1.00  0.00     0.153 C 
BRANCH  15  17
HETATM   17  C1  UNK     1      19.571  -5.497  14.617  1.00  0.00     0.167 C 
BRANCH  17  18
HETATM   18  C2  UNK     1      18.269  -6.083  15.076  1.00  0.00     0.003 A 
HETATM   19  C3  UNK     1      17.346  -6.790  14.311  1.00  0.00     0.060 A 
HETATM   20  C10 UNK     1      17.411  -7.137  12.880  1.00  0.00     0.073 C 
HETATM   21  N3  UNK     1      16.289  -7.172  15.033  1.00  0.00    -0.178 NA
HETATM   22  N2  UNK     1      16.568  -6.693  16.258  1.00  0.00    -0.284 N 
HETATM   23  C13 UNK     1      15.640  -6.911  17.342  1.00  0.00     0.179 C 
HETATM   24  C4  UNK     1      17.757  -6.028  16.332  1.00  0.00     0.122 A 
ENDBRANCH  17  18
ENDBRANCH  15  17
ENDBRANCH   4  13
TORSDOF 3
ENDMDL
MODEL 3
REMARK VINA RESULT:      -7.8     17.123     20.923
REMARK  3 active torsions:
REMARK  status: ('A' for Active; 'I' for Inactive)
REMARK    1  A    between atoms: C1_8  and  N1_5 
REMARK       I    between atoms: C5_12  and  N1_5 
REMARK    2  A    between atoms: C1_8  and  C2_9 
REMARK    3  A    between atoms: C5_12  and  C6_13 
ROOT
HETATM    1 Br1  UNK     1      16.036  14.847  34.231  1.00  0.00    -0.051 Br
HETATM    2  O1  UNK     1      15.525   8.858  35.053  1.00  0.00    -0.274 OA
HETATM    3  O3  UNK     1      16.357   6.744  34.811  1.00  0.00    -0.259 OA
HETATM    4  C6  UNK     1      17.681   8.511  33.952  1.00  0.00     0.108 A 
HETATM    5  C8  UNK     1      16.796  10.752  34.211  1.00  0.00     0.000 A 
HETATM    6  C9  UNK     1      17.823   9.828  33.756  1.00  0.00     0.037 A 
HETATM    7  C11 UNK     1      15.669  10.244  34.849  1.00  0.00     0.089 A 
HETATM    8  C12 UNK     1      16.490   7.950  34.630  1.00  0.00     0.304 A 
HETATM    9  C14 UNK     1      16.902  12.133  34.027  1.00  0.00     0.033 A 
HETATM   10  C15 UNK     1      14.649  11.076  35.309  1.00  0.00     0.039 A 
HETATM   11  C16 UNK     1      15.887  12.980  34.482  1.00  0.00     0.011 A 
HETATM   12  C17 UNK     1      14.764  12.452  35.122  1.00  0.00     0.022 A 
ENDROOT
BRANCH   4  13
HETATM   13  C5  UNK     1      18.770   7.660  33.459  1.00  0.00     0.259 C 
HETATM   14  O2  UNK     1      19.772   7.521  34.169  1.00  0.00    -0.267 OA
HETATM   15  N1  UNK     1      18.598   7.045  32.214  1.00  0.00    -0.348 N 
HETATM   16  C7  UNK     1      17.395   7.240  31.409  1.00  0.00     0.153 C 
BRANCH  15  17
HETATM   17  C1  UNK     1      19.608   6.169  31.636  1.00  0.00     0.167 C 
BRANCH  17  18
HETATM   18  C2  UNK     1      18.989   4.846  31.297  1.00  0.00     0.003 A 
HETATM   19  C3  UNK     1      18.377   3.952  32.170  1.00  0.00     0.060 A 
HETATM   20  C10 UNK     1      18.184   4.075  33.626  1.00  0.00     0.073 C 
HETATM   21  N3  UNK     1      17.931   2.864  31.537  1.00  0.00    -0.178 NA
HETATM   22  N2  UNK     1      18.273   3.093  30.258  1.00  0.00    -0.284 N 
HETATM   23  C13 UNK     1      17.951   2.120  29.242  1.00  0.00     0.179 C 
HETATM   24  C4  UNK     1      18.916   4.281  30.064  1.00  0.00     0.122 A 
ENDBRANCH  17  18
ENDBRANCH  15  17
ENDBRANCH   4  13
TORSDOF 3
ENDMDL
MODEL 4
REMARK VINA RESULT:      -7.7     12.098     13.538
REMARK  3 active torsions:
REMARK  status: ('A' for Active; 'I' for Inactive)
REMARK    1  A    between atoms: C1_8  and  N1_5 
REMARK       I    between atoms: C5_12  and  N1_5 
REMARK    2  A    between atoms: C1_8  and  C2_9 
REMARK    3  A    between atoms: C5_12  and  C6_13 
ROOT
HETATM    1 Br1  UNK     1      15.343  13.375  11.080  1.00  0.00    -0.051 Br
HETATM    2  O1  UNK     1      16.639   7.598   9.757  1.00  0.00    -0.274 OA
HETATM    3  O3  UNK     1      15.957   5.466   9.299  1.00  0.00    -0.259 OA
HETATM    4  C6  UNK     1      14.253   7.063   9.700  1.00  0.00     0.108 A 
HETATM    5  C8  UNK     1      14.980   9.323  10.185  1.00  0.00     0.000 A 
HETATM    6  C9  UNK     1      13.934   8.331   9.991  1.00  0.00     0.037 A 
HETATM    7  C11 UNK     1      16.310   8.933  10.063  1.00  0.00     0.089 A 
HETATM    8  C12 UNK     1      15.662   6.626   9.566  1.00  0.00     0.304 A 
HETATM    9  C14 UNK     1      14.694  10.656  10.490  1.00  0.00     0.033 A 
HETATM   10  C15 UNK     1      17.358   9.835  10.236  1.00  0.00     0.039 A 
HETATM   11  C16 UNK     1      15.735  11.573  10.666  1.00  0.00     0.011 A 
HETATM   12  C17 UNK     1      17.064  11.162  10.539  1.00  0.00     0.022 A 
ENDROOT
BRANCH   4  13
HETATM   13  C5  UNK     1      13.130   6.136   9.522  1.00  0.00     0.259 C 
HETATM   14  O2  UNK     1      12.695   5.546  10.518  1.00  0.00    -0.267 OA
HETATM   15  N1  UNK     1      12.610   5.986   8.232  1.00  0.00    -0.348 N 
HETATM   16  C7  UNK     1      13.158   6.705   7.084  1.00  0.00     0.153 C 
BRANCH  15  17
HETATM   17  C1  UNK     1      11.488   5.103   7.945  1.00  0.00     0.167 C 
BRANCH  17  18
HETATM   18  C2  UNK     1      10.209   5.882   8.005  1.00  0.00     0.003 A 
HETATM   19  C3  UNK     1       9.472   6.377   6.932  1.00  0.00     0.060 A 
HETATM   20  C10 UNK     1       9.755   6.263   5.491  1.00  0.00     0.073 C 
HETATM   21  N3  UNK     1       8.378   7.029   7.338  1.00  0.00    -0.178 NA
HETATM   22  N2  UNK     1       8.445   6.932   8.677  1.00  0.00    -0.284 N 
HETATM   23  C13 UNK     1       7.413   7.527   9.493  1.00  0.00     0.179 C 
HETATM   24  C4  UNK     1       9.536   6.246   9.127  1.00  0.00     0.122 A 
ENDBRANCH  17  18
ENDBRANCH  15  17
ENDBRANCH   4  13
TORSDOF 3
ENDMDL
MODEL 5
REMARK VINA RESULT:      -7.7     13.361     14.744
REMARK  3 active torsions:
REMARK  status: ('A' for Active; 'I' for Inactive)
REMARK    1  A    between atoms: C1_8  and  N1_5 
REMARK       I    between atoms: C5_12  and  N1_5 
REMARK    2  A    between atoms: C1_8  and  C2_9 
REMARK    3  A    between atoms: C5_12  and  C6_13 
ROOT
HETATM    1 Br1  UNK     1       6.500  10.857  12.806  1.00  0.00    -0.051 Br
HETATM    2  O1  UNK     1       7.127   6.455   8.679  1.00  0.00    -0.274 OA
HETATM    3  O3  UNK     1       8.424   5.290   7.201  1.00  0.00    -0.259 OA
HETATM    4  C6  UNK     1       9.485   7.040   8.395  1.00  0.00     0.108 A 
HETATM    5  C8  UNK     1       8.107   8.273   9.961  1.00  0.00     0.000 A 
HETATM    6  C9  UNK     1       9.379   8.020   9.302  1.00  0.00     0.037 A 
HETATM    7  C11 UNK     1       7.010   7.483   9.634  1.00  0.00     0.089 A 
HETATM    8  C12 UNK     1       8.330   6.188   8.031  1.00  0.00     0.304 A 
HETATM    9  C14 UNK     1       7.951   9.284  10.913  1.00  0.00     0.033 A 
HETATM   10  C15 UNK     1       5.765   7.675  10.230  1.00  0.00     0.039 A 
HETATM   11  C16 UNK     1       6.707   9.488  11.519  1.00  0.00     0.011 A 
HETATM   12  C17 UNK     1       5.617   8.684  11.178  1.00  0.00     0.022 A 
ENDROOT
BRANCH   4  13
HETATM   13  C5  UNK     1      10.807   6.861   7.784  1.00  0.00     0.259 C 
HETATM   14  O2  UNK     1      11.095   7.549   6.798  1.00  0.00    -0.267 OA
HETATM   15  N1  UNK     1      11.670   5.927   8.367  1.00  0.00    -0.348 N 
HETATM   16  C7  UNK     1      11.285   5.135   9.533  1.00  0.00     0.153 C 
BRANCH  15  17
HETATM   17  C1  UNK     1      13.009   5.680   7.852  1.00  0.00     0.167 C 
BRANCH  17  18
HETATM   18  C2  UNK     1      14.006   6.468   8.646  1.00  0.00     0.003 A 
HETATM   19  C3  UNK     1      14.957   5.974   9.535  1.00  0.00     0.060 A 
HETATM   20  C10 UNK     1      15.221   4.575   9.915  1.00  0.00     0.073 C 
HETATM   21  N3  UNK     1      15.688   6.953  10.076  1.00  0.00    -0.178 NA
HETATM   22  N2  UNK     1      15.180   8.061   9.512  1.00  0.00    -0.284 N 
HETATM   23  C13 UNK     1      15.723   9.355   9.851  1.00  0.00     0.179 C 
HETATM   24  C4  UNK     1      14.160   7.817   8.638  1.00  0.00     0.122 A 
ENDBRANCH  17  18
ENDBRANCH  15  17
ENDBRANCH   4  13
TORSDOF 3
ENDMDL
MODEL 6
REMARK VINA RESULT:      -7.7     18.808     21.459
REMARK  3 active torsions:
REMARK  status: ('A' for Active; 'I' for Inactive)
REMARK    1  A    between atoms: C1_8  and  N1_5 
REMARK       I    between atoms: C5_12  and  N1_5 
REMARK    2  A    between atoms: C1_8  and  C2_9 
REMARK    3  A    between atoms: C5_12  and  C6_13 
ROOT
HETATM    1 Br1  UNK     1      20.507  -1.625  29.908  1.00  0.00    -0.051 Br
HETATM    2  O1  UNK     1      18.613  -1.229  35.657  1.00  0.00    -0.274 OA
HETATM    3  O3  UNK     1      18.595  -2.023  37.799  1.00  0.00    -0.259 OA
HETATM    4  C6  UNK     1      19.910  -3.221  36.234  1.00  0.00     0.108 A 
HETATM    5  C8  UNK     1      19.926  -2.376  33.963  1.00  0.00     0.000 A 
HETATM    6  C9  UNK     1      20.346  -3.335  34.973  1.00  0.00     0.037 A 
HETATM    7  C11 UNK     1      19.068  -1.345  34.329  1.00  0.00     0.089 A 
HETATM    8  C12 UNK     1      18.996  -2.130  36.646  1.00  0.00     0.304 A 
HETATM    9  C14 UNK     1      20.356  -2.457  32.636  1.00  0.00     0.033 A 
HETATM   10  C15 UNK     1      18.629  -0.394  33.409  1.00  0.00     0.039 A 
HETATM   11  C16 UNK     1      19.924  -1.511  31.702  1.00  0.00     0.011 A 
HETATM   12  C17 UNK     1      19.063  -0.481  32.088  1.00  0.00     0.022 A 
ENDROOT
BRANCH   4  13
HETATM   13  C5  UNK     1      20.388  -4.235  37.181  1.00  0.00     0.259 C 
HETATM   14  O2  UNK     1      21.437  -4.013  37.797  1.00  0.00    -0.267 OA
HETATM   15  N1  UNK     1      19.616  -5.390  37.338  1.00  0.00    -0.348 N 
HETATM   16  C7  UNK     1      18.382  -5.609  36.587  1.00  0.00     0.153 C 
BRANCH  15  17
HETATM   17  C1  UNK     1      19.988  -6.454  38.261  1.00  0.00     0.167 C 
BRANCH  17  18
HETATM   18  C2  UNK     1      20.929  -7.401  37.580  1.00  0.00     0.003 A 
HETATM   19  C3  UNK     1      22.269  -7.624  37.884  1.00  0.00     0.060 A 
HETATM   20  C10 UNK     1      23.090  -6.997  38.935  1.00  0.00     0.073 C 
HETATM   21  N3  UNK     1      22.818  -8.538  37.079  1.00  0.00    -0.178 NA
HETATM   22  N2  UNK     1      21.801  -8.880  36.269  1.00  0.00    -0.284 N 
HETATM   23  C13 UNK     1      22.005  -9.870  35.238  1.00  0.00     0.179 C 
HETATM   24  C4  UNK     1      20.637  -8.219  36.536  1.00  0.00     0.122 A 
ENDBRANCH  17  18
ENDBRANCH  15  17
ENDBRANCH   4  13
TORSDOF 3
ENDMDL
MODEL 7
REMARK VINA RESULT:      -7.5     12.138     13.597
REMARK  3 active torsions:
REMARK  status: ('A' for Active; 'I' for Inactive)
REMARK    1  A    between atoms: C1_8  and  N1_5 
REMARK       I    between atoms: C5_12  and  N1_5 
REMARK    2  A    between atoms: C1_8  and  C2_9 
REMARK    3  A    between atoms: C5_12  and  C6_13 
ROOT
HETATM    1 Br1  UNK     1      16.019  13.914   6.552  1.00  0.00    -0.051 Br
HETATM    2  O1  UNK     1      17.382   8.940   9.745  1.00  0.00    -0.274 OA
HETATM    3  O3  UNK     1      16.734   7.017  10.795  1.00  0.00    -0.259 OA
HETATM    4  C6  UNK     1      15.024   8.291   9.764  1.00  0.00     0.108 A 
HETATM    5  C8  UNK     1      15.714  10.330   8.651  1.00  0.00     0.000 A 
HETATM    6  C9  UNK     1      14.691   9.380   9.060  1.00  0.00     0.037 A 
HETATM    7  C11 UNK     1      17.038  10.087   9.004  1.00  0.00     0.089 A 
HETATM    8  C12 UNK     1      16.426   8.013  10.150  1.00  0.00     0.304 A 
HETATM    9  C14 UNK     1      15.413  11.479   7.915  1.00  0.00     0.033 A 
HETATM   10  C15 UNK     1      18.065  10.957   8.642  1.00  0.00     0.039 A 
HETATM   11  C16 UNK     1      16.432  12.361   7.546  1.00  0.00     0.011 A 
HETATM   12  C17 UNK     1      17.755  12.100   7.908  1.00  0.00     0.022 A 
ENDROOT
BRANCH   4  13
HETATM   13  C5  UNK     1      13.923   7.393  10.130  1.00  0.00     0.259 C 
HETATM   14  O2  UNK     1      13.161   7.741  11.040  1.00  0.00    -0.267 OA
HETATM   15  N1  UNK     1      13.795   6.198   9.414  1.00  0.00    -0.348 N 
HETATM   16  C7  UNK     1      14.721   5.829   8.346  1.00  0.00     0.153 C 
BRANCH  15  17
HETATM   17  C1  UNK     1      12.732   5.241   9.685  1.00  0.00     0.167 C 
BRANCH  17  18
HETATM   18  C2  UNK     1      11.588   5.483   8.746  1.00  0.00     0.003 A 
HETATM   19  C3  UNK     1      10.244   5.194   8.962  1.00  0.00     0.060 A 
HETATM   20  C10 UNK     1       9.612   4.588  10.148  1.00  0.00     0.073 C 
HETATM   21  N3  UNK     1       9.486   5.539   7.917  1.00  0.00    -0.178 NA
HETATM   22  N2  UNK     1      10.378   6.045   7.048  1.00  0.00    -0.284 N 
HETATM   23  C13 UNK     1       9.932   6.539   5.767  1.00  0.00     0.179 C 
HETATM   24  C4  UNK     1      11.663   6.033   7.507  1.00  0.00     0.122 A 
ENDBRANCH  17  18
ENDBRANCH  15  17
ENDBRANCH   4  13
TORSDOF 3
ENDMDL
MODEL 8
REMARK VINA RESULT:      -7.3     24.460     25.700
REMARK  3 active torsions:
REMARK  status: ('A' for Active; 'I' for Inactive)
REMARK    1  A    between atoms: C1_8  and  N1_5 
REMARK       I    between atoms: C5_12  and  N1_5 
REMARK    2  A    between atoms: C1_8  and  C2_9 
REMARK    3  A    between atoms: C5_12  and  C6_13 
ROOT
HETATM    1 Br1  UNK     1      19.584  -8.850  38.693  1.00  0.00    -0.051 Br
HETATM    2  O1  UNK     1      24.624  -5.476  38.818  1.00  0.00    -0.274 OA
HETATM    3  O3  UNK     1      26.900  -5.313  38.932  1.00  0.00    -0.259 OA
HETATM    4  C6  UNK     1      25.989  -7.500  38.975  1.00  0.00     0.108 A 
HETATM    5  C8  UNK     1      23.575  -7.669  38.854  1.00  0.00     0.000 A 
HETATM    6  C9  UNK     1      24.895  -8.272  38.950  1.00  0.00     0.037 A 
HETATM    7  C11 UNK     1      23.470  -6.283  38.791  1.00  0.00     0.089 A 
HETATM    8  C12 UNK     1      25.901  -6.023  38.909  1.00  0.00     0.304 A 
HETATM    9  C14 UNK     1      22.407  -8.435  38.825  1.00  0.00     0.033 A 
HETATM   10  C15 UNK     1      22.235  -5.645  38.698  1.00  0.00     0.039 A 
HETATM   11  C16 UNK     1      21.161  -7.809  38.732  1.00  0.00     0.011 A 
HETATM   12  C17 UNK     1      21.076  -6.416  38.668  1.00  0.00     0.022 A 
ENDROOT
BRANCH   4  13
HETATM   13  C5  UNK     1      27.275  -8.199  39.073  1.00  0.00     0.259 C 
HETATM   14  O2  UNK     1      27.654  -8.575  40.188  1.00  0.00    -0.267 OA
HETATM   15  N1  UNK     1      27.991  -8.408  37.890  1.00  0.00    -0.348 N 
HETATM   16  C7  UNK     1      27.503  -7.944  36.593  1.00  0.00     0.153 C 
BRANCH  15  17
HETATM   17  C1  UNK     1      29.271  -9.102  37.869  1.00  0.00     0.167 C 
BRANCH  17  18
HETATM   18  C2  UNK     1      30.381  -8.104  37.739  1.00  0.00     0.003 A 
HETATM   19  C3  UNK     1      31.528  -8.214  36.957  1.00  0.00     0.060 A 
HETATM   20  C10 UNK     1      31.935  -9.321  36.073  1.00  0.00     0.073 C 
HETATM   21  N3  UNK     1      32.314  -7.141  37.073  1.00  0.00    -0.178 NA
HETATM   22  N2  UNK     1      31.642  -6.362  37.937  1.00  0.00    -0.284 N 
HETATM   23  C13 UNK     1      32.185  -5.080  38.322  1.00  0.00     0.179 C 
HETATM   24  C4  UNK     1      30.466  -6.903  38.367  1.00  0.00     0.122 A 
ENDBRANCH  17  18
ENDBRANCH  15  17
ENDBRANCH   4  13
TORSDOF 3
ENDMDL
MODEL 9
REMARK VINA RESULT:      -7.3     24.230     25.970
REMARK  3 active torsions:
REMARK  status: ('A' for Active; 'I' for Inactive)
REMARK    1  A    between atoms: C1_8  and  N1_5 
REMARK       I    between atoms: C5_12  and  N1_5 
REMARK    2  A    between atoms: C1_8  and  C2_9 
REMARK    3  A    between atoms: C5_12  and  C6_13 
ROOT
HETATM    1 Br1  UNK     1      26.153 -10.533  36.444  1.00  0.00    -0.051 Br
HETATM    2  O1  UNK     1      28.121  -5.730  39.584  1.00  0.00    -0.274 OA
HETATM    3  O3  UNK     1      29.563  -3.974  39.829  1.00  0.00    -0.259 OA
HETATM    4  C6  UNK     1      29.848  -5.322  37.901  1.00  0.00     0.108 A 
HETATM    5  C8  UNK     1      28.317  -7.183  37.645  1.00  0.00     0.000 A 
HETATM    6  C9  UNK     1      29.437  -6.376  37.185  1.00  0.00     0.037 A 
HETATM    7  C11 UNK     1      27.685  -6.840  38.835  1.00  0.00     0.089 A 
HETATM    8  C12 UNK     1      29.189  -4.939  39.171  1.00  0.00     0.304 A 
HETATM    9  C14 UNK     1      27.855  -8.291  36.930  1.00  0.00     0.033 A 
HETATM   10  C15 UNK     1      26.606  -7.571  39.330  1.00  0.00     0.039 A 
HETATM   11  C16 UNK     1      26.774  -9.034  37.414  1.00  0.00     0.011 A 
HETATM   12  C17 UNK     1      26.151  -8.674  38.611  1.00  0.00     0.022 A 
ENDROOT
BRANCH   4  13
HETATM   13  C5  UNK     1      30.985  -4.570  37.356  1.00  0.00     0.259 C 
HETATM   14  O2  UNK     1      30.764  -3.475  36.828  1.00  0.00    -0.267 OA
HETATM   15  N1  UNK     1      32.257  -5.139  37.481  1.00  0.00    -0.348 N 
HETATM   16  C7  UNK     1      32.470  -6.438  38.113  1.00  0.00     0.153 C 
BRANCH  15  17
HETATM   17  C1  UNK     1      33.456  -4.473  36.990  1.00  0.00     0.167 C 
BRANCH  17  18
HETATM   18  C2  UNK     1      34.146  -5.355  35.993  1.00  0.00     0.003 A 
HETATM   19  C3  UNK     1      33.649  -5.795  34.769  1.00  0.00     0.060 A 
HETATM   20  C10 UNK     1      32.341  -5.511  34.152  1.00  0.00     0.073 C 
HETATM   21  N3  UNK     1      34.526  -6.571  34.126  1.00  0.00    -0.178 NA
HETATM   22  N2  UNK     1      35.574  -6.607  34.966  1.00  0.00    -0.284 N 
HETATM   23  C13 UNK     1      36.752  -7.364  34.613  1.00  0.00     0.179 C 
HETATM   24  C4  UNK     1      35.390  -5.885  36.109  1.00  0.00     0.122 A 
ENDBRANCH  17  18
ENDBRANCH  15  17
ENDBRANCH   4  13
TORSDOF 3
ENDMDL
MODEL 10
REMARK VINA RESULT:      -7.2     21.202     22.613
REMARK  3 active torsions:
REMARK  status: ('A' for Active; 'I' for Inactive)
REMARK    1  A    between atoms: C1_8  and  N1_5 
REMARK       I    between atoms: C5_12  and  N1_5 
REMARK    2  A    between atoms: C1_8  and  C2_9 
REMARK    3  A    between atoms: C5_12  and  C6_13 
ROOT
HETATM    1 Br1  UNK     1      34.432  -6.382  37.114  1.00  0.00    -0.051 Br
HETATM    2  O1  UNK     1      36.558  -8.218  31.737  1.00  0.00    -0.274 OA
HETATM    3  O3  UNK     1      36.197  -9.057  29.643  1.00  0.00    -0.259 OA
HETATM    4  C6  UNK     1      34.283  -8.735  31.001  1.00  0.00     0.108 A 
HETATM    5  C8  UNK     1      34.669  -7.846  33.222  1.00  0.00     0.000 A 
HETATM    6  C9  UNK     1      33.783  -8.337  32.178  1.00  0.00     0.037 A 
HETATM    7  C11 UNK     1      36.037  -7.798  32.977  1.00  0.00     0.089 A 
HETATM    8  C12 UNK     1      35.736  -8.693  30.719  1.00  0.00     0.304 A 
HETATM    9  C14 UNK     1      34.191  -7.420  34.464  1.00  0.00     0.033 A 
HETATM   10  C15 UNK     1      36.938  -7.337  33.935  1.00  0.00     0.039 A 
HETATM   11  C16 UNK     1      35.083  -6.956  35.435  1.00  0.00     0.011 A 
HETATM   12  C17 UNK     1      36.454  -6.914  35.170  1.00  0.00     0.022 A 
ENDROOT
BRANCH   4  13
HETATM   13  C5  UNK     1      33.311  -9.215  30.012  1.00  0.00     0.259 C 
HETATM   14  O2  UNK     1      33.130 -10.433  29.913  1.00  0.00    -0.267 OA
HETATM   15  N1  UNK     1      32.639  -8.256  29.247  1.00  0.00    -0.348 N 
HETATM   16  C7  UNK     1      32.888  -6.825  29.398  1.00  0.00     0.153 C 
BRANCH  15  17
HETATM   17  C1  UNK     1      31.644  -8.620  28.246  1.00  0.00     0.167 C 
BRANCH  17  18
HETATM   18  C2  UNK     1      30.281  -8.616  28.869  1.00  0.00     0.003 A 
HETATM   19  C3  UNK     1      29.503  -9.720  29.205  1.00  0.00     0.060 A 
HETATM   20  C10 UNK     1      29.816 -11.151  29.038  1.00  0.00     0.073 C 
HETATM   21  N3  UNK     1      28.335  -9.361  29.745  1.00  0.00    -0.178 NA
HETATM   22  N2  UNK     1      28.397  -8.019  29.740  1.00  0.00    -0.284 N 
HETATM   23  C13 UNK     1      27.294  -7.247  30.260  1.00  0.00     0.179 C 
HETATM   24  C4  UNK     1      29.557  -7.522  29.220  1.00  0.00     0.122 A 
ENDBRANCH  17  18
ENDBRANCH  15  17
ENDBRANCH   4  13
TORSDOF 3
ENDMDL
