MODEL 1
REMARK VINA RESULT:      -8.9      0.000      0.000
REMARK  4 active torsions:
REMARK  status: ('A' for Active; 'I' for Inactive)
REMARK    1  A    between atoms: C10_16  and  O2_2 
REMARK    2  A    between atoms: C14_20  and  O3_3 
REMARK       I    between atoms: C6_12  and  N1_6 
REMARK    3  A    between atoms: C9_15  and  N1_6 
REMARK    4  A    between atoms: C3_9  and  C6_12 
ROOT
HETATM    1  O1  UNK     1      19.991  -7.864  35.781  1.00  0.00    -0.274 OA
HETATM    2  O5  UNK     1      20.172  -5.959  34.532  1.00  0.00    -0.259 OA
HETATM    3  C1  UNK     1      19.912  -7.708  38.206  1.00  0.00    -0.001 A 
HETATM    4  C2  UNK     1      19.901  -8.476  37.046  1.00  0.00     0.092 A 
HETATM    5  C3  UNK     1      20.103  -5.685  36.885  1.00  0.00     0.108 A 
HETATM    6  C4  UNK     1      20.017  -6.261  38.090  1.00  0.00     0.037 A 
HETATM    7  C5  UNK     1      19.821  -8.351  39.443  1.00  0.00     0.017 A 
HETATM    8  C7  UNK     1      19.804  -9.866  37.088  1.00  0.00     0.074 A 
HETATM    9  C8  UNK     1      20.094  -6.483  35.638  1.00  0.00     0.304 A 
HETATM   10  C10 UNK     1      19.714 -10.500  38.325  1.00  0.00     0.068 A 
HETATM   11  C11 UNK     1      19.722  -9.745  39.500  1.00  0.00     0.037 A 
ENDROOT
BRANCH   5  12
HETATM   12  C6  UNK     1      20.206  -4.221  36.871  1.00  0.00     0.262 C 
HETATM   13  O4  UNK     1      21.297  -3.684  37.057  1.00  0.00    -0.267 OA
HETATM   14  N1  UNK     1      18.981  -3.612  36.638  1.00  0.00    -0.323 N 
HETATM   15  H4  UNK     1      18.161  -4.203  36.525  1.00  0.00     0.169 HD
BRANCH  14  16
HETATM   16  C9  UNK     1      18.708  -2.225  36.559  1.00  0.00     0.035 A 
HETATM   17  C12 UNK     1      18.124  -1.587  37.640  1.00  0.00     0.032 A 
HETATM   18  C15 UNK     1      17.855  -0.220  37.562  1.00  0.00     0.039 A 
HETATM   19  C14 UNK     1      18.173   0.488  36.403  1.00  0.00     0.068 A 
HETATM   20  C16 UNK     1      18.761  -0.171  35.322  1.00  0.00     0.039 A 
HETATM   21  C13 UNK     1      19.030  -1.537  35.402  1.00  0.00     0.032 A 
BRANCH  19  22
HETATM   22  O3  UNK     1      17.910   1.820  36.327  1.00  0.00    -0.356 OA
HETATM   23  C17 UNK     1      18.416   2.519  35.189  1.00  0.00     0.210 C 
ENDBRANCH  19  22
ENDBRANCH  14  16
ENDBRANCH   5  12
BRANCH  10  24
HETATM   24  O2  UNK     1      19.616 -11.856  38.389  1.00  0.00    -0.361 OA
HETATM   25  H10 UNK     1      19.985 -12.159  39.237  1.00  0.00     0.217 HD
ENDBRANCH  10  24
TORSDOF 4
ENDMDL
MODEL 2
REMARK VINA RESULT:      -8.7      7.725     10.405
REMARK  4 active torsions:
REMARK  status: ('A' for Active; 'I' for Inactive)
REMARK    1  A    between atoms: C10_16  and  O2_2 
REMARK    2  A    between atoms: C14_20  and  O3_3 
REMARK       I    between atoms: C6_12  and  N1_6 
REMARK    3  A    between atoms: C9_15  and  N1_6 
REMARK    4  A    between atoms: C3_9  and  C6_12 
ROOT
HETATM    1  O1  UNK     1      18.768   0.771  32.527  1.00  0.00    -0.274 OA
HETATM    2  O5  UNK     1      17.908   2.651  33.502  1.00  0.00    -0.259 OA
HETATM    3  C1  UNK     1      19.551   0.862  30.227  1.00  0.00    -0.001 A 
HETATM    4  C2  UNK     1      19.336   0.146  31.400  1.00  0.00     0.092 A 
HETATM    5  C3  UNK     1      18.642   2.858  31.258  1.00  0.00     0.108 A 
HETATM    6  C4  UNK     1      19.182   2.269  30.185  1.00  0.00     0.037 A 
HETATM    7  C5  UNK     1      20.117   0.207  29.131  1.00  0.00     0.017 A 
HETATM    8  C7  UNK     1      19.666  -1.204  31.507  1.00  0.00     0.074 A 
HETATM    9  C8  UNK     1      18.403   2.115  32.516  1.00  0.00     0.304 A 
HETATM   10  C10 UNK     1      20.229  -1.850  30.408  1.00  0.00     0.068 A 
HETATM   11  C11 UNK     1      20.455  -1.146  29.223  1.00  0.00     0.037 A 
ENDROOT
BRANCH   5  12
HETATM   12  C6  UNK     1      18.302   4.279  31.117  1.00  0.00     0.262 C 
HETATM   13  O4  UNK     1      18.561   4.867  30.068  1.00  0.00    -0.267 OA
HETATM   14  N1  UNK     1      17.702   4.790  32.259  1.00  0.00    -0.323 N 
HETATM   15  H4  UNK     1      17.578   4.172  33.058  1.00  0.00     0.169 HD
BRANCH  14  16
HETATM   16  C9  UNK     1      17.248   6.113  32.477  1.00  0.00     0.035 A 
HETATM   17  C12 UNK     1      15.935   6.436  32.180  1.00  0.00     0.032 A 
HETATM   18  C15 UNK     1      15.488   7.740  32.395  1.00  0.00     0.039 A 
HETATM   19  C14 UNK     1      16.362   8.702  32.904  1.00  0.00     0.068 A 
HETATM   20  C16 UNK     1      17.682   8.359  33.198  1.00  0.00     0.039 A 
HETATM   21  C13 UNK     1      18.127   7.055  32.984  1.00  0.00     0.032 A 
BRANCH  19  22
HETATM   22  O3  UNK     1      15.926   9.973  33.113  1.00  0.00    -0.356 OA
HETATM   23  C17 UNK     1      16.590  10.730  34.125  1.00  0.00     0.210 C 
ENDBRANCH  19  22
ENDBRANCH  14  16
ENDBRANCH   5  12
BRANCH  10  24
HETATM   24  O2  UNK     1      20.562  -3.167  30.491  1.00  0.00    -0.361 OA
HETATM   25  H10 UNK     1      20.492  -3.566  29.607  1.00  0.00     0.217 HD
ENDBRANCH  10  24
TORSDOF 4
ENDMDL
MODEL 3
REMARK VINA RESULT:      -8.5      1.513      8.430
REMARK  4 active torsions:
REMARK  status: ('A' for Active; 'I' for Inactive)
REMARK    1  A    between atoms: C10_16  and  O2_2 
REMARK    2  A    between atoms: C14_20  and  O3_3 
REMARK       I    between atoms: C6_12  and  N1_6 
REMARK    3  A    between atoms: C9_15  and  N1_6 
REMARK    4  A    between atoms: C3_9  and  C6_12 
ROOT
HETATM    1  O1  UNK     1      19.614  -1.095  34.810  1.00  0.00    -0.274 OA
HETATM    2  O5  UNK     1      20.678  -3.032  34.230  1.00  0.00    -0.259 OA
HETATM    3  C1  UNK     1      18.592  -0.896  37.006  1.00  0.00    -0.001 A 
HETATM    4  C2  UNK     1      18.893  -0.350  35.763  1.00  0.00     0.092 A 
HETATM    5  C3  UNK     1      19.720  -2.952  36.396  1.00  0.00     0.108 A 
HETATM    6  C4  UNK     1      19.036  -2.249  37.306  1.00  0.00     0.037 A 
HETATM    7  C5  UNK     1      17.875  -0.126  37.926  1.00  0.00     0.017 A 
HETATM    8  C7  UNK     1      18.497   0.940  35.413  1.00  0.00     0.074 A 
HETATM    9  C8  UNK     1      20.051  -2.391  35.067  1.00  0.00     0.304 A 
HETATM   10  C10 UNK     1      17.782   1.701  36.335  1.00  0.00     0.068 A 
HETATM   11  C11 UNK     1      17.472   1.169  37.589  1.00  0.00     0.037 A 
ENDROOT
BRANCH   5  12
HETATM   12  C6  UNK     1      20.123  -4.307  36.791  1.00  0.00     0.262 C 
HETATM   13  O4  UNK     1      21.313  -4.560  36.975  1.00  0.00    -0.267 OA
HETATM   14  N1  UNK     1      19.038  -5.163  36.908  1.00  0.00    -0.323 N 
HETATM   15  H4  UNK     1      18.111  -4.801  36.699  1.00  0.00     0.169 HD
BRANCH  14  16
HETATM   16  C9  UNK     1      19.053  -6.533  37.267  1.00  0.00     0.035 A 
HETATM   17  C12 UNK     1      18.604  -7.476  36.360  1.00  0.00     0.032 A 
HETATM   18  C15 UNK     1      18.620  -8.826  36.715  1.00  0.00     0.039 A 
HETATM   19  C14 UNK     1      19.084  -9.211  37.973  1.00  0.00     0.068 A 
HETATM   20  C16 UNK     1      19.533  -8.246  38.875  1.00  0.00     0.039 A 
HETATM   21  C13 UNK     1      19.518  -6.898  38.520  1.00  0.00     0.032 A 
BRANCH  19  22
HETATM   22  O3  UNK     1      19.099 -10.526  38.318  1.00  0.00    -0.356 OA
HETATM   23  C17 UNK     1      20.134 -11.334  37.757  1.00  0.00     0.210 C 
ENDBRANCH  19  22
ENDBRANCH  14  16
ENDBRANCH   5  12
BRANCH  10  24
HETATM   24  O2  UNK     1      17.387   2.963  36.015  1.00  0.00    -0.361 OA
HETATM   25  H10 UNK     1      17.339   3.042  35.047  1.00  0.00     0.217 HD
ENDBRANCH  10  24
TORSDOF 4
ENDMDL
MODEL 4
REMARK VINA RESULT:      -8.5      6.336      8.909
REMARK  4 active torsions:
REMARK  status: ('A' for Active; 'I' for Inactive)
REMARK    1  A    between atoms: C10_16  and  O2_2 
REMARK    2  A    between atoms: C14_20  and  O3_3 
REMARK       I    between atoms: C6_12  and  N1_6 
REMARK    3  A    between atoms: C9_15  and  N1_6 
REMARK    4  A    between atoms: C3_9  and  C6_12 
ROOT
HETATM    1  O1  UNK     1      20.123  -1.557  29.114  1.00  0.00    -0.274 OA
HETATM    2  O5  UNK     1      19.266   0.098  27.792  1.00  0.00    -0.259 OA
HETATM    3  C1  UNK     1      20.036  -1.329  31.532  1.00  0.00    -0.001 A 
HETATM    4  C2  UNK     1      20.393  -2.057  30.402  1.00  0.00     0.092 A 
HETATM    5  C3  UNK     1      19.124   0.428  30.134  1.00  0.00     0.108 A 
HETATM    6  C4  UNK     1      19.378  -0.042  31.361  1.00  0.00     0.037 A 
HETATM    7  C5  UNK     1      20.321  -1.858  32.794  1.00  0.00     0.017 A 
HETATM    8  C7  UNK     1      21.026  -3.295  30.497  1.00  0.00     0.074 A 
HETATM    9  C8  UNK     1      19.496  -0.330  28.918  1.00  0.00     0.304 A 
HETATM   10  C10 UNK     1      21.307  -3.816  31.758  1.00  0.00     0.068 A 
HETATM   11  C11 UNK     1      20.954  -3.099  32.905  1.00  0.00     0.037 A 
ENDROOT
BRANCH   5  12
HETATM   12  C6  UNK     1      18.458   1.733  30.064  1.00  0.00     0.262 C 
HETATM   13  O4  UNK     1      17.478   1.880  29.335  1.00  0.00    -0.267 OA
HETATM   14  N1  UNK     1      19.067   2.676  30.881  1.00  0.00    -0.323 N 
HETATM   15  H4  UNK     1      19.890   2.399  31.409  1.00  0.00     0.169 HD
BRANCH  14  16
HETATM   16  C9  UNK     1      18.695   4.031  31.060  1.00  0.00     0.035 A 
HETATM   17  C12 UNK     1      19.092   4.972  30.126  1.00  0.00     0.032 A 
HETATM   18  C15 UNK     1      18.725   6.307  30.304  1.00  0.00     0.039 A 
HETATM   19  C14 UNK     1      17.968   6.680  31.415  1.00  0.00     0.068 A 
HETATM   20  C16 UNK     1      17.577   5.718  32.347  1.00  0.00     0.039 A 
HETATM   21  C13 UNK     1      17.943   4.384  32.168  1.00  0.00     0.032 A 
BRANCH  19  22
HETATM   22  O3  UNK     1      17.611   7.981  31.589  1.00  0.00    -0.356 OA
HETATM   23  C17 UNK     1      16.602   8.254  32.560  1.00  0.00     0.210 C 
ENDBRANCH  19  22
ENDBRANCH  14  16
ENDBRANCH   5  12
BRANCH  10  24
HETATM   24  O2  UNK     1      21.923  -5.023  31.874  1.00  0.00    -0.361 OA
HETATM   25  H10 UNK     1      22.859  -4.880  32.096  1.00  0.00     0.217 HD
ENDBRANCH  10  24
TORSDOF 4
ENDMDL
MODEL 5
REMARK VINA RESULT:      -8.4      9.147     13.643
REMARK  4 active torsions:
REMARK  status: ('A' for Active; 'I' for Inactive)
REMARK    1  A    between atoms: C10_16  and  O2_2 
REMARK    2  A    between atoms: C14_20  and  O3_3 
REMARK       I    between atoms: C6_12  and  N1_6 
REMARK    3  A    between atoms: C9_15  and  N1_6 
REMARK    4  A    between atoms: C3_9  and  C6_12 
ROOT
HETATM    1  O1  UNK     1      18.468   7.724  33.753  1.00  0.00    -0.274 OA
HETATM    2  O5  UNK     1      20.342   6.701  32.941  1.00  0.00    -0.259 OA
HETATM    3  C1  UNK     1      16.288   7.123  32.863  1.00  0.00    -0.001 A 
HETATM    4  C2  UNK     1      17.068   7.877  33.733  1.00  0.00     0.092 A 
HETATM    5  C3  UNK     1      18.273   6.033  31.998  1.00  0.00     0.108 A 
HETATM    6  C4  UNK     1      16.942   6.173  31.975  1.00  0.00     0.037 A 
HETATM    7  C5  UNK     1      14.903   7.302  32.871  1.00  0.00     0.017 A 
HETATM    8  C7  UNK     1      16.505   8.804  34.608  1.00  0.00     0.074 A 
HETATM    9  C8  UNK     1      19.123   6.826  32.916  1.00  0.00     0.304 A 
HETATM   10  C10 UNK     1      15.122   8.977  34.610  1.00  0.00     0.068 A 
HETATM   11  C11 UNK     1      14.323   8.227  33.744  1.00  0.00     0.037 A 
ENDROOT
BRANCH   5  12
HETATM   12  C6  UNK     1      18.839   5.052  31.066  1.00  0.00     0.262 C 
HETATM   13  O4  UNK     1      19.639   5.418  30.206  1.00  0.00    -0.267 OA
HETATM   14  N1  UNK     1      18.361   3.770  31.301  1.00  0.00    -0.323 N 
HETATM   15  H4  UNK     1      17.680   3.636  32.044  1.00  0.00     0.169 HD
BRANCH  14  16
HETATM   16  C9  UNK     1      18.688   2.585  30.598  1.00  0.00     0.035 A 
HETATM   17  C12 UNK     1      19.453   1.615  31.223  1.00  0.00     0.032 A 
HETATM   18  C15 UNK     1      19.774   0.448  30.530  1.00  0.00     0.039 A 
HETATM   19  C14 UNK     1      19.327   0.268  29.221  1.00  0.00     0.068 A 
HETATM   20  C16 UNK     1      18.557   1.256  28.606  1.00  0.00     0.039 A 
HETATM   21  C13 UNK     1      18.235   2.422  29.299  1.00  0.00     0.032 A 
BRANCH  19  22
HETATM   22  O3  UNK     1      19.641  -0.870  28.546  1.00  0.00    -0.356 OA
HETATM   23  C17 UNK     1      20.250  -1.922  29.294  1.00  0.00     0.210 C 
ENDBRANCH  19  22
ENDBRANCH  14  16
ENDBRANCH   5  12
BRANCH  10  24
HETATM   24  O2  UNK     1      14.551   9.875  35.457  1.00  0.00    -0.361 OA
HETATM   25  H10 UNK     1      14.738  10.774  35.137  1.00  0.00     0.217 HD
ENDBRANCH  10  24
TORSDOF 4
ENDMDL
MODEL 6
REMARK VINA RESULT:      -8.3     19.837     21.761
REMARK  4 active torsions:
REMARK  status: ('A' for Active; 'I' for Inactive)
REMARK    1  A    between atoms: C10_16  and  O2_2 
REMARK    2  A    between atoms: C14_20  and  O3_3 
REMARK       I    between atoms: C6_12  and  N1_6 
REMARK    3  A    between atoms: C9_15  and  N1_6 
REMARK    4  A    between atoms: C3_9  and  C6_12 
ROOT
HETATM    1  O1  UNK     1      19.395  -2.489  12.864  1.00  0.00    -0.274 OA
HETATM    2  O5  UNK     1      19.357  -0.515  14.014  1.00  0.00    -0.259 OA
HETATM    3  C1  UNK     1      18.483  -4.495  13.890  1.00  0.00    -0.001 A 
HETATM    4  C2  UNK     1      19.097  -3.864  12.813  1.00  0.00     0.092 A 
HETATM    5  C3  UNK     1      18.439  -2.403  15.113  1.00  0.00     0.108 A 
HETATM    6  C4  UNK     1      18.153  -3.709  15.070  1.00  0.00     0.037 A 
HETATM    7  C5  UNK     1      18.203  -5.861  13.802  1.00  0.00     0.017 A 
HETATM    8  C7  UNK     1      19.439  -4.559  11.654  1.00  0.00     0.074 A 
HETATM    9  C8  UNK     1      19.093  -1.712  13.979  1.00  0.00     0.304 A 
HETATM   10  C10 UNK     1      19.157  -5.921  11.575  1.00  0.00     0.068 A 
HETATM   11  C11 UNK     1      18.539  -6.571  12.646  1.00  0.00     0.037 A 
ENDROOT
BRANCH   5  12
HETATM   12  C6  UNK     1      18.069  -1.698  16.345  1.00  0.00     0.262 C 
HETATM   13  O4  UNK     1      16.970  -1.903  16.859  1.00  0.00    -0.267 OA
HETATM   14  N1  UNK     1      19.072  -0.844  16.782  1.00  0.00    -0.323 N 
HETATM   15  H4  UNK     1      19.921  -0.771  16.227  1.00  0.00     0.169 HD
BRANCH  14  16
HETATM   16  C9  UNK     1      19.058  -0.011  17.927  1.00  0.00     0.035 A 
HETATM   17  C12 UNK     1      18.969   1.361  17.766  1.00  0.00     0.032 A 
HETATM   18  C15 UNK     1      18.956   2.181  18.894  1.00  0.00     0.039 A 
HETATM   19  C14 UNK     1      19.034   1.617  20.168  1.00  0.00     0.068 A 
HETATM   20  C16 UNK     1      19.124   0.232  20.312  1.00  0.00     0.039 A 
HETATM   21  C13 UNK     1      19.136  -0.588  19.184  1.00  0.00     0.032 A 
BRANCH  19  22
HETATM   22  O3  UNK     1      19.021   2.417  21.268  1.00  0.00    -0.356 OA
HETATM   23  C17 UNK     1      20.176   2.388  22.106  1.00  0.00     0.210 C 
ENDBRANCH  19  22
ENDBRANCH  14  16
ENDBRANCH   5  12
BRANCH  10  24
HETATM   24  O2  UNK     1      19.481  -6.618  10.452  1.00  0.00    -0.361 OA
HETATM   25  H10 UNK     1      18.739  -6.571   9.826  1.00  0.00     0.217 HD
ENDBRANCH  10  24
TORSDOF 4
ENDMDL
MODEL 7
REMARK VINA RESULT:      -8.2     20.168     23.128
REMARK  4 active torsions:
REMARK  status: ('A' for Active; 'I' for Inactive)
REMARK    1  A    between atoms: C10_16  and  O2_2 
REMARK    2  A    between atoms: C14_20  and  O3_3 
REMARK       I    between atoms: C6_12  and  N1_6 
REMARK    3  A    between atoms: C9_15  and  N1_6 
REMARK    4  A    between atoms: C3_9  and  C6_12 
ROOT
HETATM    1  O1  UNK     1      19.289   1.015  15.221  1.00  0.00    -0.274 OA
HETATM    2  O5  UNK     1      19.214  -0.540  13.548  1.00  0.00    -0.259 OA
HETATM    3  C1  UNK     1      19.030   0.308  17.532  1.00  0.00    -0.001 A 
HETATM    4  C2  UNK     1      19.226   1.317  16.595  1.00  0.00     0.092 A 
HETATM    5  C3  UNK     1      18.951  -1.346  15.762  1.00  0.00     0.108 A 
HETATM    6  C4  UNK     1      18.892  -1.065  17.069  1.00  0.00     0.037 A 
HETATM    7  C5  UNK     1      18.973   0.646  18.886  1.00  0.00     0.017 A 
HETATM    8  C7  UNK     1      19.365   2.651  16.972  1.00  0.00     0.074 A 
HETATM    9  C8  UNK     1      19.159  -0.288  14.747  1.00  0.00     0.304 A 
HETATM   10  C10 UNK     1      19.307   2.981  18.325  1.00  0.00     0.068 A 
HETATM   11  C11 UNK     1      19.112   1.980  19.280  1.00  0.00     0.037 A 
ENDROOT
BRANCH   5  12
HETATM   12  C6  UNK     1      18.800  -2.758  15.393  1.00  0.00     0.262 C 
HETATM   13  O4  UNK     1      17.806  -3.382  15.762  1.00  0.00    -0.267 OA
HETATM   14  N1  UNK     1      19.867  -3.218  14.635  1.00  0.00    -0.323 N 
HETATM   15  H4  UNK     1      20.629  -2.576  14.432  1.00  0.00     0.169 HD
BRANCH  14  16
HETATM   16  C9  UNK     1      20.055  -4.520  14.110  1.00  0.00     0.035 A 
HETATM   17  C12 UNK     1      20.684  -5.479  14.885  1.00  0.00     0.032 A 
HETATM   18  C15 UNK     1      20.869  -6.761  14.367  1.00  0.00     0.039 A 
HETATM   19  C14 UNK     1      20.423  -7.065  13.080  1.00  0.00     0.068 A 
HETATM   20  C16 UNK     1      19.791  -6.086  12.313  1.00  0.00     0.039 A 
HETATM   21  C13 UNK     1      19.606  -4.805  12.832  1.00  0.00     0.032 A 
BRANCH  19  22
HETATM   22  O3  UNK     1      20.603  -8.315  12.576  1.00  0.00    -0.356 OA
HETATM   23  C17 UNK     1      21.896  -8.899  12.734  1.00  0.00     0.210 C 
ENDBRANCH  19  22
ENDBRANCH  14  16
ENDBRANCH   5  12
BRANCH  10  24
HETATM   24  O2  UNK     1      19.442   4.277  18.715  1.00  0.00    -0.361 OA
HETATM   25  H10 UNK     1      19.015   4.851  18.057  1.00  0.00     0.217 HD
ENDBRANCH  10  24
TORSDOF 4
ENDMDL
MODEL 8
REMARK VINA RESULT:      -8.2      3.276      8.473
REMARK  4 active torsions:
REMARK  status: ('A' for Active; 'I' for Inactive)
REMARK    1  A    between atoms: C10_16  and  O2_2 
REMARK    2  A    between atoms: C14_20  and  O3_3 
REMARK       I    between atoms: C6_12  and  N1_6 
REMARK    3  A    between atoms: C9_15  and  N1_6 
REMARK    4  A    between atoms: C3_9  and  C6_12 
ROOT
HETATM    1  O1  UNK     1      18.832  -0.218  33.393  1.00  0.00    -0.274 OA
HETATM    2  O5  UNK     1      18.436  -0.394  35.637  1.00  0.00    -0.259 OA
HETATM    3  C1  UNK     1      20.166  -1.913  32.272  1.00  0.00    -0.001 A 
HETATM    4  C2  UNK     1      19.426  -0.736  32.226  1.00  0.00     0.092 A 
HETATM    5  C3  UNK     1      19.748  -2.104  34.652  1.00  0.00     0.108 A 
HETATM    6  C4  UNK     1      20.315  -2.601  33.546  1.00  0.00     0.037 A 
HETATM    7  C5  UNK     1      20.741  -2.395  31.094  1.00  0.00     0.017 A 
HETATM    8  C7  UNK     1      19.247  -0.028  31.039  1.00  0.00     0.074 A 
HETATM    9  C8  UNK     1      18.957  -0.853  34.626  1.00  0.00     0.304 A 
HETATM   10  C10 UNK     1      19.823  -0.516  29.868  1.00  0.00     0.068 A 
HETATM   11  C11 UNK     1      20.568  -1.697  29.895  1.00  0.00     0.037 A 
ENDROOT
BRANCH   5  12
HETATM   12  C6  UNK     1      19.955  -2.869  35.887  1.00  0.00     0.262 C 
HETATM   13  O4  UNK     1      20.420  -2.311  36.880  1.00  0.00    -0.267 OA
HETATM   14  N1  UNK     1      19.574  -4.196  35.751  1.00  0.00    -0.323 N 
HETATM   15  H4  UNK     1      19.225  -4.510  34.849  1.00  0.00     0.169 HD
BRANCH  14  16
HETATM   16  C9  UNK     1      19.635  -5.217  36.732  1.00  0.00     0.035 A 
HETATM   17  C12 UNK     1      20.687  -5.230  37.631  1.00  0.00     0.032 A 
HETATM   18  C15 UNK     1      20.745  -6.236  38.597  1.00  0.00     0.039 A 
HETATM   19  C14 UNK     1      19.751  -7.214  38.647  1.00  0.00     0.068 A 
HETATM   20  C16 UNK     1      18.698  -7.185  37.732  1.00  0.00     0.039 A 
HETATM   21  C13 UNK     1      18.640  -6.179  36.768  1.00  0.00     0.032 A 
BRANCH  19  22
HETATM   22  O3  UNK     1      19.810  -8.194  39.588  1.00  0.00    -0.356 OA
HETATM   23  C17 UNK     1      20.188  -9.497  39.146  1.00  0.00     0.210 C 
ENDBRANCH  19  22
ENDBRANCH  14  16
ENDBRANCH   5  12
BRANCH  10  24
HETATM   24  O2  UNK     1      19.659   0.158  28.698  1.00  0.00    -0.361 OA
HETATM   25  H10 UNK     1      20.348   0.840  28.627  1.00  0.00     0.217 HD
ENDBRANCH  10  24
TORSDOF 4
ENDMDL
MODEL 9
REMARK VINA RESULT:      -8.2      5.962      9.414
REMARK  4 active torsions:
REMARK  status: ('A' for Active; 'I' for Inactive)
REMARK    1  A    between atoms: C10_16  and  O2_2 
REMARK    2  A    between atoms: C14_20  and  O3_3 
REMARK       I    between atoms: C6_12  and  N1_6 
REMARK    3  A    between atoms: C9_15  and  N1_6 
REMARK    4  A    between atoms: C3_9  and  C6_12 
ROOT
HETATM    1  O1  UNK     1      18.140   0.478  33.435  1.00  0.00    -0.274 OA
HETATM    2  O5  UNK     1      18.341   1.834  31.607  1.00  0.00    -0.259 OA
HETATM    3  C1  UNK     1      18.012   1.462  35.654  1.00  0.00    -0.001 A 
HETATM    4  C2  UNK     1      18.027   0.340  34.832  1.00  0.00     0.092 A 
HETATM    5  C3  UNK     1      18.223   2.905  33.718  1.00  0.00     0.108 A 
HETATM    6  C4  UNK     1      18.115   2.781  35.046  1.00  0.00     0.037 A 
HETATM    7  C5  UNK     1      17.899   1.285  37.035  1.00  0.00     0.017 A 
HETATM    8  C7  UNK     1      17.933  -0.950  35.350  1.00  0.00     0.074 A 
HETATM    9  C8  UNK     1      18.242   1.725  32.824  1.00  0.00     0.304 A 
HETATM   10  C10 UNK     1      17.820  -1.118  36.728  1.00  0.00     0.068 A 
HETATM   11  C11 UNK     1      17.802  -0.003  37.569  1.00  0.00     0.037 A 
ENDROOT
BRANCH   5  12
HETATM   12  C6  UNK     1      18.322   4.274  33.200  1.00  0.00     0.262 C 
HETATM   13  O4  UNK     1      18.539   4.460  32.004  1.00  0.00    -0.267 OA
HETATM   14  N1  UNK     1      18.147   5.225  34.196  1.00  0.00    -0.323 N 
HETATM   15  H4  UNK     1      17.996   4.904  35.150  1.00  0.00     0.169 HD
BRANCH  14  16
HETATM   16  C9  UNK     1      18.179   6.634  34.060  1.00  0.00     0.035 A 
HETATM   17  C12 UNK     1      17.035   7.302  33.657  1.00  0.00     0.032 A 
HETATM   18  C15 UNK     1      17.067   8.690  33.523  1.00  0.00     0.039 A 
HETATM   19  C14 UNK     1      18.244   9.390  33.793  1.00  0.00     0.068 A 
HETATM   20  C16 UNK     1      19.387   8.700  34.198  1.00  0.00     0.039 A 
HETATM   21  C13 UNK     1      19.354   7.313  34.333  1.00  0.00     0.032 A 
BRANCH  19  22
HETATM   22  O3  UNK     1      18.275  10.743  33.662  1.00  0.00    -0.356 OA
HETATM   23  C17 UNK     1      17.167  11.473  34.190  1.00  0.00     0.210 C 
ENDBRANCH  19  22
ENDBRANCH  14  16
ENDBRANCH   5  12
BRANCH  10  24
HETATM   24  O2  UNK     1      17.726  -2.369  37.256  1.00  0.00    -0.361 OA
HETATM   25  H10 UNK     1      16.811  -2.519  37.550  1.00  0.00     0.217 HD
ENDBRANCH  10  24
TORSDOF 4
ENDMDL
MODEL 10
REMARK VINA RESULT:      -8.1      9.406     13.929
REMARK  4 active torsions:
REMARK  status: ('A' for Active; 'I' for Inactive)
REMARK    1  A    between atoms: C10_16  and  O2_2 
REMARK    2  A    between atoms: C14_20  and  O3_3 
REMARK       I    between atoms: C6_12  and  N1_6 
REMARK    3  A    between atoms: C9_15  and  N1_6 
REMARK    4  A    between atoms: C3_9  and  C6_12 
ROOT
HETATM    1  O1  UNK     1      16.817   7.991  32.879  1.00  0.00    -0.274 OA
HETATM    2  O5  UNK     1      15.771   6.134  32.055  1.00  0.00    -0.259 OA
HETATM    3  C1  UNK     1      19.129   7.841  33.615  1.00  0.00    -0.001 A 
HETATM    4  C2  UNK     1      17.972   8.589  33.419  1.00  0.00     0.092 A 
HETATM    5  C3  UNK     1      18.024   5.870  32.741  1.00  0.00     0.108 A 
HETATM    6  C4  UNK     1      19.125   6.432  33.252  1.00  0.00     0.037 A 
HETATM    7  C5  UNK     1      20.255   8.469  34.153  1.00  0.00     0.017 A 
HETATM    8  C7  UNK     1      17.909   9.942  33.745  1.00  0.00     0.074 A 
HETATM    9  C8  UNK     1      16.782   6.646  32.524  1.00  0.00     0.304 A 
HETATM   10  C10 UNK     1      19.036  10.561  34.282  1.00  0.00     0.068 A 
HETATM   11  C11 UNK     1      20.207   9.827  34.485  1.00  0.00     0.037 A 
ENDROOT
BRANCH   5  12
HETATM   12  C6  UNK     1      18.119   4.444  32.407  1.00  0.00     0.262 C 
HETATM   13  O4  UNK     1      17.895   3.598  33.273  1.00  0.00    -0.267 OA
HETATM   14  N1  UNK     1      18.470   4.238  31.081  1.00  0.00    -0.323 N 
HETATM   15  H4  UNK     1      18.643   5.051  30.495  1.00  0.00     0.169 HD
BRANCH  14  16
HETATM   16  C9  UNK     1      18.652   3.000  30.417  1.00  0.00     0.035 A 
HETATM   17  C12 UNK     1      18.110   2.820  29.157  1.00  0.00     0.032 A 
HETATM   18  C15 UNK     1      18.291   1.600  28.504  1.00  0.00     0.039 A 
HETATM   19  C14 UNK     1      19.009   0.577  29.124  1.00  0.00     0.068 A 
HETATM   20  C16 UNK     1      19.548   0.776  30.396  1.00  0.00     0.039 A 
HETATM   21  C13 UNK     1      19.368   1.996  31.047  1.00  0.00     0.032 A 
BRANCH  19  22
HETATM   22  O3  UNK     1      19.184  -0.612  28.488  1.00  0.00    -0.356 OA
HETATM   23  C17 UNK     1      20.209  -1.471  28.986  1.00  0.00     0.210 C 
ENDBRANCH  19  22
ENDBRANCH  14  16
ENDBRANCH   5  12
BRANCH  10  24
HETATM   24  O2  UNK     1      18.998  11.882  34.606  1.00  0.00    -0.361 OA
HETATM   25  H10 UNK     1      18.123  12.238  34.373  1.00  0.00     0.217 HD
ENDBRANCH  10  24
TORSDOF 4
ENDMDL
