MODEL 1
REMARK VINA RESULT:      -9.5      0.000      0.000
REMARK  6 active torsions:
REMARK  status: ('A' for Active; 'I' for Inactive)
REMARK    1  A    between atoms: C19_27  and  O2_3 
REMARK    2  A    between atoms: C7_15  and  O2_3 
REMARK    3  A    between atoms: C3_11  and  N1_8 
REMARK       I    between atoms: C8_16  and  N1_8 
REMARK    4  A    between atoms: C2_10  and  C7_15 
REMARK    5  A    between atoms: C10_18  and  C4_12 
REMARK    6  A    between atoms: C6_14  and  C8_16 
ROOT
HETATM    1  O4  UNK     1      21.260  -3.854  37.284  1.00  0.00    -0.267 OA
HETATM    2  N1  UNK     1      19.037  -3.781  36.497  1.00  0.00    -0.316 N 
HETATM    3  C8  UNK     1      20.219  -4.385  36.903  1.00  0.00     0.262 C 
HETATM    4  H1  UNK     1      18.259  -4.359  36.189  1.00  0.00     0.169 HD
ENDROOT
BRANCH   2   5
HETATM    5  C3  UNK     1      18.792  -2.407  36.437  1.00  0.00     0.094 A 
HETATM    6  C2  UNK     1      19.067  -1.503  35.460  1.00  0.00     0.080 A 
HETATM    7  C1  UNK     1      18.635  -0.198  35.831  1.00  0.00    -0.022 A 
HETATM    8  C4  UNK     1      18.050  -0.181  37.078  1.00  0.00     0.059 A 
HETATM    9  C5  UNK     1      18.796   1.005  34.974  1.00  0.00     0.051 C 
HETATM   10  S1  UNK     1      18.024  -1.735  37.797  1.00  0.00    -0.067 SA
BRANCH   6  11
HETATM   11  C7  UNK     1      19.715  -1.849  34.219  1.00  0.00     0.296 C 
HETATM   12  O3  UNK     1      20.852  -2.336  34.146  1.00  0.00    -0.259 OA
BRANCH  11  13
HETATM   13  O2  UNK     1      18.955  -1.588  33.100  1.00  0.00    -0.318 OA
BRANCH  13  14
HETATM   14  C19 UNK     1      19.645  -1.532  31.847  1.00  0.00     0.174 C 
HETATM   15  C20 UNK     1      19.507  -0.140  31.269  1.00  0.00     0.034 C 
ENDBRANCH  13  14
ENDBRANCH  11  13
ENDBRANCH   6  11
BRANCH   8  16
HETATM   16  C10 UNK     1      17.494   0.918  37.802  1.00  0.00     0.163 C 
HETATM   17  O5  UNK     1      17.977   1.388  38.862  1.00  0.00    -0.292 OA
HETATM   18  C16 UNK     1      16.222   1.603  37.293  1.00  0.00     0.097 C 
ENDBRANCH   8  16
ENDBRANCH   2   5
BRANCH   3  19
HETATM   19  C6  UNK     1      20.133  -5.849  36.843  1.00  0.00     0.108 A 
HETATM   20  C11 UNK     1      20.000  -6.482  38.015  1.00  0.00     0.037 A 
HETATM   21  C9  UNK     1      19.908  -7.933  38.059  1.00  0.00    -0.001 A 
HETATM   22  C12 UNK     1      19.960  -8.647  36.866  1.00  0.00     0.089 A 
HETATM   23  C14 UNK     1      19.768  -8.635  39.258  1.00  0.00     0.014 A 
HETATM   24  O1  UNK     1      20.099  -7.976  35.635  1.00  0.00    -0.274 OA
HETATM   25  C15 UNK     1      19.877 -10.038  36.839  1.00  0.00     0.038 A 
HETATM   26  C13 UNK     1      20.190  -6.589  35.562  1.00  0.00     0.304 A 
HETATM   27  O6  UNK     1      20.313  -6.012  34.486  1.00  0.00    -0.259 OA
HETATM   28  C18 UNK     1      19.738 -10.730  38.039  1.00  0.00     0.003 A 
HETATM   29  C17 UNK     1      19.684 -10.031  39.248  1.00  0.00     0.001 A 
ENDBRANCH   3  19
TORSDOF 6
ENDMDL
MODEL 2
REMARK VINA RESULT:      -9.0      6.679     12.086
REMARK  6 active torsions:
REMARK  status: ('A' for Active; 'I' for Inactive)
REMARK    1  A    between atoms: C19_27  and  O2_3 
REMARK    2  A    between atoms: C7_15  and  O2_3 
REMARK    3  A    between atoms: C3_11  and  N1_8 
REMARK       I    between atoms: C8_16  and  N1_8 
REMARK    4  A    between atoms: C2_10  and  C7_15 
REMARK    5  A    between atoms: C10_18  and  C4_12 
REMARK    6  A    between atoms: C6_14  and  C8_16 
ROOT
HETATM    1  O4  UNK     1      19.653   5.244  31.632  1.00  0.00    -0.267 OA
HETATM    2  N1  UNK     1      17.933   3.796  32.350  1.00  0.00    -0.316 N 
HETATM    3  C8  UNK     1      18.595   5.008  32.214  1.00  0.00     0.262 C 
HETATM    4  H1  UNK     1      17.067   3.755  32.882  1.00  0.00     0.169 HD
ENDROOT
BRANCH   2   5
HETATM    5  C3  UNK     1      18.351   2.566  31.834  1.00  0.00     0.094 A 
HETATM    6  C2  UNK     1      18.496   1.359  32.441  1.00  0.00     0.080 A 
HETATM    7  C1  UNK     1      18.951   0.373  31.520  1.00  0.00    -0.022 A 
HETATM    8  C4  UNK     1      19.128   0.888  30.255  1.00  0.00     0.059 A 
HETATM    9  C5  UNK     1      19.206  -1.045  31.882  1.00  0.00     0.051 C 
HETATM   10  S1  UNK     1      18.745   2.555  30.181  1.00  0.00    -0.067 SA
BRANCH   6  11
HETATM   11  C7  UNK     1      18.218   1.135  33.839  1.00  0.00     0.296 C 
HETATM   12  O3  UNK     1      19.095   0.983  34.701  1.00  0.00    -0.259 OA
BRANCH  11  13
HETATM   13  O2  UNK     1      16.874   1.100  34.143  1.00  0.00    -0.318 OA
BRANCH  13  14
HETATM   14  C19 UNK     1      16.419  -0.001  34.935  1.00  0.00     0.174 C 
HETATM   15  C20 UNK     1      15.932   0.520  36.271  1.00  0.00     0.034 C 
ENDBRANCH  13  14
ENDBRANCH  11  13
ENDBRANCH   6  11
BRANCH   8  16
HETATM   16  C10 UNK     1      19.568   0.232  29.065  1.00  0.00     0.163 C 
HETATM   17  O5  UNK     1      18.949   0.251  27.972  1.00  0.00    -0.292 OA
HETATM   18  C16 UNK     1      20.879  -0.561  29.070  1.00  0.00     0.097 C 
ENDBRANCH   8  16
ENDBRANCH   2   5
BRANCH   3  19
HETATM   19  C6  UNK     1      17.877   6.101  32.881  1.00  0.00     0.108 A 
HETATM   20  C11 UNK     1      16.648   6.367  32.421  1.00  0.00     0.037 A 
HETATM   21  C9  UNK     1      15.858   7.433  33.016  1.00  0.00    -0.001 A 
HETATM   22  C12 UNK     1      16.399   8.166  34.067  1.00  0.00     0.089 A 
HETATM   23  C14 UNK     1      14.571   7.745  32.570  1.00  0.00     0.014 A 
HETATM   24  O1  UNK     1      17.692   7.882  34.547  1.00  0.00    -0.274 OA
HETATM   25  C15 UNK     1      15.694   9.200  34.681  1.00  0.00     0.038 A 
HETATM   26  C13 UNK     1      18.473   6.869  33.997  1.00  0.00     0.304 A 
HETATM   27  O6  UNK     1      19.599   6.629  34.421  1.00  0.00    -0.259 OA
HETATM   28  C18 UNK     1      14.413   9.505  34.228  1.00  0.00     0.003 A 
HETATM   29  C17 UNK     1      13.851   8.780  33.175  1.00  0.00     0.001 A 
ENDBRANCH   3  19
TORSDOF 6
ENDMDL
MODEL 3
REMARK VINA RESULT:      -8.7     17.747     22.092
REMARK  6 active torsions:
REMARK  status: ('A' for Active; 'I' for Inactive)
REMARK    1  A    between atoms: C19_27  and  O2_3 
REMARK    2  A    between atoms: C7_15  and  O2_3 
REMARK    3  A    between atoms: C3_11  and  N1_8 
REMARK       I    between atoms: C8_16  and  N1_8 
REMARK    4  A    between atoms: C2_10  and  C7_15 
REMARK    5  A    between atoms: C10_18  and  C4_12 
REMARK    6  A    between atoms: C6_14  and  C8_16 
ROOT
HETATM    1  O4  UNK     1      17.751  -2.212  16.061  1.00  0.00    -0.267 OA
HETATM    2  N1  UNK     1      19.680  -1.543  14.878  1.00  0.00    -0.316 N 
HETATM    3  C8  UNK     1      18.727  -1.485  15.886  1.00  0.00     0.262 C 
HETATM    4  H1  UNK     1      20.428  -0.854  14.855  1.00  0.00     0.169 HD
ENDROOT
BRANCH   2   5
HETATM    5  C3  UNK     1      19.717  -2.468  13.831  1.00  0.00     0.094 A 
HETATM    6  C2  UNK     1      20.228  -3.726  13.784  1.00  0.00     0.080 A 
HETATM    7  C1  UNK     1      20.041  -4.309  12.498  1.00  0.00    -0.022 A 
HETATM    8  C4  UNK     1      19.394  -3.455  11.632  1.00  0.00     0.059 A 
HETATM    9  C5  UNK     1      20.491  -5.676  12.132  1.00  0.00     0.051 C 
HETATM   10  S1  UNK     1      19.014  -1.957  12.370  1.00  0.00    -0.067 SA
BRANCH   6  11
HETATM   11  C7  UNK     1      20.871  -4.365  14.906  1.00  0.00     0.296 C 
HETATM   12  O3  UNK     1      20.370  -5.297  15.550  1.00  0.00    -0.259 OA
BRANCH  11  13
HETATM   13  O2  UNK     1      22.110  -3.843  15.211  1.00  0.00    -0.318 OA
BRANCH  13  14
HETATM   14  C19 UNK     1      22.601  -4.075  16.535  1.00  0.00     0.174 C 
HETATM   15  C20 UNK     1      24.043  -3.622  16.612  1.00  0.00     0.034 C 
ENDBRANCH  13  14
ENDBRANCH  11  13
ENDBRANCH   6  11
BRANCH   8  16
HETATM   16  C10 UNK     1      19.023  -3.660  10.268  1.00  0.00     0.163 C 
HETATM   17  O5  UNK     1      17.899  -4.074   9.891  1.00  0.00    -0.292 OA
HETATM   18  C16 UNK     1      20.030  -3.369   9.151  1.00  0.00     0.097 C 
ENDBRANCH   8  16
ENDBRANCH   2   5
BRANCH   3  19
HETATM   19  C6  UNK     1      18.990  -0.387  16.823  1.00  0.00     0.108 A 
HETATM   20  C11 UNK     1      18.984  -0.706  18.123  1.00  0.00     0.037 A 
HETATM   21  C9  UNK     1      19.234   0.314  19.130  1.00  0.00    -0.001 A 
HETATM   22  C12 UNK     1      19.477   1.620  18.718  1.00  0.00     0.089 A 
HETATM   23  C14 UNK     1      19.238   0.027  20.497  1.00  0.00     0.014 A 
HETATM   24  O1  UNK     1      19.482   1.950  17.349  1.00  0.00    -0.274 OA
HETATM   25  C15 UNK     1      19.723   2.644  19.632  1.00  0.00     0.038 A 
HETATM   26  C13 UNK     1      19.247   0.996  16.363  1.00  0.00     0.304 A 
HETATM   27  O6  UNK     1      19.252   1.293  15.173  1.00  0.00    -0.259 OA
HETATM   28  C18 UNK     1      19.724   2.348  20.993  1.00  0.00     0.003 A 
HETATM   29  C17 UNK     1      19.482   1.042  21.426  1.00  0.00     0.001 A 
ENDBRANCH   3  19
TORSDOF 6
ENDMDL
MODEL 4
REMARK VINA RESULT:      -8.7      1.920      2.378
REMARK  6 active torsions:
REMARK  status: ('A' for Active; 'I' for Inactive)
REMARK    1  A    between atoms: C19_27  and  O2_3 
REMARK    2  A    between atoms: C7_15  and  O2_3 
REMARK    3  A    between atoms: C3_11  and  N1_8 
REMARK       I    between atoms: C8_16  and  N1_8 
REMARK    4  A    between atoms: C2_10  and  C7_15 
REMARK    5  A    between atoms: C10_18  and  C4_12 
REMARK    6  A    between atoms: C6_14  and  C8_16 
ROOT
HETATM    1  O4  UNK     1      18.234  -5.289  36.474  1.00  0.00    -0.267 OA
HETATM    2  N1  UNK     1      20.030  -3.793  36.152  1.00  0.00    -0.316 N 
HETATM    3  C8  UNK     1      19.431  -5.021  36.399  1.00  0.00     0.262 C 
HETATM    4  H1  UNK     1      21.044  -3.725  36.137  1.00  0.00     0.169 HD
ENDROOT
BRANCH   2   5
HETATM    5  C3  UNK     1      19.368  -2.582  35.935  1.00  0.00     0.094 A 
HETATM    6  C2  UNK     1      19.361  -1.763  34.851  1.00  0.00     0.080 A 
HETATM    7  C1  UNK     1      18.536  -0.623  35.074  1.00  0.00    -0.022 A 
HETATM    8  C4  UNK     1      17.956  -0.640  36.323  1.00  0.00     0.059 A 
HETATM    9  C5  UNK     1      18.326   0.457  34.076  1.00  0.00     0.051 C 
HETATM   10  S1  UNK     1      18.407  -2.026  37.222  1.00  0.00    -0.067 SA
BRANCH   6  11
HETATM   11  C7  UNK     1      20.104  -2.035  33.645  1.00  0.00     0.296 C 
HETATM   12  O3  UNK     1      21.283  -2.415  33.632  1.00  0.00    -0.259 OA
BRANCH  11  13
HETATM   13  O2  UNK     1      19.384  -1.833  32.488  1.00  0.00    -0.318 OA
BRANCH  13  14
HETATM   14  C19 UNK     1      20.123  -1.809  31.262  1.00  0.00     0.174 C 
HETATM   15  C20 UNK     1      20.323  -0.370  30.835  1.00  0.00     0.034 C 
ENDBRANCH  13  14
ENDBRANCH  11  13
ENDBRANCH   6  11
BRANCH   8  16
HETATM   16  C10 UNK     1      17.073   0.308  36.923  1.00  0.00     0.163 C 
HETATM   17  O5  UNK     1      15.881   0.493  36.572  1.00  0.00    -0.292 OA
HETATM   18  C16 UNK     1      17.566   1.186  38.078  1.00  0.00     0.097 C 
ENDBRANCH   8  16
ENDBRANCH   2   5
BRANCH   3  19
HETATM   19  C6  UNK     1      20.425  -6.087  36.581  1.00  0.00     0.108 A 
HETATM   20  C11 UNK     1      20.320  -7.138  35.760  1.00  0.00     0.037 A 
HETATM   21  C9  UNK     1      21.258  -8.246  35.864  1.00  0.00    -0.001 A 
HETATM   22  C12 UNK     1      22.260  -8.191  36.827  1.00  0.00     0.089 A 
HETATM   23  C14 UNK     1      21.188  -9.363  35.028  1.00  0.00     0.014 A 
HETATM   24  O1  UNK     1      22.365  -7.082  37.689  1.00  0.00    -0.274 OA
HETATM   25  C15 UNK     1      23.190  -9.219  36.979  1.00  0.00     0.038 A 
HETATM   26  C13 UNK     1      21.482  -6.008  37.614  1.00  0.00     0.304 A 
HETATM   27  O6  UNK     1      21.580  -5.046  38.369  1.00  0.00    -0.259 OA
HETATM   28  C18 UNK     1      23.111 -10.329  36.142  1.00  0.00     0.003 A 
HETATM   29  C17 UNK     1      22.113 -10.402  35.168  1.00  0.00     0.001 A 
ENDBRANCH   3  19
TORSDOF 6
ENDMDL
MODEL 5
REMARK VINA RESULT:      -8.6      6.964     12.492
REMARK  6 active torsions:
REMARK  status: ('A' for Active; 'I' for Inactive)
REMARK    1  A    between atoms: C19_27  and  O2_3 
REMARK    2  A    between atoms: C7_15  and  O2_3 
REMARK    3  A    between atoms: C3_11  and  N1_8 
REMARK       I    between atoms: C8_16  and  N1_8 
REMARK    4  A    between atoms: C2_10  and  C7_15 
REMARK    5  A    between atoms: C10_18  and  C4_12 
REMARK    6  A    between atoms: C6_14  and  C8_16 
ROOT
HETATM    1  O4  UNK     1      19.406   5.356  32.804  1.00  0.00    -0.267 OA
HETATM    2  N1  UNK     1      17.651   4.276  31.654  1.00  0.00    -0.316 N 
HETATM    3  C8  UNK     1      18.283   5.328  32.303  1.00  0.00     0.262 C 
HETATM    4  H1  UNK     1      16.704   4.400  31.306  1.00  0.00     0.169 HD
ENDROOT
BRANCH   2   5
HETATM    5  C3  UNK     1      18.183   3.003  31.437  1.00  0.00     0.094 A 
HETATM    6  C2  UNK     1      18.342   1.956  32.288  1.00  0.00     0.080 A 
HETATM    7  C1  UNK     1      18.934   0.842  31.628  1.00  0.00    -0.022 A 
HETATM    8  C4  UNK     1      19.194   1.104  30.301  1.00  0.00     0.059 A 
HETATM    9  C5  UNK     1      19.236  -0.452  32.292  1.00  0.00     0.051 C 
HETATM   10  S1  UNK     1      18.724   2.690  29.856  1.00  0.00    -0.067 SA
BRANCH   6  11
HETATM   11  C7  UNK     1      17.953   1.996  33.677  1.00  0.00     0.296 C 
HETATM   12  O3  UNK     1      18.522   2.688  34.533  1.00  0.00    -0.259 OA
BRANCH  11  13
HETATM   13  O2  UNK     1      16.879   1.187  33.980  1.00  0.00    -0.318 OA
BRANCH  13  14
HETATM   14  C19 UNK     1      17.024   0.317  35.107  1.00  0.00     0.174 C 
HETATM   15  C20 UNK     1      15.810   0.459  36.000  1.00  0.00     0.034 C 
ENDBRANCH  13  14
ENDBRANCH  11  13
ENDBRANCH   6  11
BRANCH   8  16
HETATM   16  C10 UNK     1      19.776   0.258  29.308  1.00  0.00     0.163 C 
HETATM   17  O5  UNK     1      20.954  -0.175  29.345  1.00  0.00    -0.292 OA
HETATM   18  C16 UNK     1      18.948  -0.177  28.095  1.00  0.00     0.097 C 
ENDBRANCH   8  16
ENDBRANCH   2   5
BRANCH   3  19
HETATM   19  C6  UNK     1      17.436   6.526  32.357  1.00  0.00     0.108 A 
HETATM   20  C11 UNK     1      17.023   6.903  33.573  1.00  0.00     0.037 A 
HETATM   21  C9  UNK     1      16.179   8.077  33.729  1.00  0.00    -0.001 A 
HETATM   22  C12 UNK     1      15.811   8.797  32.597  1.00  0.00     0.089 A 
HETATM   23  C14 UNK     1      15.726   8.508  34.978  1.00  0.00     0.014 A 
HETATM   24  O1  UNK     1      16.248   8.395  31.320  1.00  0.00    -0.274 OA
HETATM   25  C15 UNK     1      15.004   9.931  32.678  1.00  0.00     0.038 A 
HETATM   26  C13 UNK     1      17.056   7.276  31.139  1.00  0.00     0.304 A 
HETATM   27  O6  UNK     1      17.431   6.933  30.023  1.00  0.00    -0.259 OA
HETATM   28  C18 UNK     1      14.556  10.353  33.928  1.00  0.00     0.003 A 
HETATM   29  C17 UNK     1      14.916   9.644  35.076  1.00  0.00     0.001 A 
ENDBRANCH   3  19
TORSDOF 6
ENDMDL
MODEL 6
REMARK VINA RESULT:      -8.2      2.392      4.856
REMARK  6 active torsions:
REMARK  status: ('A' for Active; 'I' for Inactive)
REMARK    1  A    between atoms: C19_27  and  O2_3 
REMARK    2  A    between atoms: C7_15  and  O2_3 
REMARK    3  A    between atoms: C3_11  and  N1_8 
REMARK       I    between atoms: C8_16  and  N1_8 
REMARK    4  A    between atoms: C2_10  and  C7_15 
REMARK    5  A    between atoms: C10_18  and  C4_12 
REMARK    6  A    between atoms: C6_14  and  C8_16 
ROOT
HETATM    1  O4  UNK     1      21.563  -2.005  34.839  1.00  0.00    -0.267 OA
HETATM    2  N1  UNK     1      19.356  -2.249  34.039  1.00  0.00    -0.316 N 
HETATM    3  C8  UNK     1      20.460  -2.549  34.826  1.00  0.00     0.262 C 
HETATM    4  H1  UNK     1      18.510  -2.805  34.130  1.00  0.00     0.169 HD
ENDROOT
BRANCH   2   5
HETATM    5  C3  UNK     1      19.280  -1.238  33.077  1.00  0.00     0.094 A 
HETATM    6  C2  UNK     1      18.809   0.033  33.168  1.00  0.00     0.080 A 
HETATM    7  C1  UNK     1      18.929   0.716  31.924  1.00  0.00    -0.022 A 
HETATM    8  C4  UNK     1      19.489  -0.079  30.949  1.00  0.00     0.059 A 
HETATM    9  C5  UNK     1      18.500   2.121  31.705  1.00  0.00     0.051 C 
HETATM   10  S1  UNK     1      19.867  -1.643  31.534  1.00  0.00    -0.067 SA
BRANCH   6  11
HETATM   11  C7  UNK     1      18.264   0.592  34.381  1.00  0.00     0.296 C 
HETATM   12  O3  UNK     1      18.941   0.863  35.382  1.00  0.00    -0.259 OA
BRANCH  11  13
HETATM   13  O2  UNK     1      16.902   0.801  34.336  1.00  0.00    -0.318 OA
BRANCH  13  14
HETATM   14  C19 UNK     1      16.084  -0.104  35.084  1.00  0.00     0.174 C 
HETATM   15  C20 UNK     1      15.659   0.565  36.374  1.00  0.00     0.034 C 
ENDBRANCH  13  14
ENDBRANCH  11  13
ENDBRANCH   6  11
BRANCH   8  16
HETATM   16  C10 UNK     1      19.774   0.230  29.584  1.00  0.00     0.163 C 
HETATM   17  O5  UNK     1      19.246   1.171  28.942  1.00  0.00    -0.292 OA
HETATM   18  C16 UNK     1      20.786  -0.617  28.805  1.00  0.00     0.097 C 
ENDBRANCH   8  16
ENDBRANCH   2   5
BRANCH   3  19
HETATM   19  C6  UNK     1      20.196  -3.672  35.733  1.00  0.00     0.108 A 
HETATM   20  C11 UNK     1      20.073  -4.876  35.161  1.00  0.00     0.037 A 
HETATM   21  C9  UNK     1      19.810  -6.051  35.977  1.00  0.00    -0.001 A 
HETATM   22  C12 UNK     1      19.689  -5.901  37.355  1.00  0.00     0.089 A 
HETATM   23  C14 UNK     1      19.675  -7.327  35.425  1.00  0.00     0.014 A 
HETATM   24  O1  UNK     1      19.819  -4.631  37.951  1.00  0.00    -0.274 OA
HETATM   25  C15 UNK     1      19.436  -6.986  38.193  1.00  0.00     0.038 A 
HETATM   26  C13 UNK     1      20.071  -3.489  37.196  1.00  0.00     0.304 A 
HETATM   27  O6  UNK     1      20.181  -2.387  37.723  1.00  0.00    -0.259 OA
HETATM   28  C18 UNK     1      19.302  -8.254  37.633  1.00  0.00     0.003 A 
HETATM   29  C17 UNK     1      19.421  -8.426  36.251  1.00  0.00     0.001 A 
ENDBRANCH   3  19
TORSDOF 6
ENDMDL
MODEL 7
REMARK VINA RESULT:      -8.2      6.971      9.729
REMARK  6 active torsions:
REMARK  status: ('A' for Active; 'I' for Inactive)
REMARK    1  A    between atoms: C19_27  and  O2_3 
REMARK    2  A    between atoms: C7_15  and  O2_3 
REMARK    3  A    between atoms: C3_11  and  N1_8 
REMARK       I    between atoms: C8_16  and  N1_8 
REMARK    4  A    between atoms: C2_10  and  C7_15 
REMARK    5  A    between atoms: C10_18  and  C4_12 
REMARK    6  A    between atoms: C6_14  and  C8_16 
ROOT
HETATM    1  O4  UNK     1      18.360   4.389  30.207  1.00  0.00    -0.267 OA
HETATM    2  N1  UNK     1      18.074   4.370  32.550  1.00  0.00    -0.316 N 
HETATM    3  C8  UNK     1      18.347   3.827  31.301  1.00  0.00     0.262 C 
HETATM    4  H1  UNK     1      18.085   3.769  33.370  1.00  0.00     0.169 HD
ENDROOT
BRANCH   2   5
HETATM    5  C3  UNK     1      17.750   5.702  32.816  1.00  0.00     0.094 A 
HETATM    6  C2  UNK     1      18.483   6.689  33.396  1.00  0.00     0.080 A 
HETATM    7  C1  UNK     1      17.744   7.905  33.464  1.00  0.00    -0.022 A 
HETATM    8  C4  UNK     1      16.482   7.774  32.929  1.00  0.00     0.059 A 
HETATM    9  C5  UNK     1      18.272   9.165  34.045  1.00  0.00     0.051 C 
HETATM   10  S1  UNK     1      16.191   6.190  32.346  1.00  0.00    -0.067 SA
BRANCH   6  11
HETATM   11  C7  UNK     1      19.831   6.501  33.872  1.00  0.00     0.296 C 
HETATM   12  O3  UNK     1      20.121   5.851  34.886  1.00  0.00    -0.259 OA
BRANCH  11  13
HETATM   13  O2  UNK     1      20.789   7.117  33.095  1.00  0.00    -0.318 OA
BRANCH  13  14
HETATM   14  C19 UNK     1      21.757   6.268  32.470  1.00  0.00     0.174 C 
HETATM   15  C20 UNK     1      21.278   5.913  31.079  1.00  0.00     0.034 C 
ENDBRANCH  13  14
ENDBRANCH  11  13
ENDBRANCH   6  11
BRANCH   8  16
HETATM   16  C10 UNK     1      15.445   8.749  32.809  1.00  0.00     0.163 C 
HETATM   17  O5  UNK     1      15.249   9.458  31.790  1.00  0.00    -0.292 OA
HETATM   18  C16 UNK     1      14.478   8.984  33.974  1.00  0.00     0.097 C 
ENDBRANCH   8  16
ENDBRANCH   2   5
BRANCH   3  19
HETATM   19  C6  UNK     1      18.650   2.393  31.383  1.00  0.00     0.108 A 
HETATM   20  C11 UNK     1      19.310   1.869  30.343  1.00  0.00     0.037 A 
HETATM   21  C9  UNK     1      19.656   0.456  30.331  1.00  0.00    -0.001 A 
HETATM   22  C12 UNK     1      19.289  -0.336  31.414  1.00  0.00     0.089 A 
HETATM   23  C14 UNK     1      20.344  -0.134  29.268  1.00  0.00     0.014 A 
HETATM   24  O1  UNK     1      18.595   0.221  32.505  1.00  0.00    -0.274 OA
HETATM   25  C15 UNK     1      19.589  -1.696  31.464  1.00  0.00     0.038 A 
HETATM   26  C13 UNK     1      18.250   1.569  32.546  1.00  0.00     0.304 A 
HETATM   27  O6  UNK     1      17.644   2.046  33.500  1.00  0.00    -0.259 OA
HETATM   28  C18 UNK     1      20.275  -2.275  30.399  1.00  0.00     0.003 A 
HETATM   29  C17 UNK     1      20.653  -1.497  29.303  1.00  0.00     0.001 A 
ENDBRANCH   3  19
TORSDOF 6
ENDMDL
MODEL 8
REMARK VINA RESULT:      -7.9      6.077     11.999
REMARK  6 active torsions:
REMARK  status: ('A' for Active; 'I' for Inactive)
REMARK    1  A    between atoms: C19_27  and  O2_3 
REMARK    2  A    between atoms: C7_15  and  O2_3 
REMARK    3  A    between atoms: C3_11  and  N1_8 
REMARK       I    between atoms: C8_16  and  N1_8 
REMARK    4  A    between atoms: C2_10  and  C7_15 
REMARK    5  A    between atoms: C10_18  and  C4_12 
REMARK    6  A    between atoms: C6_14  and  C8_16 
ROOT
HETATM    1  O4  UNK     1      19.980   5.232  34.251  1.00  0.00    -0.267 OA
HETATM    2  N1  UNK     1      17.887   4.373  33.581  1.00  0.00    -0.316 N 
HETATM    3  C8  UNK     1      18.799   5.359  33.933  1.00  0.00     0.262 C 
HETATM    4  H1  UNK     1      16.930   4.633  33.358  1.00  0.00     0.169 HD
ENDROOT
BRANCH   2   5
HETATM    5  C3  UNK     1      18.141   3.001  33.517  1.00  0.00     0.094 A 
HETATM    6  C2  UNK     1      18.350   2.191  32.446  1.00  0.00     0.080 A 
HETATM    7  C1  UNK     1      18.572   0.845  32.855  1.00  0.00    -0.022 A 
HETATM    8  C4  UNK     1      18.520   0.704  34.223  1.00  0.00     0.059 A 
HETATM    9  C5  UNK     1      18.830  -0.276  31.915  1.00  0.00     0.051 C 
HETATM   10  S1  UNK     1      18.204   2.192  35.011  1.00  0.00    -0.067 SA
BRANCH   6  11
HETATM   11  C7  UNK     1      18.342   2.661  31.082  1.00  0.00     0.296 C 
HETATM   12  O3  UNK     1      17.529   2.283  30.227  1.00  0.00    -0.259 OA
BRANCH  11  13
HETATM   13  O2  UNK     1      19.329   3.581  30.802  1.00  0.00    -0.318 OA
BRANCH  13  14
HETATM   14  C19 UNK     1      18.923   4.785  30.144  1.00  0.00     0.174 C 
HETATM   15  C20 UNK     1      19.968   5.854  30.381  1.00  0.00     0.034 C 
ENDBRANCH  13  14
ENDBRANCH  11  13
ENDBRANCH   6  11
BRANCH   8  16
HETATM   16  C10 UNK     1      18.688  -0.470  35.020  1.00  0.00     0.163 C 
HETATM   17  O5  UNK     1      19.766  -1.104  35.132  1.00  0.00    -0.292 OA
HETATM   18  C16 UNK     1      17.502  -1.034  35.809  1.00  0.00     0.097 C 
ENDBRANCH   8  16
ENDBRANCH   2   5
BRANCH   3  19
HETATM   19  C6  UNK     1      18.198   6.698  33.897  1.00  0.00     0.108 A 
HETATM   20  C11 UNK     1      16.864   6.748  33.985  1.00  0.00     0.037 A 
HETATM   21  C9  UNK     1      16.175   8.030  33.957  1.00  0.00    -0.001 A 
HETATM   22  C12 UNK     1      16.926   9.194  33.838  1.00  0.00     0.089 A 
HETATM   23  C14 UNK     1      14.785   8.131  34.046  1.00  0.00     0.014 A 
HETATM   24  O1  UNK     1      18.330   9.135  33.746  1.00  0.00    -0.274 OA
HETATM   25  C15 UNK     1      16.328  10.453  33.806  1.00  0.00     0.038 A 
HETATM   26  C13 UNK     1      19.017   7.924  33.770  1.00  0.00     0.304 A 
HETATM   27  O6  UNK     1      20.240   7.881  33.688  1.00  0.00    -0.259 OA
HETATM   28  C18 UNK     1      14.941  10.544  33.894  1.00  0.00     0.003 A 
HETATM   29  C17 UNK     1      14.170   9.386  34.015  1.00  0.00     0.001 A 
ENDBRANCH   3  19
TORSDOF 6
ENDMDL
MODEL 9
REMARK VINA RESULT:      -7.8     10.842     12.670
REMARK  6 active torsions:
REMARK  status: ('A' for Active; 'I' for Inactive)
REMARK    1  A    between atoms: C19_27  and  O2_3 
REMARK    2  A    between atoms: C7_15  and  O2_3 
REMARK    3  A    between atoms: C3_11  and  N1_8 
REMARK       I    between atoms: C8_16  and  N1_8 
REMARK    4  A    between atoms: C2_10  and  C7_15 
REMARK    5  A    between atoms: C10_18  and  C4_12 
REMARK    6  A    between atoms: C6_14  and  C8_16 
ROOT
HETATM    1  O4  UNK     1      28.299  -5.707  32.960  1.00  0.00    -0.267 OA
HETATM    2  N1  UNK     1      29.850  -7.007  34.174  1.00  0.00    -0.316 N 
HETATM    3  C8  UNK     1      29.167  -6.574  33.045  1.00  0.00     0.262 C 
HETATM    4  H1  UNK     1      30.534  -7.754  34.089  1.00  0.00     0.169 HD
ENDROOT
BRANCH   2   5
HETATM    5  C3  UNK     1      29.680  -6.527  35.475  1.00  0.00     0.094 A 
HETATM    6  C2  UNK     1      30.484  -5.742  36.238  1.00  0.00     0.080 A 
HETATM    7  C1  UNK     1      29.904  -5.499  37.516  1.00  0.00    -0.022 A 
HETATM    8  C4  UNK     1      28.682  -6.118  37.655  1.00  0.00     0.059 A 
HETATM    9  C5  UNK     1      30.543  -4.677  38.574  1.00  0.00     0.051 C 
HETATM   10  S1  UNK     1      28.237  -6.987  36.248  1.00  0.00    -0.067 SA
BRANCH   6  11
HETATM   11  C7  UNK     1      31.757  -5.234  35.786  1.00  0.00     0.296 C 
HETATM   12  O3  UNK     1      31.985  -4.035  35.575  1.00  0.00    -0.259 OA
BRANCH  11  13
HETATM   13  O2  UNK     1      32.714  -6.208  35.604  1.00  0.00    -0.318 OA
BRANCH  13  14
HETATM   14  C19 UNK     1      34.061  -5.863  35.946  1.00  0.00     0.174 C 
HETATM   15  C20 UNK     1      34.277  -6.122  37.422  1.00  0.00     0.034 C 
ENDBRANCH  13  14
ENDBRANCH  11  13
ENDBRANCH   6  11
BRANCH   8  16
HETATM   16  C10 UNK     1      27.791  -6.121  38.771  1.00  0.00     0.163 C 
HETATM   17  O5  UNK     1      26.984  -5.197  39.040  1.00  0.00    -0.292 OA
HETATM   18  C16 UNK     1      27.782  -7.309  39.738  1.00  0.00     0.097 C 
ENDBRANCH   8  16
ENDBRANCH   2   5
BRANCH   3  19
HETATM   19  C6  UNK     1      29.593  -7.294  31.839  1.00  0.00     0.108 A 
HETATM   20  C11 UNK     1      28.637  -7.958  31.179  1.00  0.00     0.037 A 
HETATM   21  C9  UNK     1      28.961  -8.702  29.972  1.00  0.00    -0.001 A 
HETATM   22  C12 UNK     1      30.276  -8.710  29.519  1.00  0.00     0.089 A 
HETATM   23  C14 UNK     1      27.996  -9.410  29.251  1.00  0.00     0.014 A 
HETATM   24  O1  UNK     1      31.278  -8.009  30.217  1.00  0.00    -0.274 OA
HETATM   25  C15 UNK     1      30.652  -9.403  28.369  1.00  0.00     0.038 A 
HETATM   26  C13 UNK     1      30.998  -7.288  31.375  1.00  0.00     0.304 A 
HETATM   27  O6  UNK     1      31.878  -6.681  31.977  1.00  0.00    -0.259 OA
HETATM   28  C18 UNK     1      29.683 -10.106  27.657  1.00  0.00     0.003 A 
HETATM   29  C17 UNK     1      28.357 -10.110  28.096  1.00  0.00     0.001 A 
ENDBRANCH   3  19
TORSDOF 6
ENDMDL
MODEL 10
REMARK VINA RESULT:      -7.8      6.056     11.928
REMARK  6 active torsions:
REMARK  status: ('A' for Active; 'I' for Inactive)
REMARK    1  A    between atoms: C19_27  and  O2_3 
REMARK    2  A    between atoms: C7_15  and  O2_3 
REMARK    3  A    between atoms: C3_11  and  N1_8 
REMARK       I    between atoms: C8_16  and  N1_8 
REMARK    4  A    between atoms: C2_10  and  C7_15 
REMARK    5  A    between atoms: C10_18  and  C4_12 
REMARK    6  A    between atoms: C6_14  and  C8_16 
ROOT
HETATM    1  O4  UNK     1      19.820   4.973  32.467  1.00  0.00    -0.267 OA
HETATM    2  N1  UNK     1      17.963   4.196  33.699  1.00  0.00    -0.316 N 
HETATM    3  C8  UNK     1      18.768   5.143  33.081  1.00  0.00     0.262 C 
HETATM    4  H1  UNK     1      17.123   4.495  34.188  1.00  0.00     0.169 HD
ENDROOT
BRANCH   2   5
HETATM    5  C3  UNK     1      18.197   2.819  33.746  1.00  0.00     0.094 A 
HETATM    6  C2  UNK     1      18.298   1.907  32.744  1.00  0.00     0.080 A 
HETATM    7  C1  UNK     1      18.546   0.603  33.260  1.00  0.00    -0.022 A 
HETATM    8  C4  UNK     1      18.621   0.596  34.635  1.00  0.00     0.059 A 
HETATM    9  C5  UNK     1      18.705  -0.608  32.414  1.00  0.00     0.051 C 
HETATM   10  S1  UNK     1      18.393   2.157  35.300  1.00  0.00    -0.067 SA
BRANCH   6  11
HETATM   11  C7  UNK     1      18.166   2.244  31.348  1.00  0.00     0.296 C 
HETATM   12  O3  UNK     1      17.166   2.788  30.861  1.00  0.00    -0.259 OA
BRANCH  11  13
HETATM   13  O2  UNK     1      19.263   1.904  30.585  1.00  0.00    -0.318 OA
BRANCH  13  14
HETATM   14  C19 UNK     1      19.004   1.391  29.274  1.00  0.00     0.174 C 
HETATM   15  C20 UNK     1      19.853   0.158  29.049  1.00  0.00     0.034 C 
ENDBRANCH  13  14
ENDBRANCH  11  13
ENDBRANCH   6  11
BRANCH   8  16
HETATM   16  C10 UNK     1      18.853  -0.499  35.523  1.00  0.00     0.163 C 
HETATM   17  O5  UNK     1      19.978  -1.016  35.736  1.00  0.00    -0.292 OA
HETATM   18  C16 UNK     1      17.682  -1.122  36.290  1.00  0.00     0.097 C 
ENDBRANCH   8  16
ENDBRANCH   2   5
BRANCH   3  19
HETATM   19  C6  UNK     1      18.224   6.499  33.224  1.00  0.00     0.108 A 
HETATM   20  C11 UNK     1      19.075   7.433  33.667  1.00  0.00     0.037 A 
HETATM   21  C9  UNK     1      18.630   8.806  33.842  1.00  0.00    -0.001 A 
HETATM   22  C12 UNK     1      17.312   9.130  33.542  1.00  0.00     0.089 A 
HETATM   23  C14 UNK     1      19.483   9.813  34.301  1.00  0.00     0.014 A 
HETATM   24  O1  UNK     1      16.420   8.144  33.076  1.00  0.00    -0.274 OA
HETATM   25  C15 UNK     1      16.822  10.427  33.688  1.00  0.00     0.038 A 
HETATM   26  C13 UNK     1      16.817   6.821  32.898  1.00  0.00     0.304 A 
HETATM   27  O6  UNK     1      16.034   5.968  32.493  1.00  0.00    -0.259 OA
HETATM   28  C18 UNK     1      17.680  11.424  34.147  1.00  0.00     0.003 A 
HETATM   29  C17 UNK     1      19.008  11.119  34.453  1.00  0.00     0.001 A 
ENDBRANCH   3  19
TORSDOF 6
ENDMDL
