MODEL 1
REMARK VINA RESULT:      -9.1      0.000      0.000
REMARK  4 active torsions:
REMARK  status: ('A' for Active; 'I' for Inactive)
REMARK    1  A    between atoms: C1_7  and  O1_1 
REMARK    2  A    between atoms: C16_22  and  O1_1 
REMARK    3  A    between atoms: C15_21  and  C6_12 
REMARK    4  A    between atoms: C16_22  and  C9_15 
ROOT
HETATM    1  O2  UNK     1      29.036  -5.451  32.245  1.00  0.00    -0.293 OA
HETATM    2  N1  UNK     1      29.026 -10.109  31.389  1.00  0.00    -0.362 N 
HETATM    3  C6  UNK     1      30.001  -8.041  33.068  1.00  0.00     0.104 C 
HETATM    4  C7  UNK     1      29.008  -7.805  31.935  1.00  0.00     0.024 C 
HETATM    5  C8  UNK     1      28.555  -8.827  31.181  1.00  0.00     0.020 C 
HETATM    6  C9  UNK     1      30.539  -9.475  33.096  1.00  0.00     0.052 C 
HETATM    7  C10 UNK     1      27.537  -8.658  30.084  1.00  0.00     0.058 C 
HETATM    8  C11 UNK     1      26.724  -7.380  30.247  1.00  0.00     0.014 C 
HETATM    9  C12 UNK     1      30.031 -10.435  32.287  1.00  0.00     0.018 C 
HETATM   10  C13 UNK     1      27.634  -6.183  30.458  1.00  0.00     0.084 C 
HETATM   11  C14 UNK     1      28.579  -6.406  31.618  1.00  0.00     0.158 C 
HETATM   12  C17 UNK     1      30.473 -11.873  32.227  1.00  0.00     0.069 C 
HETATM   13  H17 UNK     1      28.668 -10.846  30.793  1.00  0.00     0.165 HD
ENDROOT
BRANCH   3  14
HETATM   14  C15 UNK     1      29.372  -7.695  34.390  1.00  0.00     0.029 A 
HETATM   15  C18 UNK     1      29.966  -6.595  35.192  1.00  0.00     0.194 A 
HETATM   16  O5  UNK     1      30.944  -5.966  34.808  1.00  0.00    -0.287 OA
HETATM   17  C20 UNK     1      29.312  -6.297  36.480  1.00  0.00     0.049 A 
HETATM   18  C21 UNK     1      28.199  -7.044  36.864  1.00  0.00     0.089 A 
HETATM   19  C22 UNK     1      29.796  -5.280  37.306  1.00  0.00     0.025 A 
HETATM   20  O3  UNK     1      27.681  -8.055  36.092  1.00  0.00    -0.321 OA
HETATM   21  C23 UNK     1      27.564  -6.780  38.078  1.00  0.00     0.039 A 
HETATM   22  C19 UNK     1      28.301  -8.321  34.896  1.00  0.00     0.154 A 
HETATM   23  C25 UNK     1      28.045  -5.765  38.904  1.00  0.00     0.009 A 
HETATM   24  C24 UNK     1      29.159  -5.017  38.519  1.00  0.00    -0.061 A 
HETATM   25  C26 UNK     1      29.668  -3.932  39.408  1.00  0.00     0.048 C 
ENDBRANCH   3  14
BRANCH   6  26
HETATM   26  C16 UNK     1      31.637  -9.736  34.043  1.00  0.00     0.292 C 
HETATM   27  O4  UNK     1      32.798  -9.455  33.813  1.00  0.00    -0.259 OA
BRANCH  26  28
HETATM   28  O1  UNK     1      31.117 -10.316  35.151  1.00  0.00    -0.312 OA
BRANCH  28  29
HETATM   29  C1  UNK     1      31.726  -9.935  36.368  1.00  0.00     0.132 C 
HETATM   30  C2  UNK     1      32.488  -8.626  36.233  1.00  0.00     0.032 C 
HETATM   31  C4  UNK     1      32.592  -8.107  37.662  1.00  0.00     0.002 C 
HETATM   32  C5  UNK     1      31.437  -8.751  38.433  1.00  0.00     0.002 C 
HETATM   33  C3  UNK     1      30.681  -9.604  37.421  1.00  0.00     0.032 C 
ENDBRANCH  28  29
ENDBRANCH  26  28
ENDBRANCH   6  26
TORSDOF 4
ENDMDL
MODEL 2
REMARK VINA RESULT:      -8.8      2.613      6.334
REMARK  4 active torsions:
REMARK  status: ('A' for Active; 'I' for Inactive)
REMARK    1  A    between atoms: C1_7  and  O1_1 
REMARK    2  A    between atoms: C16_22  and  O1_1 
REMARK    3  A    between atoms: C15_21  and  C6_12 
REMARK    4  A    between atoms: C16_22  and  C9_15 
ROOT
HETATM    1  O2  UNK     1      28.457  -9.604  36.420  1.00  0.00    -0.293 OA
HETATM    2  N1  UNK     1      30.696  -5.633  37.703  1.00  0.00    -0.362 N 
HETATM    3  C6  UNK     1      30.386  -7.593  35.676  1.00  0.00     0.104 C 
HETATM    4  C7  UNK     1      29.553  -7.566  36.953  1.00  0.00     0.024 C 
HETATM    5  C8  UNK     1      29.722  -6.597  37.875  1.00  0.00     0.020 C 
HETATM    6  C9  UNK     1      31.513  -6.555  35.681  1.00  0.00     0.052 C 
HETATM    7  C10 UNK     1      28.893  -6.493  39.128  1.00  0.00     0.058 C 
HETATM    8  C11 UNK     1      27.570  -7.240  39.005  1.00  0.00     0.014 C 
HETATM    9  C12 UNK     1      31.613  -5.627  36.661  1.00  0.00     0.018 C 
HETATM   10  C13 UNK     1      27.794  -8.656  38.508  1.00  0.00     0.084 C 
HETATM   11  C14 UNK     1      28.576  -8.670  37.212  1.00  0.00     0.158 C 
HETATM   12  C17 UNK     1      32.668  -4.560  36.771  1.00  0.00     0.069 C 
HETATM   13  H17 UNK     1      30.798  -4.929  38.425  1.00  0.00     0.165 HD
ENDROOT
BRANCH   3  14
HETATM   14  C15 UNK     1      29.502  -7.395  34.475  1.00  0.00     0.029 A 
HETATM   15  C18 UNK     1      29.591  -8.373  33.360  1.00  0.00     0.194 A 
HETATM   16  O5  UNK     1      30.357  -9.327  33.393  1.00  0.00    -0.287 OA
HETATM   17  C20 UNK     1      28.705  -8.133  32.207  1.00  0.00     0.049 A 
HETATM   18  C21 UNK     1      27.851  -7.030  32.226  1.00  0.00     0.089 A 
HETATM   19  C22 UNK     1      28.714  -8.996  31.108  1.00  0.00     0.025 A 
HETATM   20  O3  UNK     1      27.799  -6.150  33.278  1.00  0.00    -0.321 OA
HETATM   21  C23 UNK     1      27.002  -6.784  31.146  1.00  0.00     0.039 A 
HETATM   22  C19 UNK     1      28.631  -6.386  34.345  1.00  0.00     0.154 A 
HETATM   23  C25 UNK     1      27.010  -7.643  30.049  1.00  0.00     0.009 A 
HETATM   24  C24 UNK     1      27.865  -8.748  30.030  1.00  0.00    -0.061 A 
HETATM   25  C26 UNK     1      27.868  -9.664  28.853  1.00  0.00     0.048 C 
ENDBRANCH   3  14
BRANCH   6  26
HETATM   26  C16 UNK     1      32.474  -6.639  34.568  1.00  0.00     0.292 C 
HETATM   27  O4  UNK     1      32.354  -6.011  33.533  1.00  0.00    -0.259 OA
BRANCH  26  28
HETATM   28  O1  UNK     1      33.456  -7.504  34.916  1.00  0.00    -0.312 OA
BRANCH  28  29
HETATM   29  C1  UNK     1      34.693  -7.300  34.265  1.00  0.00     0.132 C 
HETATM   30  C2  UNK     1      35.785  -6.890  35.242  1.00  0.00     0.032 C 
HETATM   31  C4  UNK     1      37.080  -7.243  34.522  1.00  0.00     0.002 C 
HETATM   32  C5  UNK     1      36.721  -8.334  33.511  1.00  0.00     0.002 C 
HETATM   33  C3  UNK     1      35.232  -8.601  33.693  1.00  0.00     0.032 C 
ENDBRANCH  28  29
ENDBRANCH  26  28
ENDBRANCH   6  26
TORSDOF 4
ENDMDL
MODEL 3
REMARK VINA RESULT:      -8.7      1.463      2.075
REMARK  4 active torsions:
REMARK  status: ('A' for Active; 'I' for Inactive)
REMARK    1  A    between atoms: C1_7  and  O1_1 
REMARK    2  A    between atoms: C16_22  and  O1_1 
REMARK    3  A    between atoms: C15_21  and  C6_12 
REMARK    4  A    between atoms: C16_22  and  C9_15 
ROOT
HETATM    1  O2  UNK     1      28.954  -5.417  32.209  1.00  0.00    -0.293 OA
HETATM    2  N1  UNK     1      29.083 -10.073  31.357  1.00  0.00    -0.362 N 
HETATM    3  C6  UNK     1      30.007  -7.975  33.027  1.00  0.00     0.104 C 
HETATM    4  C7  UNK     1      28.998  -7.770  31.901  1.00  0.00     0.024 C 
HETATM    5  C8  UNK     1      28.571  -8.807  31.151  1.00  0.00     0.020 C 
HETATM    6  C9  UNK     1      30.589  -9.391  33.052  1.00  0.00     0.052 C 
HETATM    7  C10 UNK     1      27.539  -8.671  30.063  1.00  0.00     0.058 C 
HETATM    8  C11 UNK     1      26.688  -7.419  30.232  1.00  0.00     0.014 C 
HETATM    9  C12 UNK     1      30.105 -10.368  32.247  1.00  0.00     0.018 C 
HETATM   10  C13 UNK     1      27.562  -6.194  30.434  1.00  0.00     0.084 C 
HETATM   11  C14 UNK     1      28.523  -6.386  31.587  1.00  0.00     0.158 C 
HETATM   12  C17 UNK     1      30.591 -11.791  32.185  1.00  0.00     0.069 C 
HETATM   13  H17 UNK     1      28.743 -10.823  30.764  1.00  0.00     0.165 HD
ENDROOT
BRANCH   3  14
HETATM   14  C15 UNK     1      29.377  -7.647  34.353  1.00  0.00     0.029 A 
HETATM   15  C18 UNK     1      29.964  -6.549  35.164  1.00  0.00     0.194 A 
HETATM   16  O5  UNK     1      30.935  -5.908  34.784  1.00  0.00    -0.287 OA
HETATM   17  C20 UNK     1      29.310  -6.270  36.456  1.00  0.00     0.049 A 
HETATM   18  C21 UNK     1      28.205  -7.031  36.836  1.00  0.00     0.089 A 
HETATM   19  C22 UNK     1      29.787  -5.256  37.291  1.00  0.00     0.025 A 
HETATM   20  O3  UNK     1      27.694  -8.038  36.055  1.00  0.00    -0.321 OA
HETATM   21  C23 UNK     1      27.570  -6.784  38.054  1.00  0.00     0.039 A 
HETATM   22  C19 UNK     1      28.313  -8.288  34.855  1.00  0.00     0.154 A 
HETATM   23  C25 UNK     1      28.044  -5.773  38.889  1.00  0.00     0.009 A 
HETATM   24  C24 UNK     1      29.151  -5.011  38.508  1.00  0.00    -0.061 A 
HETATM   25  C26 UNK     1      29.652  -3.930  39.406  1.00  0.00     0.048 C 
ENDBRANCH   3  14
BRANCH   6  26
HETATM   26  C16 UNK     1      31.702  -9.617  33.989  1.00  0.00     0.292 C 
HETATM   27  O4  UNK     1      31.542  -9.945  35.150  1.00  0.00    -0.259 OA
BRANCH  26  28
HETATM   28  O1  UNK     1      32.866  -9.398  33.331  1.00  0.00    -0.312 OA
BRANCH  28  29
HETATM   29  C1  UNK     1      33.689  -8.394  33.889  1.00  0.00     0.132 C 
HETATM   30  C2  UNK     1      35.163  -8.756  33.795  1.00  0.00     0.032 C 
HETATM   31  C4  UNK     1      35.883  -7.418  33.910  1.00  0.00     0.002 C 
HETATM   32  C5  UNK     1      34.877  -6.355  33.463  1.00  0.00     0.002 C 
HETATM   33  C3  UNK     1      33.611  -7.111  33.078  1.00  0.00     0.032 C 
ENDBRANCH  28  29
ENDBRANCH  26  28
ENDBRANCH   6  26
TORSDOF 4
ENDMDL
MODEL 4
REMARK VINA RESULT:      -8.5      2.923      6.704
REMARK  4 active torsions:
REMARK  status: ('A' for Active; 'I' for Inactive)
REMARK    1  A    between atoms: C1_7  and  O1_1 
REMARK    2  A    between atoms: C16_22  and  O1_1 
REMARK    3  A    between atoms: C15_21  and  C6_12 
REMARK    4  A    between atoms: C16_22  and  C9_15 
ROOT
HETATM    1  O2  UNK     1      28.131 -10.135  38.800  1.00  0.00    -0.293 OA
HETATM    2  N1  UNK     1      28.281  -5.445  38.162  1.00  0.00    -0.362 N 
HETATM    3  C6  UNK     1      29.692  -7.890  37.883  1.00  0.00     0.104 C 
HETATM    4  C7  UNK     1      28.249  -7.804  38.367  1.00  0.00     0.024 C 
HETATM    5  C8  UNK     1      27.613  -6.617  38.458  1.00  0.00     0.020 C 
HETATM    6  C9  UNK     1      30.348  -6.514  37.725  1.00  0.00     0.052 C 
HETATM    7  C10 UNK     1      26.174  -6.479  38.879  1.00  0.00     0.058 C 
HETATM    8  C11 UNK     1      25.396  -7.776  38.697  1.00  0.00     0.014 C 
HETATM    9  C12 UNK     1      29.631  -5.372  37.850  1.00  0.00     0.018 C 
HETATM   10  C13 UNK     1      26.133  -8.942  39.330  1.00  0.00     0.084 C 
HETATM   11  C14 UNK     1      27.548  -9.051  38.805  1.00  0.00     0.158 C 
HETATM   12  C17 UNK     1      30.161  -3.970  37.713  1.00  0.00     0.069 C 
HETATM   13  H17 UNK     1      27.771  -4.574  38.254  1.00  0.00     0.165 HD
ENDROOT
BRANCH   3  14
HETATM   14  C15 UNK     1      29.761  -8.652  36.588  1.00  0.00     0.029 A 
HETATM   15  C18 UNK     1      30.685  -9.812  36.497  1.00  0.00     0.194 A 
HETATM   16  O5  UNK     1      31.383 -10.163  37.439  1.00  0.00    -0.287 OA
HETATM   17  C20 UNK     1      30.715 -10.523  35.205  1.00  0.00     0.049 A 
HETATM   18  C21 UNK     1      29.895 -10.080  34.168  1.00  0.00     0.089 A 
HETATM   19  C22 UNK     1      31.550 -11.627  35.020  1.00  0.00     0.025 A 
HETATM   20  O3  UNK     1      29.055  -9.002  34.294  1.00  0.00    -0.321 OA
HETATM   21  C23 UNK     1      29.907 -10.738  32.937  1.00  0.00     0.039 A 
HETATM   22  C19 UNK     1      29.038  -8.349  35.502  1.00  0.00     0.154 A 
HETATM   23  C25 UNK     1      30.740 -11.841  32.749  1.00  0.00     0.009 A 
HETATM   24  C24 UNK     1      31.560 -12.284  33.789  1.00  0.00    -0.061 A 
HETATM   25  C26 UNK     1      32.448 -13.465  33.581  1.00  0.00     0.048 C 
ENDBRANCH   3  14
BRANCH   6  26
HETATM   26  C16 UNK     1      31.792  -6.516  37.440  1.00  0.00     0.292 C 
HETATM   27  O4  UNK     1      32.637  -6.808  38.266  1.00  0.00    -0.259 OA
BRANCH  26  28
HETATM   28  O1  UNK     1      31.974  -6.148  36.149  1.00  0.00    -0.312 OA
BRANCH  28  29
HETATM   29  C1  UNK     1      33.232  -5.573  35.861  1.00  0.00     0.132 C 
HETATM   30  C2  UNK     1      33.888  -6.225  34.653  1.00  0.00     0.032 C 
HETATM   31  C4  UNK     1      34.891  -5.185  34.169  1.00  0.00     0.002 C 
HETATM   32  C5  UNK     1      34.382  -3.834  34.676  1.00  0.00     0.002 C 
HETATM   33  C3  UNK     1      33.083  -4.127  35.417  1.00  0.00     0.032 C 
ENDBRANCH  28  29
ENDBRANCH  26  28
ENDBRANCH   6  26
TORSDOF 4
ENDMDL
MODEL 5
REMARK VINA RESULT:      -8.5      2.734      6.617
REMARK  4 active torsions:
REMARK  status: ('A' for Active; 'I' for Inactive)
REMARK    1  A    between atoms: C1_7  and  O1_1 
REMARK    2  A    between atoms: C16_22  and  O1_1 
REMARK    3  A    between atoms: C15_21  and  C6_12 
REMARK    4  A    between atoms: C16_22  and  C9_15 
ROOT
HETATM    1  O2  UNK     1      29.335  -8.693  38.520  1.00  0.00    -0.293 OA
HETATM    2  N1  UNK     1      30.365  -4.239  37.283  1.00  0.00    -0.362 N 
HETATM    3  C6  UNK     1      31.091  -6.968  37.016  1.00  0.00     0.104 C 
HETATM    4  C7  UNK     1      29.860  -6.498  37.783  1.00  0.00     0.024 C 
HETATM    5  C8  UNK     1      29.544  -5.188  37.859  1.00  0.00     0.020 C 
HETATM    6  C9  UNK     1      31.978  -5.809  36.551  1.00  0.00     0.052 C 
HETATM    7  C10 UNK     1      28.313  -4.674  38.558  1.00  0.00     0.058 C 
HETATM    8  C11 UNK     1      27.246  -5.750  38.711  1.00  0.00     0.014 C 
HETATM    9  C12 UNK     1      31.583  -4.521  36.683  1.00  0.00     0.018 C 
HETATM   10  C13 UNK     1      27.836  -7.014  39.312  1.00  0.00     0.084 C 
HETATM   11  C14 UNK     1      29.025  -7.502  38.514  1.00  0.00     0.158 C 
HETATM   12  C17 UNK     1      32.363  -3.304  36.262  1.00  0.00     0.069 C 
HETATM   13  H17 UNK     1      30.097  -3.265  37.373  1.00  0.00     0.165 HD
ENDROOT
BRANCH   3  14
HETATM   14  C15 UNK     1      30.680  -7.814  35.842  1.00  0.00     0.029 A 
HETATM   15  C18 UNK     1      31.270  -9.170  35.704  1.00  0.00     0.194 A 
HETATM   16  O5  UNK     1      32.073  -9.615  36.513  1.00  0.00    -0.287 OA
HETATM   17  C20 UNK     1      30.834  -9.956  34.535  1.00  0.00     0.049 A 
HETATM   18  C21 UNK     1      29.914  -9.399  33.647  1.00  0.00     0.089 A 
HETATM   19  C22 UNK     1      31.332 -11.243  34.317  1.00  0.00     0.025 A 
HETATM   20  O3  UNK     1      29.393  -8.140  33.812  1.00  0.00    -0.321 OA
HETATM   21  C23 UNK     1      29.488 -10.125  32.535  1.00  0.00     0.039 A 
HETATM   22  C19 UNK     1      29.808  -7.419  34.905  1.00  0.00     0.154 A 
HETATM   23  C25 UNK     1      29.983 -11.410  32.315  1.00  0.00     0.009 A 
HETATM   24  C24 UNK     1      30.903 -11.967  33.204  1.00  0.00    -0.061 A 
HETATM   25  C26 UNK     1      31.428 -13.343  32.963  1.00  0.00     0.048 C 
ENDBRANCH   3  14
BRANCH   6  26
HETATM   26  C16 UNK     1      33.276  -6.184  35.965  1.00  0.00     0.292 C 
HETATM   27  O4  UNK     1      34.219  -6.577  36.626  1.00  0.00    -0.259 OA
BRANCH  26  28
HETATM   28  O1  UNK     1      33.207  -6.010  34.624  1.00  0.00    -0.312 OA
BRANCH  28  29
HETATM   29  C1  UNK     1      33.806  -7.033  33.855  1.00  0.00     0.132 C 
HETATM   30  C2  UNK     1      32.914  -7.470  32.704  1.00  0.00     0.032 C 
HETATM   31  C4  UNK     1      33.875  -8.119  31.715  1.00  0.00     0.002 C 
HETATM   32  C5  UNK     1      35.253  -7.520  32.006  1.00  0.00     0.002 C 
HETATM   33  C3  UNK     1      35.045  -6.522  33.139  1.00  0.00     0.032 C 
ENDBRANCH  28  29
ENDBRANCH  26  28
ENDBRANCH   6  26
TORSDOF 4
ENDMDL
MODEL 6
REMARK VINA RESULT:      -8.4      2.913      6.704
REMARK  4 active torsions:
REMARK  status: ('A' for Active; 'I' for Inactive)
REMARK    1  A    between atoms: C1_7  and  O1_1 
REMARK    2  A    between atoms: C16_22  and  O1_1 
REMARK    3  A    between atoms: C15_21  and  C6_12 
REMARK    4  A    between atoms: C16_22  and  C9_15 
ROOT
HETATM    1  O2  UNK     1      29.315  -8.042  36.664  1.00  0.00    -0.293 OA
HETATM    2  N1  UNK     1      33.373  -5.609  36.882  1.00  0.00    -0.362 N 
HETATM    3  C6  UNK     1      31.836  -7.465  35.385  1.00  0.00     0.104 C 
HETATM    4  C7  UNK     1      31.332  -6.789  36.656  1.00  0.00     0.024 C 
HETATM    5  C8  UNK     1      32.093  -5.894  37.318  1.00  0.00     0.020 C 
HETATM    6  C9  UNK     1      33.310  -7.164  35.098  1.00  0.00     0.052 C 
HETATM    7  C10 UNK     1      31.627  -5.159  38.547  1.00  0.00     0.058 C 
HETATM    8  C11 UNK     1      30.108  -5.136  38.661  1.00  0.00     0.014 C 
HETATM    9  C12 UNK     1      34.001  -6.258  35.828  1.00  0.00     0.018 C 
HETATM   10  C13 UNK     1      29.533  -6.532  38.499  1.00  0.00     0.084 C 
HETATM   11  C14 UNK     1      29.996  -7.174  37.210  1.00  0.00     0.158 C 
HETATM   12  C17 UNK     1      35.444  -5.877  35.639  1.00  0.00     0.069 C 
HETATM   13  H17 UNK     1      33.916  -4.939  37.414  1.00  0.00     0.165 HD
ENDROOT
BRANCH   3  14
HETATM   14  C15 UNK     1      30.984  -7.064  34.212  1.00  0.00     0.029 A 
HETATM   15  C18 UNK     1      30.369  -8.134  33.384  1.00  0.00     0.194 A 
HETATM   16  O5  UNK     1      30.534  -9.321  33.630  1.00  0.00    -0.287 OA
HETATM   17  C20 UNK     1      29.545  -7.687  32.246  1.00  0.00     0.049 A 
HETATM   18  C21 UNK     1      29.390  -6.320  32.016  1.00  0.00     0.089 A 
HETATM   19  C22 UNK     1      28.924  -8.616  31.408  1.00  0.00     0.025 A 
HETATM   20  O3  UNK     1      29.977  -5.364  32.807  1.00  0.00    -0.321 OA
HETATM   21  C23 UNK     1      28.614  -5.875  30.945  1.00  0.00     0.039 A 
HETATM   22  C19 UNK     1      30.742  -5.794  33.862  1.00  0.00     0.154 A 
HETATM   23  C25 UNK     1      27.994  -6.800  30.107  1.00  0.00     0.009 A 
HETATM   24  C24 UNK     1      28.148  -8.169  30.339  1.00  0.00    -0.061 A 
HETATM   25  C26 UNK     1      27.481  -9.154  29.439  1.00  0.00     0.048 C 
ENDBRANCH   3  14
BRANCH   6  26
HETATM   26  C16 UNK     1      33.921  -7.924  33.994  1.00  0.00     0.292 C 
HETATM   27  O4  UNK     1      34.254  -9.090  34.089  1.00  0.00    -0.259 OA
BRANCH  26  28
HETATM   28  O1  UNK     1      34.028  -7.105  32.920  1.00  0.00    -0.312 OA
BRANCH  28  29
HETATM   29  C1  UNK     1      34.019  -7.757  31.667  1.00  0.00     0.132 C 
HETATM   30  C2  UNK     1      32.810  -7.361  30.833  1.00  0.00     0.032 C 
HETATM   31  C4  UNK     1      33.224  -7.684  29.402  1.00  0.00     0.002 C 
HETATM   32  C5  UNK     1      34.754  -7.659  29.386  1.00  0.00     0.002 C 
HETATM   33  C3  UNK     1      35.182  -7.297  30.803  1.00  0.00     0.032 C 
ENDBRANCH  28  29
ENDBRANCH  26  28
ENDBRANCH   6  26
TORSDOF 4
ENDMDL
MODEL 7
REMARK VINA RESULT:      -8.4      0.976      1.983
REMARK  4 active torsions:
REMARK  status: ('A' for Active; 'I' for Inactive)
REMARK    1  A    between atoms: C1_7  and  O1_1 
REMARK    2  A    between atoms: C16_22  and  O1_1 
REMARK    3  A    between atoms: C15_21  and  C6_12 
REMARK    4  A    between atoms: C16_22  and  C9_15 
ROOT
HETATM    1  O2  UNK     1      29.798  -5.243  31.111  1.00  0.00    -0.293 OA
HETATM    2  N1  UNK     1      29.080  -9.894  31.636  1.00  0.00    -0.362 N 
HETATM    3  C6  UNK     1      30.752  -7.697  32.287  1.00  0.00     0.104 C 
HETATM    4  C7  UNK     1      29.457  -7.560  31.495  1.00  0.00     0.024 C 
HETATM    5  C8  UNK     1      28.683  -8.634  31.233  1.00  0.00     0.020 C 
HETATM    6  C9  UNK     1      31.137  -9.157  32.548  1.00  0.00     0.052 C 
HETATM    7  C10 UNK     1      27.370  -8.549  30.501  1.00  0.00     0.058 C 
HETATM    8  C11 UNK     1      26.779  -7.145  30.542  1.00  0.00     0.014 C 
HETATM    9  C12 UNK     1      30.299 -10.174  32.236  1.00  0.00     0.018 C 
HETATM   10  C13 UNK     1      27.809  -6.113  30.120  1.00  0.00     0.084 C 
HETATM   11  C14 UNK     1      29.072  -6.222  30.947  1.00  0.00     0.158 C 
HETATM   12  C17 UNK     1      30.563 -11.641  32.447  1.00  0.00     0.069 C 
HETATM   13  H17 UNK     1      28.475 -10.675  31.409  1.00  0.00     0.165 HD
ENDROOT
BRANCH   3  14
HETATM   14  C15 UNK     1      30.648  -6.946  33.586  1.00  0.00     0.029 A 
HETATM   15  C18 UNK     1      29.549  -7.298  34.522  1.00  0.00     0.194 A 
HETATM   16  O5  UNK     1      28.734  -8.175  34.267  1.00  0.00    -0.287 OA
HETATM   17  C20 UNK     1      29.491  -6.531  35.780  1.00  0.00     0.049 A 
HETATM   18  C21 UNK     1      30.447  -5.544  36.017  1.00  0.00     0.089 A 
HETATM   19  C22 UNK     1      28.494  -6.786  36.725  1.00  0.00     0.025 A 
HETATM   20  O3  UNK     1      31.449  -5.251  35.125  1.00  0.00    -0.321 OA
HETATM   21  C23 UNK     1      30.412  -4.807  37.201  1.00  0.00     0.039 A 
HETATM   22  C19 UNK     1      31.490  -5.973  33.957  1.00  0.00     0.154 A 
HETATM   23  C25 UNK     1      29.419  -5.060  38.146  1.00  0.00     0.009 A 
HETATM   24  C24 UNK     1      28.461  -6.048  37.908  1.00  0.00    -0.061 A 
HETATM   25  C26 UNK     1      27.401  -6.314  38.923  1.00  0.00     0.048 C 
ENDBRANCH   3  14
BRANCH   6  26
HETATM   26  C16 UNK     1      32.465  -9.379  33.144  1.00  0.00     0.292 C 
HETATM   27  O4  UNK     1      33.498  -8.975  32.645  1.00  0.00    -0.259 OA
BRANCH  26  28
HETATM   28  O1  UNK     1      32.305 -10.082  34.292  1.00  0.00    -0.312 OA
BRANCH  28  29
HETATM   29  C1  UNK     1      31.843  -9.331  35.395  1.00  0.00     0.132 C 
HETATM   30  C2  UNK     1      31.336 -10.227  36.515  1.00  0.00     0.032 C 
HETATM   31  C4  UNK     1      31.405  -9.345  37.756  1.00  0.00     0.002 C 
HETATM   32  C5  UNK     1      32.455  -8.273  37.458  1.00  0.00     0.002 C 
HETATM   33  C3  UNK     1      32.984  -8.580  36.062  1.00  0.00     0.032 C 
ENDBRANCH  28  29
ENDBRANCH  26  28
ENDBRANCH   6  26
TORSDOF 4
ENDMDL
MODEL 8
REMARK VINA RESULT:      -8.3      2.971      6.589
REMARK  4 active torsions:
REMARK  status: ('A' for Active; 'I' for Inactive)
REMARK    1  A    between atoms: C1_7  and  O1_1 
REMARK    2  A    between atoms: C16_22  and  O1_1 
REMARK    3  A    between atoms: C15_21  and  C6_12 
REMARK    4  A    between atoms: C16_22  and  C9_15 
ROOT
HETATM    1  O2  UNK     1      29.602  -9.749  36.990  1.00  0.00    -0.293 OA
HETATM    2  N1  UNK     1      28.170  -5.657  38.896  1.00  0.00    -0.362 N 
HETATM    3  C6  UNK     1      30.270  -6.997  37.539  1.00  0.00     0.104 C 
HETATM    4  C7  UNK     1      28.921  -7.641  37.843  1.00  0.00     0.024 C 
HETATM    5  C8  UNK     1      27.945  -6.951  38.470  1.00  0.00     0.020 C 
HETATM    6  C9  UNK     1      30.429  -5.618  38.186  1.00  0.00     0.052 C 
HETATM    7  C10 UNK     1      26.579  -7.519  38.748  1.00  0.00     0.058 C 
HETATM    8  C11 UNK     1      26.250  -8.698  37.840  1.00  0.00     0.014 C 
HETATM    9  C12 UNK     1      29.394  -5.008  38.810  1.00  0.00     0.018 C 
HETATM   10  C13 UNK     1      27.375  -9.717  37.850  1.00  0.00     0.084 C 
HETATM   11  C14 UNK     1      28.701  -9.079  37.495  1.00  0.00     0.158 C 
HETATM   12  C17 UNK     1      29.427  -3.659  39.477  1.00  0.00     0.069 C 
HETATM   13  H17 UNK     1      27.415  -5.178  39.373  1.00  0.00     0.165 HD
ENDROOT
BRANCH   3  14
HETATM   14  C15 UNK     1      30.476  -6.901  36.052  1.00  0.00     0.029 A 
HETATM   15  C18 UNK     1      31.629  -7.616  35.448  1.00  0.00     0.194 A 
HETATM   16  O5  UNK     1      32.409  -8.277  36.122  1.00  0.00    -0.287 OA
HETATM   17  C20 UNK     1      31.786  -7.489  33.988  1.00  0.00     0.049 A 
HETATM   18  C21 UNK     1      30.866  -6.725  33.271  1.00  0.00     0.089 A 
HETATM   19  C22 UNK     1      32.840  -8.124  33.326  1.00  0.00     0.025 A 
HETATM   20  O3  UNK     1      29.812  -6.079  33.869  1.00  0.00    -0.321 OA
HETATM   21  C23 UNK     1      30.994  -6.590  31.888  1.00  0.00     0.039 A 
HETATM   22  C19 UNK     1      29.678  -6.206  35.230  1.00  0.00     0.154 A 
HETATM   23  C25 UNK     1      32.045  -7.223  31.226  1.00  0.00     0.009 A 
HETATM   24  C24 UNK     1      32.966  -7.989  31.944  1.00  0.00    -0.061 A 
HETATM   25  C26 UNK     1      34.087  -8.664  31.228  1.00  0.00     0.048 C 
ENDBRANCH   3  14
BRANCH   6  26
HETATM   26  C16 UNK     1      31.767  -5.011  38.095  1.00  0.00     0.292 C 
HETATM   27  O4  UNK     1      32.610  -5.117  38.966  1.00  0.00    -0.259 OA
BRANCH  26  28
HETATM   28  O1  UNK     1      31.859  -4.354  36.914  1.00  0.00    -0.312 OA
BRANCH  28  29
HETATM   29  C1  UNK     1      33.163  -4.261  36.379  1.00  0.00     0.132 C 
HETATM   30  C2  UNK     1      33.987  -5.503  36.680  1.00  0.00     0.032 C 
HETATM   31  C4  UNK     1      35.086  -5.485  35.625  1.00  0.00     0.002 C 
HETATM   32  C5  UNK     1      34.540  -4.659  34.458  1.00  0.00     0.002 C 
HETATM   33  C3  UNK     1      33.131  -4.244  34.860  1.00  0.00     0.032 C 
ENDBRANCH  28  29
ENDBRANCH  26  28
ENDBRANCH   6  26
TORSDOF 4
ENDMDL
MODEL 9
REMARK VINA RESULT:      -8.3      2.666      5.821
REMARK  4 active torsions:
REMARK  status: ('A' for Active; 'I' for Inactive)
REMARK    1  A    between atoms: C1_7  and  O1_1 
REMARK    2  A    between atoms: C16_22  and  O1_1 
REMARK    3  A    between atoms: C15_21  and  C6_12 
REMARK    4  A    between atoms: C16_22  and  C9_15 
ROOT
HETATM    1  O2  UNK     1      33.140  -8.036  36.259  1.00  0.00    -0.293 OA
HETATM    2  N1  UNK     1      31.835  -4.531  33.355  1.00  0.00    -0.362 N 
HETATM    3  C6  UNK     1      31.031  -6.934  34.630  1.00  0.00     0.104 C 
HETATM    4  C7  UNK     1      32.383  -6.268  34.868  1.00  0.00     0.024 C 
HETATM    5  C8  UNK     1      32.707  -5.111  34.255  1.00  0.00     0.020 C 
HETATM    6  C9  UNK     1      30.228  -6.262  33.512  1.00  0.00     0.052 C 
HETATM    7  C10 UNK     1      34.005  -4.384  34.494  1.00  0.00     0.058 C 
HETATM    8  C11 UNK     1      34.654  -4.785  35.812  1.00  0.00     0.014 C 
HETATM    9  C12 UNK     1      30.642  -5.105  32.942  1.00  0.00     0.018 C 
HETATM   10  C13 UNK     1      34.741  -6.296  35.934  1.00  0.00     0.084 C 
HETATM   11  C14 UNK     1      33.386  -6.944  35.748  1.00  0.00     0.158 C 
HETATM   12  C17 UNK     1      29.939  -4.353  31.844  1.00  0.00     0.069 C 
HETATM   13  H17 UNK     1      32.122  -3.667  32.908  1.00  0.00     0.165 HD
ENDROOT
BRANCH   3  14
HETATM   14  C15 UNK     1      30.232  -6.956  35.904  1.00  0.00     0.029 A 
HETATM   15  C18 UNK     1      29.734  -8.263  36.406  1.00  0.00     0.194 A 
HETATM   16  O5  UNK     1      29.957  -9.312  35.816  1.00  0.00    -0.287 OA
HETATM   17  C20 UNK     1      28.955  -8.229  37.657  1.00  0.00     0.049 A 
HETATM   18  C21 UNK     1      28.736  -7.004  38.286  1.00  0.00     0.089 A 
HETATM   19  C22 UNK     1      28.444  -9.405  38.210  1.00  0.00     0.025 A 
HETATM   20  O3  UNK     1      29.214  -5.817  37.788  1.00  0.00    -0.321 OA
HETATM   21  C23 UNK     1      28.002  -6.948  39.472  1.00  0.00     0.039 A 
HETATM   22  C19 UNK     1      29.937  -5.864  36.622  1.00  0.00     0.154 A 
HETATM   23  C25 UNK     1      27.490  -8.121  40.026  1.00  0.00     0.009 A 
HETATM   24  C24 UNK     1      27.712  -9.347  39.396  1.00  0.00    -0.061 A 
HETATM   25  C26 UNK     1      27.162 -10.598  39.994  1.00  0.00     0.048 C 
ENDBRANCH   3  14
BRANCH   6  26
HETATM   26  C16 UNK     1      28.996  -6.953  33.096  1.00  0.00     0.292 C 
HETATM   27  O4  UNK     1      27.880  -6.544  33.355  1.00  0.00    -0.259 OA
BRANCH  26  28
HETATM   28  O1  UNK     1      29.343  -8.067  32.407  1.00  0.00    -0.312 OA
BRANCH  28  29
HETATM   29  C1  UNK     1      29.093  -8.015  31.018  1.00  0.00     0.132 C 
HETATM   30  C2  UNK     1      30.191  -8.702  30.220  1.00  0.00     0.032 C 
HETATM   31  C4  UNK     1      29.531  -9.033  28.888  1.00  0.00     0.002 C 
HETATM   32  C5  UNK     1      28.027  -9.098  29.163  1.00  0.00     0.002 C 
HETATM   33  C3  UNK     1      27.862  -8.828  30.654  1.00  0.00     0.032 C 
ENDBRANCH  28  29
ENDBRANCH  26  28
ENDBRANCH   6  26
TORSDOF 4
ENDMDL
MODEL 10
REMARK VINA RESULT:      -8.3      2.729      6.452
REMARK  4 active torsions:
REMARK  status: ('A' for Active; 'I' for Inactive)
REMARK    1  A    between atoms: C1_7  and  O1_1 
REMARK    2  A    between atoms: C16_22  and  O1_1 
REMARK    3  A    between atoms: C15_21  and  C6_12 
REMARK    4  A    between atoms: C16_22  and  C9_15 
ROOT
HETATM    1  O2  UNK     1      29.559  -8.819  38.465  1.00  0.00    -0.293 OA
HETATM    2  N1  UNK     1      30.259  -4.266  37.368  1.00  0.00    -0.362 N 
HETATM    3  C6  UNK     1      31.196  -6.923  37.035  1.00  0.00     0.104 C 
HETATM    4  C7  UNK     1      29.923  -6.570  37.798  1.00  0.00     0.024 C 
HETATM    5  C8  UNK     1      29.506  -5.292  37.906  1.00  0.00     0.020 C 
HETATM    6  C9  UNK     1      31.997  -5.687  36.615  1.00  0.00     0.052 C 
HETATM    7  C10 UNK     1      28.232  -4.893  38.601  1.00  0.00     0.058 C 
HETATM    8  C11 UNK     1      27.249  -6.052  38.709  1.00  0.00     0.014 C 
HETATM    9  C12 UNK     1      31.503  -4.436  36.778  1.00  0.00     0.018 C 
HETATM   10  C13 UNK     1      27.926  -7.283  39.283  1.00  0.00     0.084 C 
HETATM   11  C14 UNK     1      29.159  -7.656  38.488  1.00  0.00     0.158 C 
HETATM   12  C17 UNK     1      32.192  -3.152  36.402  1.00  0.00     0.069 C 
HETATM   13  H17 UNK     1      29.916  -3.319  37.481  1.00  0.00     0.165 HD
ENDROOT
BRANCH   3  14
HETATM   14  C15 UNK     1      30.864  -7.763  35.832  1.00  0.00     0.029 A 
HETATM   15  C18 UNK     1      29.889  -7.233  34.845  1.00  0.00     0.194 A 
HETATM   16  O5  UNK     1      29.354  -6.140  34.982  1.00  0.00    -0.287 OA
HETATM   17  C20 UNK     1      29.598  -8.096  33.685  1.00  0.00     0.049 A 
HETATM   18  C21 UNK     1      30.240  -9.329  33.580  1.00  0.00     0.089 A 
HETATM   19  C22 UNK     1      28.695  -7.687  32.701  1.00  0.00     0.025 A 
HETATM   20  O3  UNK     1      31.137  -9.781  34.516  1.00  0.00    -0.321 OA
HETATM   21  C23 UNK     1      29.981 -10.162  32.491  1.00  0.00     0.039 A 
HETATM   22  C19 UNK     1      31.397  -8.968  35.591  1.00  0.00     0.154 A 
HETATM   23  C25 UNK     1      29.080  -9.756  31.507  1.00  0.00     0.009 A 
HETATM   24  C24 UNK     1      28.438  -8.520  31.613  1.00  0.00    -0.061 A 
HETATM   25  C26 UNK     1      27.475  -8.092  30.557  1.00  0.00     0.048 C 
ENDBRANCH   3  14
BRANCH   6  26
HETATM   26  C16 UNK     1      33.327  -5.944  36.038  1.00  0.00     0.292 C 
HETATM   27  O4  UNK     1      34.296  -6.257  36.704  1.00  0.00    -0.259 OA
BRANCH  26  28
HETATM   28  O1  UNK     1      33.252  -5.770  34.697  1.00  0.00    -0.312 OA
BRANCH  28  29
HETATM   29  C1  UNK     1      33.916  -6.751  33.927  1.00  0.00     0.132 C 
HETATM   30  C2  UNK     1      33.100  -7.162  32.711  1.00  0.00     0.032 C 
HETATM   31  C4  UNK     1      34.130  -7.755  31.756  1.00  0.00     0.002 C 
HETATM   32  C5  UNK     1      35.476  -7.141  32.148  1.00  0.00     0.002 C 
HETATM   33  C3  UNK     1      35.183  -6.190  33.302  1.00  0.00     0.032 C 
ENDBRANCH  28  29
ENDBRANCH  26  28
ENDBRANCH   6  26
TORSDOF 4
ENDMDL
