MODEL 1
REMARK VINA RESULT:      -8.6      0.000      0.000
REMARK  2 active torsions:
REMARK  status: ('A' for Active; 'I' for Inactive)
REMARK    1  A    between atoms: C5_11  and  N1_5 
REMARK       I    between atoms: C6_12  and  N2_6 
REMARK    2  A    between atoms: C6_12  and  C7_13 
ROOT
HETATM    1  O1  UNK     1       9.695   5.601   6.916  1.00  0.00    -0.267 OA
HETATM    2  N1  UNK     1      13.562   8.361   8.637  1.00  0.00    -0.378 N 
HETATM    3  N2  UNK     1      11.035   7.028   8.174  1.00  0.00    -0.345 N 
HETATM    4  C1  UNK     1      13.454   7.232   7.709  1.00  0.00     0.143 C 
HETATM    5  C2  UNK     1      12.331   8.890   9.227  1.00  0.00     0.143 C 
HETATM    6  C3  UNK     1      12.045   7.144   7.126  1.00  0.00     0.146 C 
HETATM    7  C4  UNK     1      11.293   7.782   9.406  1.00  0.00     0.146 C 
HETATM    8  C6  UNK     1       9.913   6.232   7.951  1.00  0.00     0.260 C 
ENDROOT
BRANCH   8   9
HETATM    9  C7  UNK     1       8.924   6.137   9.044  1.00  0.00     0.108 A 
HETATM   10  C10 UNK     1       8.076   7.165   9.165  1.00  0.00     0.037 A 
HETATM   11  C11 UNK     1       7.066   7.163  10.213  1.00  0.00     0.000 A 
HETATM   12  C15 UNK     1       7.001   6.080  11.082  1.00  0.00     0.089 A 
HETATM   13  C17 UNK     1       6.160   8.215  10.375  1.00  0.00     0.033 A 
HETATM   14  O2  UNK     1       7.897   5.000  10.950  1.00  0.00    -0.274 OA
HETATM   15  C18 UNK     1       6.058   6.016  12.107  1.00  0.00     0.039 A 
HETATM   16  C12 UNK     1       8.873   4.973   9.958  1.00  0.00     0.304 A 
HETATM   17  O3  UNK     1       9.649   4.031   9.851  1.00  0.00    -0.259 OA
HETATM   18  C20 UNK     1       5.158   7.068  12.262  1.00  0.00     0.022 A 
HETATM   19  C19 UNK     1       5.209   8.165  11.398  1.00  0.00     0.011 A 
HETATM   20 Br1  UNK     1       3.985   9.591  11.615  1.00  0.00    -0.051 Br
ENDBRANCH   8   9
BRANCH   2  21
HETATM   21  C5  UNK     1      14.798   8.949   8.895  1.00  0.00     0.030 A 
HETATM   22  C8  UNK     1      15.750   8.325   9.735  1.00  0.00     0.029 A 
HETATM   23  C13 UNK     1      16.987   8.914   9.994  1.00  0.00     0.002 A 
HETATM   24  C16 UNK     1      17.308  10.144   9.420  1.00  0.00     0.000 A 
HETATM   25  C14 UNK     1      16.391  10.785   8.586  1.00  0.00     0.002 A 
HETATM   26  C9  UNK     1      15.154  10.195   8.327  1.00  0.00     0.029 A 
ENDBRANCH   2  21
TORSDOF 2
ENDMDL
MODEL 2
REMARK VINA RESULT:      -8.4     24.807     26.201
REMARK  2 active torsions:
REMARK  status: ('A' for Active; 'I' for Inactive)
REMARK    1  A    between atoms: C5_11  and  N1_5 
REMARK       I    between atoms: C6_12  and  N2_6 
REMARK    2  A    between atoms: C6_12  and  C7_13 
ROOT
HETATM    1  O1  UNK     1      20.186   6.238  33.112  1.00  0.00    -0.267 OA
HETATM    2  N1  UNK     1      15.938   8.895  33.766  1.00  0.00    -0.378 N 
HETATM    3  N2  UNK     1      17.954   6.872  33.298  1.00  0.00    -0.345 N 
HETATM    4  C1  UNK     1      17.342   9.124  34.117  1.00  0.00     0.143 C 
HETATM    5  C2  UNK     1      15.596   7.667  33.046  1.00  0.00     0.143 C 
HETATM    6  C3  UNK     1      18.263   8.298  33.221  1.00  0.00     0.146 C 
HETATM    7  C4  UNK     1      16.536   6.526  33.438  1.00  0.00     0.146 C 
HETATM    8  C6  UNK     1      18.995   5.948  33.233  1.00  0.00     0.260 C 
ENDROOT
BRANCH   8   9
HETATM    9  C7  UNK     1      18.634   4.518  33.325  1.00  0.00     0.108 A 
HETATM   10  C10 UNK     1      18.622   3.990  34.555  1.00  0.00     0.037 A 
HETATM   11  C11 UNK     1      18.279   2.589  34.747  1.00  0.00     0.000 A 
HETATM   12  C15 UNK     1      17.966   1.814  33.636  1.00  0.00     0.089 A 
HETATM   13  C17 UNK     1      18.255   1.996  36.012  1.00  0.00     0.033 A 
HETATM   14  O2  UNK     1      17.979   2.376  32.344  1.00  0.00    -0.274 OA
HETATM   15  C18 UNK     1      17.630   0.466  33.752  1.00  0.00     0.039 A 
HETATM   16  C12 UNK     1      18.303   3.712  32.128  1.00  0.00     0.304 A 
HETATM   17  O3  UNK     1      18.313   4.193  31.001  1.00  0.00    -0.259 OA
HETATM   18  C20 UNK     1      17.607  -0.118  35.017  1.00  0.00     0.022 A 
HETATM   19  C19 UNK     1      17.919   0.645  36.144  1.00  0.00     0.011 A 
HETATM   20 Br1  UNK     1      17.888  -0.154  37.859  1.00  0.00    -0.051 Br
ENDBRANCH   8   9
BRANCH   2  21
HETATM   21  C5  UNK     1      14.971   9.855  34.057  1.00  0.00     0.030 A 
HETATM   22  C8  UNK     1      14.857  10.418  35.350  1.00  0.00     0.029 A 
HETATM   23  C13 UNK     1      13.888  11.378  35.641  1.00  0.00     0.002 A 
HETATM   24  C16 UNK     1      13.007  11.804  34.648  1.00  0.00     0.000 A 
HETATM   25  C14 UNK     1      13.094  11.268  33.362  1.00  0.00     0.002 A 
HETATM   26  C9  UNK     1      14.062  10.308  33.071  1.00  0.00     0.029 A 
ENDBRANCH   2  21
TORSDOF 2
ENDMDL
MODEL 3
REMARK VINA RESULT:      -8.3     25.301     26.712
REMARK  2 active torsions:
REMARK  status: ('A' for Active; 'I' for Inactive)
REMARK    1  A    between atoms: C5_11  and  N1_5 
REMARK       I    between atoms: C6_12  and  N2_6 
REMARK    2  A    between atoms: C6_12  and  C7_13 
ROOT
HETATM    1  O1  UNK     1      18.045   4.349  30.966  1.00  0.00    -0.267 OA
HETATM    2  N1  UNK     1      18.386   1.432  35.077  1.00  0.00    -0.378 N 
HETATM    3  N2  UNK     1      18.366   3.581  33.139  1.00  0.00    -0.345 N 
HETATM    4  C1  UNK     1      17.738   1.275  33.772  1.00  0.00     0.143 C 
HETATM    5  C2  UNK     1      19.145   2.659  35.330  1.00  0.00     0.143 C 
HETATM    6  C3  UNK     1      18.395   2.179  32.731  1.00  0.00     0.146 C 
HETATM    7  C4  UNK     1      18.537   3.840  34.573  1.00  0.00     0.146 C 
HETATM    8  C6  UNK     1      18.186   4.566  32.170  1.00  0.00     0.260 C 
ENDROOT
BRANCH   8   9
HETATM    9  C7  UNK     1      18.153   5.969  32.632  1.00  0.00     0.108 A 
HETATM   10  C10 UNK     1      16.940   6.525  32.747  1.00  0.00     0.037 A 
HETATM   11  C11 UNK     1      16.806   7.903  33.195  1.00  0.00     0.000 A 
HETATM   12  C15 UNK     1      17.953   8.627  33.498  1.00  0.00     0.089 A 
HETATM   13  C17 UNK     1      15.561   8.523  33.329  1.00  0.00     0.033 A 
HETATM   14  O2  UNK     1      19.227   8.036  33.375  1.00  0.00    -0.274 OA
HETATM   15  C18 UNK     1      17.894   9.951  33.931  1.00  0.00     0.039 A 
HETATM   16  C12 UNK     1      19.388   6.721  32.950  1.00  0.00     0.304 A 
HETATM   17  O3  UNK     1      20.499   6.215  32.845  1.00  0.00    -0.259 OA
HETATM   18  C20 UNK     1      16.649  10.562  34.063  1.00  0.00     0.022 A 
HETATM   19  C19 UNK     1      15.485   9.851  33.763  1.00  0.00     0.011 A 
HETATM   20 Br1  UNK     1      13.798  10.686  33.943  1.00  0.00    -0.051 Br
ENDBRANCH   8   9
BRANCH   2  21
HETATM   21  C5  UNK     1      18.331   0.409  36.022  1.00  0.00     0.030 A 
HETATM   22  C8  UNK     1      17.816   0.633  37.321  1.00  0.00     0.029 A 
HETATM   23  C13 UNK     1      17.762  -0.390  38.266  1.00  0.00     0.002 A 
HETATM   24  C16 UNK     1      18.221  -1.667  37.941  1.00  0.00     0.000 A 
HETATM   25  C14 UNK     1      18.734  -1.919  36.669  1.00  0.00     0.002 A 
HETATM   26  C9  UNK     1      18.788  -0.896  35.723  1.00  0.00     0.029 A 
ENDBRANCH   2  21
TORSDOF 2
ENDMDL
MODEL 4
REMARK VINA RESULT:      -8.2     28.952     30.276
REMARK  2 active torsions:
REMARK  status: ('A' for Active; 'I' for Inactive)
REMARK    1  A    between atoms: C5_11  and  N1_5 
REMARK       I    between atoms: C6_12  and  N2_6 
REMARK    2  A    between atoms: C6_12  and  C7_13 
ROOT
HETATM    1  O1  UNK     1      18.833  -2.397  37.707  1.00  0.00    -0.267 OA
HETATM    2  N1  UNK     1      19.764  -1.533  32.816  1.00  0.00    -0.378 N 
HETATM    3  N2  UNK     1      19.596  -2.566  35.514  1.00  0.00    -0.345 N 
HETATM    4  C1  UNK     1      18.767  -1.029  33.764  1.00  0.00     0.143 C 
HETATM    5  C2  UNK     1      20.768  -2.480  33.306  1.00  0.00     0.143 C 
HETATM    6  C3  UNK     1      19.264  -1.179  35.201  1.00  0.00     0.146 C 
HETATM    7  C4  UNK     1      20.195  -3.348  34.427  1.00  0.00     0.146 C 
HETATM    8  C6  UNK     1      19.334  -3.054  36.793  1.00  0.00     0.260 C 
ENDROOT
BRANCH   8   9
HETATM    9  C7  UNK     1      19.677  -4.466  37.060  1.00  0.00     0.108 A 
HETATM   10  C10 UNK     1      20.925  -4.701  37.483  1.00  0.00     0.037 A 
HETATM   11  C11 UNK     1      21.357  -6.061  37.771  1.00  0.00     0.000 A 
HETATM   12  C15 UNK     1      20.455  -7.104  37.598  1.00  0.00     0.089 A 
HETATM   13  C17 UNK     1      22.650  -6.352  38.214  1.00  0.00     0.033 A 
HETATM   14  O2  UNK     1      19.143  -6.850  37.153  1.00  0.00    -0.274 OA
HETATM   15  C18 UNK     1      20.806  -8.428  37.856  1.00  0.00     0.039 A 
HETATM   16  C12 UNK     1      18.700  -5.562  36.869  1.00  0.00     0.304 A 
HETATM   17  O3  UNK     1      17.557  -5.350  36.482  1.00  0.00    -0.259 OA
HETATM   18  C20 UNK     1      22.097  -8.711  38.299  1.00  0.00     0.022 A 
HETATM   19  C19 UNK     1      23.017  -7.675  38.477  1.00  0.00     0.011 A 
HETATM   20 Br1  UNK     1      24.768  -8.065  39.077  1.00  0.00    -0.051 Br
ENDBRANCH   8   9
BRANCH   2  21
HETATM   21  C5  UNK     1      19.790  -1.069  31.503  1.00  0.00     0.030 A 
HETATM   22  C8  UNK     1      19.363   0.240  31.175  1.00  0.00     0.029 A 
HETATM   23  C13 UNK     1      19.388   0.703  29.860  1.00  0.00     0.002 A 
HETATM   24  C16 UNK     1      19.841  -0.127  28.835  1.00  0.00     0.000 A 
HETATM   25  C14 UNK     1      20.270  -1.423  29.126  1.00  0.00     0.002 A 
HETATM   26  C9  UNK     1      20.245  -1.886  30.441  1.00  0.00     0.029 A 
ENDBRANCH   2  21
TORSDOF 2
ENDMDL
MODEL 5
REMARK VINA RESULT:      -8.2      3.288      8.496
REMARK  2 active torsions:
REMARK  status: ('A' for Active; 'I' for Inactive)
REMARK    1  A    between atoms: C5_11  and  N1_5 
REMARK       I    between atoms: C6_12  and  N2_6 
REMARK    2  A    between atoms: C6_12  and  C7_13 
ROOT
HETATM    1  O1  UNK     1      10.680   6.849   6.385  1.00  0.00    -0.267 OA
HETATM    2  N1  UNK     1       7.488   5.298   9.981  1.00  0.00    -0.378 N 
HETATM    3  N2  UNK     1       9.770   5.910   8.309  1.00  0.00    -0.345 N 
HETATM    4  C1  UNK     1       7.399   6.287   8.903  1.00  0.00     0.143 C 
HETATM    5  C2  UNK     1       8.724   4.523  10.110  1.00  0.00     0.143 C 
HETATM    6  C3  UNK     1       8.404   5.970   7.797  1.00  0.00     0.146 C 
HETATM    7  C4  UNK     1       9.930   5.345   9.653  1.00  0.00     0.146 C 
HETATM    8  C6  UNK     1      10.814   6.377   7.514  1.00  0.00     0.260 C 
ENDROOT
BRANCH   8   9
HETATM    9  C7  UNK     1      12.177   6.305   8.080  1.00  0.00     0.108 A 
HETATM   10  C10 UNK     1      12.758   7.475   8.373  1.00  0.00     0.037 A 
HETATM   11  C11 UNK     1      14.101   7.506   8.933  1.00  0.00     0.000 A 
HETATM   12  C15 UNK     1      14.764   6.306   9.158  1.00  0.00     0.089 A 
HETATM   13  C17 UNK     1      14.745   8.705   9.253  1.00  0.00     0.033 A 
HETATM   14  O2  UNK     1      14.147   5.078   8.848  1.00  0.00    -0.274 OA
HETATM   15  C18 UNK     1      16.051   6.267   9.692  1.00  0.00     0.039 A 
HETATM   16  C12 UNK     1      12.865   5.015   8.311  1.00  0.00     0.304 A 
HETATM   17  O3  UNK     1      12.336   3.942   8.044  1.00  0.00    -0.259 OA
HETATM   18  C20 UNK     1      16.687   7.465  10.009  1.00  0.00     0.022 A 
HETATM   19  C19 UNK     1      16.036   8.682   9.791  1.00  0.00     0.011 A 
HETATM   20 Br1  UNK     1      16.905  10.306  10.222  1.00  0.00    -0.051 Br
ENDBRANCH   8   9
BRANCH   2  21
HETATM   21  C5  UNK     1       6.398   5.063  10.816  1.00  0.00     0.030 A 
HETATM   22  C8  UNK     1       5.677   3.846  10.761  1.00  0.00     0.029 A 
HETATM   23  C13 UNK     1       4.585   3.611  11.596  1.00  0.00     0.002 A 
HETATM   24  C16 UNK     1       4.183   4.584  12.511  1.00  0.00     0.000 A 
HETATM   25  C14 UNK     1       4.874   5.794  12.590  1.00  0.00     0.002 A 
HETATM   26  C9  UNK     1       5.966   6.029  11.755  1.00  0.00     0.029 A 
ENDBRANCH   2  21
TORSDOF 2
ENDMDL
MODEL 6
REMARK VINA RESULT:      -8.2      5.259      9.796
REMARK  2 active torsions:
REMARK  status: ('A' for Active; 'I' for Inactive)
REMARK    1  A    between atoms: C5_11  and  N1_5 
REMARK       I    between atoms: C6_12  and  N2_6 
REMARK    2  A    between atoms: C6_12  and  C7_13 
ROOT
HETATM    1  O1  UNK     1      17.111   7.796  10.358  1.00  0.00    -0.267 OA
HETATM    2  N1  UNK     1      12.519   7.387   8.289  1.00  0.00    -0.378 N 
HETATM    3  N2  UNK     1      15.015   8.265   9.463  1.00  0.00    -0.345 N 
HETATM    4  C1  UNK     1      13.677   6.493   8.375  1.00  0.00     0.143 C 
HETATM    5  C2  UNK     1      12.609   8.698   8.936  1.00  0.00     0.143 C 
HETATM    6  C3  UNK     1      14.570   6.877   9.553  1.00  0.00     0.146 C 
HETATM    7  C4  UNK     1      14.046   9.219   8.913  1.00  0.00     0.146 C 
HETATM    8  C6  UNK     1      16.298   8.596   9.894  1.00  0.00     0.260 C 
ENDROOT
BRANCH   8   9
HETATM    9  C7  UNK     1      16.707  10.010   9.773  1.00  0.00     0.108 A 
HETATM   10  C10 UNK     1      17.555  10.298   8.777  1.00  0.00     0.037 A 
HETATM   11  C11 UNK     1      18.015  11.664   8.578  1.00  0.00     0.000 A 
HETATM   12  C15 UNK     1      17.561  12.659   9.436  1.00  0.00     0.089 A 
HETATM   13  C17 UNK     1      18.900  12.008   7.553  1.00  0.00     0.033 A 
HETATM   14  O2  UNK     1      16.668  12.350  10.481  1.00  0.00    -0.274 OA
HETATM   15  C18 UNK     1      17.963  13.986   9.300  1.00  0.00     0.039 A 
HETATM   16  C12 UNK     1      16.210  11.054  10.698  1.00  0.00     0.304 A 
HETATM   17  O3  UNK     1      15.434  10.795  11.610  1.00  0.00    -0.259 OA
HETATM   18  C20 UNK     1      18.845  14.322   8.274  1.00  0.00     0.022 A 
HETATM   19  C19 UNK     1      19.313  13.336   7.403  1.00  0.00     0.011 A 
HETATM   20 Br1  UNK     1      20.511  13.797   6.014  1.00  0.00    -0.051 Br
ENDBRANCH   8   9
BRANCH   2  21
HETATM   21  C5  UNK     1      11.347   6.968   7.665  1.00  0.00     0.030 A 
HETATM   22  C8  UNK     1      11.337   6.572   6.306  1.00  0.00     0.029 A 
HETATM   23  C13 UNK     1      10.163   6.153   5.681  1.00  0.00     0.002 A 
HETATM   24  C16 UNK     1       8.965   6.118   6.395  1.00  0.00     0.000 A 
HETATM   25  C14 UNK     1       8.942   6.502   7.736  1.00  0.00     0.002 A 
HETATM   26  C9  UNK     1      10.117   6.920   8.362  1.00  0.00     0.029 A 
ENDBRANCH   2  21
TORSDOF 2
ENDMDL
MODEL 7
REMARK VINA RESULT:      -8.1     29.345     30.726
REMARK  2 active torsions:
REMARK  status: ('A' for Active; 'I' for Inactive)
REMARK    1  A    between atoms: C5_11  and  N1_5 
REMARK       I    between atoms: C6_12  and  N2_6 
REMARK    2  A    between atoms: C6_12  and  C7_13 
ROOT
HETATM    1  O1  UNK     1      20.222  -2.617  38.224  1.00  0.00    -0.267 OA
HETATM    2  N1  UNK     1      20.658  -7.351  36.508  1.00  0.00    -0.378 N 
HETATM    3  N2  UNK     1      20.076  -4.547  36.931  1.00  0.00    -0.345 N 
HETATM    4  C1  UNK     1      21.372  -6.568  37.521  1.00  0.00     0.143 C 
HETATM    5  C2  UNK     1      19.544  -6.715  35.802  1.00  0.00     0.143 C 
HETATM    6  C3  UNK     1      20.504  -5.416  38.024  1.00  0.00     0.146 C 
HETATM    7  C4  UNK     1      19.778  -5.211  35.657  1.00  0.00     0.146 C 
HETATM    8  C6  UNK     1      19.975  -3.175  37.154  1.00  0.00     0.260 C 
ENDROOT
BRANCH   8   9
HETATM    9  C7  UNK     1      19.548  -2.336  36.015  1.00  0.00     0.108 A 
HETATM   10  C10 UNK     1      20.148  -2.580  34.844  1.00  0.00     0.037 A 
HETATM   11  C11 UNK     1      19.795  -1.804  33.664  1.00  0.00     0.000 A 
HETATM   12  C15 UNK     1      18.828  -0.811  33.776  1.00  0.00     0.089 A 
HETATM   13  C17 UNK     1      20.396  -2.024  32.422  1.00  0.00     0.033 A 
HETATM   14  O2  UNK     1      18.199  -0.560  35.012  1.00  0.00    -0.274 OA
HETATM   15  C18 UNK     1      18.445  -0.033  32.685  1.00  0.00     0.039 A 
HETATM   16  C12 UNK     1      18.515  -1.284  36.158  1.00  0.00     0.304 A 
HETATM   17  O3  UNK     1      17.964  -1.059  37.228  1.00  0.00    -0.259 OA
HETATM   18  C20 UNK     1      19.048  -0.259  31.450  1.00  0.00     0.022 A 
HETATM   19  C19 UNK     1      20.022  -1.252  31.318  1.00  0.00     0.011 A 
HETATM   20 Br1  UNK     1      20.839  -1.553  29.639  1.00  0.00    -0.051 Br
ENDBRANCH   8   9
BRANCH   2  21
HETATM   21  C5  UNK     1      20.996  -8.682  36.276  1.00  0.00     0.030 A 
HETATM   22  C8  UNK     1      20.842  -9.667  37.280  1.00  0.00     0.029 A 
HETATM   23  C13 UNK     1      21.181 -11.000  37.047  1.00  0.00     0.002 A 
HETATM   24  C16 UNK     1      21.681 -11.386  35.804  1.00  0.00     0.000 A 
HETATM   25  C14 UNK     1      21.844 -10.438  34.793  1.00  0.00     0.002 A 
HETATM   26  C9  UNK     1      21.505  -9.106  35.026  1.00  0.00     0.029 A 
ENDBRANCH   2  21
TORSDOF 2
ENDMDL
MODEL 8
REMARK VINA RESULT:      -8.0      2.939      4.640
REMARK  2 active torsions:
REMARK  status: ('A' for Active; 'I' for Inactive)
REMARK    1  A    between atoms: C5_11  and  N1_5 
REMARK       I    between atoms: C6_12  and  N2_6 
REMARK    2  A    between atoms: C6_12  and  C7_13 
ROOT
HETATM    1  O1  UNK     1      14.939   5.081   9.182  1.00  0.00    -0.267 OA
HETATM    2  N1  UNK     1      16.073   9.900  10.196  1.00  0.00    -0.378 N 
HETATM    3  N2  UNK     1      14.951   7.408   9.244  1.00  0.00    -0.345 N 
HETATM    4  C1  UNK     1      16.391   8.625  10.843  1.00  0.00     0.143 C 
HETATM    5  C2  UNK     1      15.277   9.872   8.967  1.00  0.00     0.143 C 
HETATM    6  C3  UNK     1      16.279   7.471   9.848  1.00  0.00     0.146 C 
HETATM    7  C4  UNK     1      14.301   8.696   8.977  1.00  0.00     0.146 C 
HETATM    8  C6  UNK     1      14.393   6.163   8.960  1.00  0.00     0.260 C 
ENDROOT
BRANCH   8   9
HETATM    9  C7  UNK     1      13.043   6.149   8.360  1.00  0.00     0.108 A 
HETATM   10  C10 UNK     1      12.035   5.825   9.178  1.00  0.00     0.037 A 
HETATM   11  C11 UNK     1      10.669   5.784   8.678  1.00  0.00     0.000 A 
HETATM   12  C15 UNK     1      10.432   6.085   7.342  1.00  0.00     0.089 A 
HETATM   13  C17 UNK     1       9.587   5.451   9.497  1.00  0.00     0.033 A 
HETATM   14  O2  UNK     1      11.498   6.426   6.485  1.00  0.00    -0.274 OA
HETATM   15  C18 UNK     1       9.148   6.064   6.800  1.00  0.00     0.039 A 
HETATM   16  C12 UNK     1      12.815   6.474   6.933  1.00  0.00     0.304 A 
HETATM   17  O3  UNK     1      13.735   6.771   6.181  1.00  0.00    -0.259 OA
HETATM   18  C20 UNK     1       8.074   5.732   7.623  1.00  0.00     0.022 A 
HETATM   19  C19 UNK     1       8.293   5.426   8.968  1.00  0.00     0.011 A 
HETATM   20 Br1  UNK     1       6.831   4.973  10.080  1.00  0.00    -0.051 Br
ENDBRANCH   8   9
BRANCH   2  21
HETATM   21  C5  UNK     1      16.572  11.096  10.706  1.00  0.00     0.030 A 
HETATM   22  C8  UNK     1      17.929  11.461  10.535  1.00  0.00     0.029 A 
HETATM   23  C13 UNK     1      18.428  12.659  11.047  1.00  0.00     0.002 A 
HETATM   24  C16 UNK     1      17.586  13.526  11.743  1.00  0.00     0.000 A 
HETATM   25  C14 UNK     1      16.243  13.195  11.928  1.00  0.00     0.002 A 
HETATM   26  C9  UNK     1      15.744  11.997  11.416  1.00  0.00     0.029 A 
ENDBRANCH   2  21
TORSDOF 2
ENDMDL
MODEL 9
REMARK VINA RESULT:      -8.0     24.303     25.653
REMARK  2 active torsions:
REMARK  status: ('A' for Active; 'I' for Inactive)
REMARK    1  A    between atoms: C5_11  and  N1_5 
REMARK       I    between atoms: C6_12  and  N2_6 
REMARK    2  A    between atoms: C6_12  and  C7_13 
ROOT
HETATM    1  O1  UNK     1      18.454   6.596  30.460  1.00  0.00    -0.267 OA
HETATM    2  N1  UNK     1      18.196   2.609  33.554  1.00  0.00    -0.378 N 
HETATM    3  N2  UNK     1      18.300   5.235  32.342  1.00  0.00    -0.345 N 
HETATM    4  C1  UNK     1      17.980   2.794  32.116  1.00  0.00     0.143 C 
HETATM    5  C2  UNK     1      18.601   3.771  34.347  1.00  0.00     0.143 C 
HETATM    6  C3  UNK     1      18.713   4.037  31.615  1.00  0.00     0.146 C 
HETATM    7  C4  UNK     1      18.011   5.057  33.769  1.00  0.00     0.146 C 
HETATM    8  C6  UNK     1      18.209   6.446  31.657  1.00  0.00     0.260 C 
ENDROOT
BRANCH   8   9
HETATM    9  C7  UNK     1      17.777   7.627  32.432  1.00  0.00     0.108 A 
HETATM   10  C10 UNK     1      16.532   8.064  32.200  1.00  0.00     0.037 A 
HETATM   11  C11 UNK     1      16.017   9.222  32.914  1.00  0.00     0.000 A 
HETATM   12  C15 UNK     1      16.837   9.864  33.836  1.00  0.00     0.089 A 
HETATM   13  C17 UNK     1      14.725   9.711  32.704  1.00  0.00     0.033 A 
HETATM   14  O2  UNK     1      18.145   9.400  34.075  1.00  0.00    -0.274 OA
HETATM   15  C18 UNK     1      16.404  10.978  34.553  1.00  0.00     0.039 A 
HETATM   16  C12 UNK     1      18.667   8.295  33.408  1.00  0.00     0.304 A 
HETATM   17  O3  UNK     1      19.806   7.899  33.622  1.00  0.00    -0.259 OA
HETATM   18  C20 UNK     1      15.114  11.460  34.338  1.00  0.00     0.022 A 
HETATM   19  C19 UNK     1      14.277  10.828  33.416  1.00  0.00     0.011 A 
HETATM   20 Br1  UNK     1      12.527  11.487  33.127  1.00  0.00    -0.051 Br
ENDBRANCH   8   9
BRANCH   2  21
HETATM   21  C5  UNK     1      18.079   1.346  34.130  1.00  0.00     0.030 A 
HETATM   22  C8  UNK     1      18.545   0.187  33.464  1.00  0.00     0.029 A 
HETATM   23  C13 UNK     1      18.428  -1.078  34.041  1.00  0.00     0.002 A 
HETATM   24  C16 UNK     1      17.843  -1.220  35.299  1.00  0.00     0.000 A 
HETATM   25  C14 UNK     1      17.374  -0.096  35.981  1.00  0.00     0.002 A 
HETATM   26  C9  UNK     1      17.492   1.168  35.404  1.00  0.00     0.029 A 
ENDBRANCH   2  21
TORSDOF 2
ENDMDL
MODEL 10
REMARK VINA RESULT:      -7.9     34.186     35.723
REMARK  2 active torsions:
REMARK  status: ('A' for Active; 'I' for Inactive)
REMARK    1  A    between atoms: C5_11  and  N1_5 
REMARK       I    between atoms: C6_12  and  N2_6 
REMARK    2  A    between atoms: C6_12  and  C7_13 
ROOT
HETATM    1  O1  UNK     1      27.666  -9.815  39.531  1.00  0.00    -0.267 OA
HETATM    2  N1  UNK     1      30.351  -6.497  36.826  1.00  0.00    -0.378 N 
HETATM    3  N2  UNK     1      28.388  -8.347  37.876  1.00  0.00    -0.345 N 
HETATM    4  C1  UNK     1      30.374  -6.917  38.230  1.00  0.00     0.143 C 
HETATM    5  C2  UNK     1      29.390  -7.141  35.927  1.00  0.00     0.143 C 
HETATM    6  C3  UNK     1      29.755  -8.304  38.388  1.00  0.00     0.146 C 
HETATM    7  C4  UNK     1      28.121  -7.538  36.682  1.00  0.00     0.146 C 
HETATM    8  C6  UNK     1      27.442  -9.134  38.530  1.00  0.00     0.260 C 
ENDROOT
BRANCH   8   9
HETATM    9  C7  UNK     1      26.071  -9.136  37.981  1.00  0.00     0.108 A 
HETATM   10  C10 UNK     1      25.179  -8.362  38.611  1.00  0.00     0.037 A 
HETATM   11  C11 UNK     1      23.803  -8.299  38.144  1.00  0.00     0.000 A 
HETATM   12  C15 UNK     1      23.432  -9.054  37.038  1.00  0.00     0.089 A 
HETATM   13  C17 UNK     1      22.840  -7.504  38.772  1.00  0.00     0.033 A 
HETATM   14  O2  UNK     1      24.375  -9.867  36.377  1.00  0.00    -0.274 OA
HETATM   15  C18 UNK     1      22.131  -9.039  36.540  1.00  0.00     0.039 A 
HETATM   16  C12 UNK     1      25.699  -9.949  36.800  1.00  0.00     0.304 A 
HETATM   17  O3  UNK     1      26.512 -10.659  36.221  1.00  0.00    -0.259 OA
HETATM   18  C20 UNK     1      21.176  -8.244  37.171  1.00  0.00     0.022 A 
HETATM   19  C19 UNK     1      21.530  -7.478  38.285  1.00  0.00     0.011 A 
HETATM   20 Br1  UNK     1      20.229  -6.402  39.139  1.00  0.00    -0.051 Br
ENDBRANCH   8   9
BRANCH   2  21
HETATM   21  C5  UNK     1      31.265  -5.558  36.353  1.00  0.00     0.030 A 
HETATM   22  C8  UNK     1      32.153  -5.862  35.294  1.00  0.00     0.029 A 
HETATM   23  C13 UNK     1      33.069  -4.922  34.822  1.00  0.00     0.002 A 
HETATM   24  C16 UNK     1      33.122  -3.651  35.393  1.00  0.00     0.000 A 
HETATM   25  C14 UNK     1      32.258  -3.320  36.439  1.00  0.00     0.002 A 
HETATM   26  C9  UNK     1      31.343  -4.260  36.911  1.00  0.00     0.029 A 
ENDBRANCH   2  21
TORSDOF 2
ENDMDL
