MODEL 1
REMARK VINA RESULT:     -10.8      0.000      0.000
REMARK  10 active torsions:
REMARK  status: ('A' for Active; 'I' for Inactive)
REMARK    1  A    between atoms: C6_14  and  N1_7 
REMARK       I    between atoms: C8_16  and  N1_7 
REMARK    2  A    between atoms: C7_15  and  N2_8 
REMARK       I    between atoms: C9_17  and  N2_8 
REMARK    3  A    between atoms: C1_9  and  C2_10 
REMARK    4  A    between atoms: C1_9  and  C3_11 
REMARK    5  A    between atoms: C2_10  and  C4_12 
REMARK    6  A    between atoms: C3_11  and  C5_13 
REMARK    7  A    between atoms: C4_12  and  C6_14 
REMARK    8  A    between atoms: C5_13  and  C7_15 
REMARK    9  A    between atoms: C10_18  and  C8_16 
REMARK   10  A    between atoms: C11_19  and  C9_17 
ROOT
HETATM    1  C1  UNK     1      21.008  -1.938  32.280  1.00  0.00     0.000 C 
ENDROOT
BRANCH   1   2
HETATM    2  C2  UNK     1      19.922  -1.717  31.224  1.00  0.00     0.002 C 
BRANCH   2   3
HETATM    3  C4  UNK     1      20.504  -1.776  29.809  1.00  0.00     0.020 C 
BRANCH   3   4
HETATM    4  C6  UNK     1      20.500  -0.417  29.116  1.00  0.00     0.123 C 
BRANCH   4   5
HETATM    5  N1  UNK     1      20.043   0.636  29.979  1.00  0.00    -0.357 N 
HETATM    6  C8  UNK     1      18.975   1.461  29.665  1.00  0.00     0.257 C 
HETATM    7  O3  UNK     1      18.294   1.414  28.647  1.00  0.00    -0.267 OA
HETATM    8  H15 UNK     1      20.551   0.779  30.849  1.00  0.00     0.162 HD
BRANCH   6   9
HETATM    9  C10 UNK     1      18.697   2.463  30.711  1.00  0.00     0.108 A 
HETATM   10  C16 UNK     1      18.354   2.076  32.098  1.00  0.00     0.304 A 
HETATM   11  O1  UNK     1      18.114   3.112  32.995  1.00  0.00    -0.274 OA
HETATM   12  O5  UNK     1      18.286   0.902  32.445  1.00  0.00    -0.259 OA
HETATM   13  C18 UNK     1      18.191   4.464  32.607  1.00  0.00     0.089 A 
HETATM   14  C14 UNK     1      18.516   4.807  31.298  1.00  0.00    -0.001 A 
HETATM   15  C22 UNK     1      17.935   5.432  33.576  1.00  0.00     0.038 A 
HETATM   16  C12 UNK     1      18.772   3.745  30.336  1.00  0.00     0.037 A 
HETATM   17  C20 UNK     1      18.582   6.158  30.951  1.00  0.00     0.014 A 
HETATM   18  C24 UNK     1      18.327   7.140  31.913  1.00  0.00     0.001 A 
HETATM   19  C26 UNK     1      18.004   6.778  33.222  1.00  0.00     0.003 A 
ENDBRANCH   6   9
ENDBRANCH   4   5
ENDBRANCH   3   4
ENDBRANCH   2   3
ENDBRANCH   1   2
BRANCH   1  20
HETATM   20  C3  UNK     1      20.462  -2.698  33.490  1.00  0.00     0.002 C 
BRANCH  20  21
HETATM   21  C5  UNK     1      19.543  -1.810  34.334  1.00  0.00     0.020 C 
BRANCH  21  22
HETATM   22  C7  UNK     1      19.481  -2.252  35.793  1.00  0.00     0.123 C 
BRANCH  22  23
HETATM   23  N2  UNK     1      19.532  -3.681  35.938  1.00  0.00    -0.357 N 
HETATM   24  C9  UNK     1      20.266  -4.314  36.927  1.00  0.00     0.257 C 
HETATM   25  O4  UNK     1      20.952  -3.771  37.785  1.00  0.00    -0.267 OA
HETATM   26  H16 UNK     1      18.979  -4.239  35.292  1.00  0.00     0.162 HD
BRANCH  24  27
HETATM   27  C11 UNK     1      20.157  -5.784  36.871  1.00  0.00     0.108 A 
HETATM   28  C17 UNK     1      20.204  -6.526  35.591  1.00  0.00     0.304 A 
HETATM   29  O2  UNK     1      20.090  -7.911  35.668  1.00  0.00    -0.274 OA
HETATM   30  O6  UNK     1      20.335  -5.955  34.514  1.00  0.00    -0.259 OA
HETATM   31  C19 UNK     1      19.940  -8.578  36.899  1.00  0.00     0.089 A 
HETATM   32  C15 UNK     1      19.898  -7.861  38.091  1.00  0.00    -0.001 A 
HETATM   33  C23 UNK     1      19.834  -9.967  36.875  1.00  0.00     0.038 A 
HETATM   34  C13 UNK     1      20.014  -6.411  38.044  1.00  0.00     0.037 A 
HETATM   35  C21 UNK     1      19.748  -8.557  39.292  1.00  0.00     0.014 A 
HETATM   36  C25 UNK     1      19.641  -9.951  39.284  1.00  0.00     0.001 A 
HETATM   37  C27 UNK     1      19.684 -10.654  38.078  1.00  0.00     0.003 A 
ENDBRANCH  24  27
ENDBRANCH  22  23
ENDBRANCH  21  22
ENDBRANCH  20  21
ENDBRANCH   1  20
TORSDOF 10
ENDMDL
MODEL 2
REMARK VINA RESULT:     -10.8      0.331     11.993
REMARK  10 active torsions:
REMARK  status: ('A' for Active; 'I' for Inactive)
REMARK    1  A    between atoms: C6_14  and  N1_7 
REMARK       I    between atoms: C8_16  and  N1_7 
REMARK    2  A    between atoms: C7_15  and  N2_8 
REMARK       I    between atoms: C9_17  and  N2_8 
REMARK    3  A    between atoms: C1_9  and  C2_10 
REMARK    4  A    between atoms: C1_9  and  C3_11 
REMARK    5  A    between atoms: C2_10  and  C4_12 
REMARK    6  A    between atoms: C3_11  and  C5_13 
REMARK    7  A    between atoms: C4_12  and  C6_14 
REMARK    8  A    between atoms: C5_13  and  C7_15 
REMARK    9  A    between atoms: C10_18  and  C8_16 
REMARK   10  A    between atoms: C11_19  and  C9_17 
ROOT
HETATM    1  C1  UNK     1      20.798  -2.779  31.648  1.00  0.00     0.000 C 
ENDROOT
BRANCH   1   2
HETATM    2  C2  UNK     1      21.058  -2.497  33.130  1.00  0.00     0.002 C 
BRANCH   2   3
HETATM    3  C4  UNK     1      19.784  -2.027  33.838  1.00  0.00     0.020 C 
BRANCH   3   4
HETATM    4  C6  UNK     1      19.781  -2.368  35.325  1.00  0.00     0.123 C 
BRANCH   4   5
HETATM    5  N1  UNK     1      19.799  -3.784  35.563  1.00  0.00    -0.357 N 
HETATM    6  C8  UNK     1      20.206  -4.345  36.762  1.00  0.00     0.257 C 
HETATM    7  O3  UNK     1      20.595  -3.738  37.754  1.00  0.00    -0.267 OA
HETATM    8  H15 UNK     1      19.512  -4.388  34.797  1.00  0.00     0.162 HD
BRANCH   6   9
HETATM    9  C10 UNK     1      20.132  -5.818  36.762  1.00  0.00     0.108 A 
HETATM   10  C16 UNK     1      20.228  -6.609  35.514  1.00  0.00     0.304 A 
HETATM   11  O1  UNK     1      20.145  -7.992  35.643  1.00  0.00    -0.274 OA
HETATM   12  O5  UNK     1      20.374  -6.077  34.419  1.00  0.00    -0.259 OA
HETATM   13  C18 UNK     1      19.978  -8.613  36.896  1.00  0.00     0.089 A 
HETATM   14  C14 UNK     1      19.891  -7.851  38.058  1.00  0.00    -0.001 A 
HETATM   15  C22 UNK     1      19.907 -10.005  36.926  1.00  0.00     0.038 A 
HETATM   16  C12 UNK     1      19.973  -6.402  37.955  1.00  0.00     0.037 A 
HETATM   17  C20 UNK     1      19.725  -8.502  39.282  1.00  0.00     0.014 A 
HETATM   18  C24 UNK     1      19.651  -9.898  39.326  1.00  0.00     0.001 A 
HETATM   19  C26 UNK     1      19.742 -10.647  38.151  1.00  0.00     0.003 A 
ENDBRANCH   6   9
ENDBRANCH   4   5
ENDBRANCH   3   4
ENDBRANCH   2   3
ENDBRANCH   1   2
BRANCH   1  20
HETATM   20  C3  UNK     1      20.032  -1.629  30.989  1.00  0.00     0.002 C 
BRANCH  20  21
HETATM   21  C5  UNK     1      20.254  -1.613  29.474  1.00  0.00     0.020 C 
BRANCH  21  22
HETATM   22  C7  UNK     1      20.437  -0.202  28.925  1.00  0.00     0.123 C 
BRANCH  22  23
HETATM   23  N2  UNK     1      19.983   0.809  29.841  1.00  0.00    -0.357 N 
HETATM   24  C9  UNK     1      18.981   1.714  29.530  1.00  0.00     0.257 C 
HETATM   25  O4  UNK     1      18.363   1.782  28.473  1.00  0.00    -0.267 OA
HETATM   26  H16 UNK     1      20.408   0.833  30.764  1.00  0.00     0.162 HD
BRANCH  24  27
HETATM   27  C11 UNK     1      18.690   2.648  30.632  1.00  0.00     0.108 A 
HETATM   28  C17 UNK     1      18.368   2.176  31.998  1.00  0.00     0.304 A 
HETATM   29  O2  UNK     1      18.112   3.155  32.954  1.00  0.00    -0.274 OA
HETATM   30  O6  UNK     1      18.328   0.983  32.279  1.00  0.00    -0.259 OA
HETATM   31  C19 UNK     1      18.156   4.528  32.642  1.00  0.00     0.089 A 
HETATM   32  C15 UNK     1      18.461   4.950  31.352  1.00  0.00    -0.001 A 
HETATM   33  C23 UNK     1      17.886   5.434  33.666  1.00  0.00     0.038 A 
HETATM   34  C13 UNK     1      18.733   3.951  30.330  1.00  0.00     0.037 A 
HETATM   35  C21 UNK     1      18.495   6.320  31.081  1.00  0.00     0.014 A 
HETATM   36  C25 UNK     1      18.226   7.241  32.098  1.00  0.00     0.001 A 
HETATM   37  C27 UNK     1      17.922   6.798  33.387  1.00  0.00     0.003 A 
ENDBRANCH  24  27
ENDBRANCH  22  23
ENDBRANCH  21  22
ENDBRANCH  20  21
ENDBRANCH   1  20
TORSDOF 10
ENDMDL
MODEL 3
REMARK VINA RESULT:     -10.3      4.033     10.979
REMARK  10 active torsions:
REMARK  status: ('A' for Active; 'I' for Inactive)
REMARK    1  A    between atoms: C6_14  and  N1_7 
REMARK       I    between atoms: C8_16  and  N1_7 
REMARK    2  A    between atoms: C7_15  and  N2_8 
REMARK       I    between atoms: C9_17  and  N2_8 
REMARK    3  A    between atoms: C1_9  and  C2_10 
REMARK    4  A    between atoms: C1_9  and  C3_11 
REMARK    5  A    between atoms: C2_10  and  C4_12 
REMARK    6  A    between atoms: C3_11  and  C5_13 
REMARK    7  A    between atoms: C4_12  and  C6_14 
REMARK    8  A    between atoms: C5_13  and  C7_15 
REMARK    9  A    between atoms: C10_18  and  C8_16 
REMARK   10  A    between atoms: C11_19  and  C9_17 
ROOT
HETATM    1  C1  UNK     1      18.937   0.504  28.592  1.00  0.00     0.000 C 
ENDROOT
BRANCH   1   2
HETATM    2  C2  UNK     1      19.877   0.247  29.772  1.00  0.00     0.002 C 
BRANCH   2   3
HETATM    3  C4  UNK     1      20.790  -0.953  29.503  1.00  0.00     0.020 C 
BRANCH   3   4
HETATM    4  C6  UNK     1      20.380  -2.190  30.296  1.00  0.00     0.123 C 
BRANCH   4   5
HETATM    5  N1  UNK     1      19.852  -1.862  31.591  1.00  0.00    -0.357 N 
HETATM    6  C8  UNK     1      20.418  -2.308  32.774  1.00  0.00     0.257 C 
HETATM    7  O3  UNK     1      21.410  -3.019  32.883  1.00  0.00    -0.267 OA
HETATM    8  H15 UNK     1      19.013  -1.287  31.619  1.00  0.00     0.162 HD
BRANCH   6   9
HETATM    9  C10 UNK     1      19.696  -1.834  33.970  1.00  0.00     0.108 A 
HETATM   10  C16 UNK     1      20.150  -2.160  35.341  1.00  0.00     0.304 A 
HETATM   11  O1  UNK     1      19.387  -1.654  36.389  1.00  0.00    -0.274 OA
HETATM   12  O5  UNK     1      21.149  -2.840  35.549  1.00  0.00    -0.259 OA
HETATM   13  C18 UNK     1      18.238  -0.871  36.161  1.00  0.00     0.089 A 
HETATM   14  C14 UNK     1      17.829  -0.576  34.864  1.00  0.00    -0.001 A 
HETATM   15  C22 UNK     1      17.538  -0.408  37.274  1.00  0.00     0.038 A 
HETATM   16  C12 UNK     1      18.606  -1.091  33.747  1.00  0.00     0.037 A 
HETATM   17  C20 UNK     1      16.685   0.203  34.678  1.00  0.00     0.014 A 
HETATM   18  C24 UNK     1      15.973   0.674  35.786  1.00  0.00     0.001 A 
HETATM   19  C26 UNK     1      16.398   0.369  37.080  1.00  0.00     0.003 A 
ENDBRANCH   6   9
ENDBRANCH   4   5
ENDBRANCH   3   4
ENDBRANCH   2   3
ENDBRANCH   1   2
BRANCH   1  20
HETATM   20  C3  UNK     1      17.984   1.666  28.882  1.00  0.00     0.002 C 
BRANCH  20  21
HETATM   21  C5  UNK     1      18.649   2.719  29.773  1.00  0.00     0.020 C 
BRANCH  21  22
HETATM   22  C7  UNK     1      17.959   2.861  31.125  1.00  0.00     0.123 C 
BRANCH  22  23
HETATM   23  N2  UNK     1      17.916   4.224  31.581  1.00  0.00    -0.357 N 
HETATM   24  C9  UNK     1      18.108   4.583  32.906  1.00  0.00     0.257 C 
HETATM   25  O4  UNK     1      18.331   3.824  33.841  1.00  0.00    -0.267 OA
HETATM   26  H16 UNK     1      17.761   4.948  30.885  1.00  0.00     0.162 HD
BRANCH  24  27
HETATM   27  C11 UNK     1      18.019   6.039  33.124  1.00  0.00     0.108 A 
HETATM   28  C17 UNK     1      16.787   6.803  32.826  1.00  0.00     0.304 A 
HETATM   29  O2  UNK     1      16.826   8.173  33.074  1.00  0.00    -0.274 OA
HETATM   30  O6  UNK     1      15.779   6.263  32.384  1.00  0.00    -0.259 OA
HETATM   31  C19 UNK     1      17.978   8.804  33.582  1.00  0.00     0.089 A 
HETATM   32  C15 UNK     1      19.126   8.066  33.855  1.00  0.00    -0.001 A 
HETATM   33  C23 UNK     1      17.922  10.179  33.798  1.00  0.00     0.038 A 
HETATM   34  C13 UNK     1      19.116   6.633  33.606  1.00  0.00     0.037 A 
HETATM   35  C21 UNK     1      20.249   8.727  34.358  1.00  0.00     0.014 A 
HETATM   36  C25 UNK     1      20.207  10.107  34.580  1.00  0.00     0.001 A 
HETATM   37  C27 UNK     1      19.046  10.830  34.300  1.00  0.00     0.003 A 
ENDBRANCH  24  27
ENDBRANCH  22  23
ENDBRANCH  21  22
ENDBRANCH  20  21
ENDBRANCH   1  20
TORSDOF 10
ENDMDL
MODEL 4
REMARK VINA RESULT:     -10.3      5.833      8.646
REMARK  10 active torsions:
REMARK  status: ('A' for Active; 'I' for Inactive)
REMARK    1  A    between atoms: C6_14  and  N1_7 
REMARK       I    between atoms: C8_16  and  N1_7 
REMARK    2  A    between atoms: C7_15  and  N2_8 
REMARK       I    between atoms: C9_17  and  N2_8 
REMARK    3  A    between atoms: C1_9  and  C2_10 
REMARK    4  A    between atoms: C1_9  and  C3_11 
REMARK    5  A    between atoms: C2_10  and  C4_12 
REMARK    6  A    between atoms: C3_11  and  C5_13 
REMARK    7  A    between atoms: C4_12  and  C6_14 
REMARK    8  A    between atoms: C5_13  and  C7_15 
REMARK    9  A    between atoms: C10_18  and  C8_16 
REMARK   10  A    between atoms: C11_19  and  C9_17 
ROOT
HETATM    1  C1  UNK     1      20.144  -7.986  39.517  1.00  0.00     0.000 C 
ENDROOT
BRANCH   1   2
HETATM    2  C2  UNK     1      19.479  -8.235  38.161  1.00  0.00     0.002 C 
BRANCH   2   3
HETATM    3  C4  UNK     1      18.671  -7.016  37.707  1.00  0.00     0.020 C 
BRANCH   3   4
HETATM    4  C6  UNK     1      19.022  -6.575  36.290  1.00  0.00     0.123 C 
BRANCH   4   5
HETATM    5  N1  UNK     1      18.912  -5.154  36.115  1.00  0.00    -0.357 N 
HETATM    6  C8  UNK     1      19.940  -4.274  36.409  1.00  0.00     0.257 C 
HETATM    7  O3  UNK     1      21.048  -4.568  36.845  1.00  0.00    -0.267 OA
HETATM    8  H15 UNK     1      18.024  -4.795  35.773  1.00  0.00     0.162 HD
BRANCH   6   9
HETATM    9  C10 UNK     1      19.586  -2.867  36.142  1.00  0.00     0.108 A 
HETATM   10  C16 UNK     1      20.002  -2.175  34.901  1.00  0.00     0.304 A 
HETATM   11  O1  UNK     1      19.605  -0.848  34.763  1.00  0.00    -0.274 OA
HETATM   12  O5  UNK     1      20.660  -2.739  34.034  1.00  0.00    -0.259 OA
HETATM   13  C18 UNK     1      18.848  -0.192  35.753  1.00  0.00     0.089 A 
HETATM   14  C14 UNK     1      18.467  -0.861  36.912  1.00  0.00    -0.001 A 
HETATM   15  C22 UNK     1      18.498   1.138  35.525  1.00  0.00     0.038 A 
HETATM   16  C12 UNK     1      18.867  -2.249  37.086  1.00  0.00     0.037 A 
HETATM   17  C20 UNK     1      17.717  -0.177  37.870  1.00  0.00     0.014 A 
HETATM   18  C24 UNK     1      17.359   1.158  37.656  1.00  0.00     0.001 A 
HETATM   19  C26 UNK     1      17.748   1.813  36.486  1.00  0.00     0.003 A 
ENDBRANCH   6   9
ENDBRANCH   4   5
ENDBRANCH   3   4
ENDBRANCH   2   3
ENDBRANCH   1   2
BRANCH   1  20
HETATM   20  C3  UNK     1      21.321  -7.015  39.390  1.00  0.00     0.002 C 
BRANCH  20  21
HETATM   21  C5  UNK     1      22.626  -7.663  39.862  1.00  0.00     0.020 C 
BRANCH  21  22
HETATM   22  C7  UNK     1      23.524  -8.081  38.703  1.00  0.00     0.123 C 
BRANCH  22  23
HETATM   23  N2  UNK     1      24.765  -7.356  38.678  1.00  0.00    -0.357 N 
HETATM   24  C9  UNK     1      26.003  -7.975  38.746  1.00  0.00     0.257 C 
HETATM   25  O4  UNK     1      26.211  -9.179  38.834  1.00  0.00    -0.267 OA
HETATM   26  H16 UNK     1      24.717  -6.345  38.581  1.00  0.00     0.162 HD
BRANCH  24  27
HETATM   27  C11 UNK     1      27.125  -7.020  38.700  1.00  0.00     0.108 A 
HETATM   28  C17 UNK     1      26.915  -5.557  38.785  1.00  0.00     0.304 A 
HETATM   29  O2  UNK     1      28.053  -4.758  38.731  1.00  0.00    -0.274 OA
HETATM   30  O6  UNK     1      25.796  -5.068  38.899  1.00  0.00    -0.259 OA
HETATM   31  C19 UNK     1      29.343  -5.309  38.601  1.00  0.00     0.089 A 
HETATM   32  C15 UNK     1      29.518  -6.687  38.522  1.00  0.00    -0.001 A 
HETATM   33  C23 UNK     1      30.422  -4.428  38.555  1.00  0.00     0.038 A 
HETATM   34  C13 UNK     1      28.348  -7.549  38.576  1.00  0.00     0.037 A 
HETATM   35  C21 UNK     1      30.813  -7.196  38.394  1.00  0.00     0.014 A 
HETATM   36  C25 UNK     1      31.905  -6.325  38.347  1.00  0.00     0.001 A 
HETATM   37  C27 UNK     1      31.709  -4.944  38.427  1.00  0.00     0.003 A 
ENDBRANCH  24  27
ENDBRANCH  22  23
ENDBRANCH  21  22
ENDBRANCH  20  21
ENDBRANCH   1  20
TORSDOF 10
ENDMDL
MODEL 5
REMARK VINA RESULT:     -10.1      5.916     11.951
REMARK  10 active torsions:
REMARK  status: ('A' for Active; 'I' for Inactive)
REMARK    1  A    between atoms: C6_14  and  N1_7 
REMARK       I    between atoms: C8_16  and  N1_7 
REMARK    2  A    between atoms: C7_15  and  N2_8 
REMARK       I    between atoms: C9_17  and  N2_8 
REMARK    3  A    between atoms: C1_9  and  C2_10 
REMARK    4  A    between atoms: C1_9  and  C3_11 
REMARK    5  A    between atoms: C2_10  and  C4_12 
REMARK    6  A    between atoms: C3_11  and  C5_13 
REMARK    7  A    between atoms: C4_12  and  C6_14 
REMARK    8  A    between atoms: C5_13  and  C7_15 
REMARK    9  A    between atoms: C10_18  and  C8_16 
REMARK   10  A    between atoms: C11_19  and  C9_17 
ROOT
HETATM    1  C1  UNK     1      20.160  -7.174  39.115  1.00  0.00     0.000 C 
ENDROOT
BRANCH   1   2
HETATM    2  C2  UNK     1      21.318  -8.077  39.543  1.00  0.00     0.002 C 
BRANCH   2   3
HETATM    3  C4  UNK     1      22.653  -7.327  39.500  1.00  0.00     0.020 C 
BRANCH   3   4
HETATM    4  C6  UNK     1      23.812  -8.219  39.067  1.00  0.00     0.123 C 
BRANCH   4   5
HETATM    5  N1  UNK     1      25.064  -7.515  39.037  1.00  0.00    -0.357 N 
HETATM    6  C8  UNK     1      26.044  -7.756  38.088  1.00  0.00     0.257 C 
HETATM    7  O3  UNK     1      25.989  -8.571  37.175  1.00  0.00    -0.267 OA
HETATM    8  H15 UNK     1      25.226  -6.823  39.764  1.00  0.00     0.162 HD
BRANCH   6   9
HETATM    9  C10 UNK     1      27.236  -6.905  38.265  1.00  0.00     0.108 A 
HETATM   10  C16 UNK     1      27.130  -5.470  38.615  1.00  0.00     0.304 A 
HETATM   11  O1  UNK     1      28.326  -4.772  38.756  1.00  0.00    -0.274 OA
HETATM   12  O5  UNK     1      26.047  -4.919  38.776  1.00  0.00    -0.259 OA
HETATM   13  C18 UNK     1      29.576  -5.395  38.576  1.00  0.00     0.089 A 
HETATM   14  C14 UNK     1      29.653  -6.745  38.247  1.00  0.00    -0.001 A 
HETATM   15  C22 UNK     1      30.719  -4.614  38.739  1.00  0.00     0.038 A 
HETATM   16  C12 UNK     1      28.420  -7.502  38.092  1.00  0.00     0.037 A 
HETATM   17  C20 UNK     1      30.911  -7.327  38.076  1.00  0.00     0.014 A 
HETATM   18  C24 UNK     1      32.066  -6.556  38.236  1.00  0.00     0.001 A 
HETATM   19  C26 UNK     1      31.970  -5.203  38.566  1.00  0.00     0.003 A 
ENDBRANCH   6   9
ENDBRANCH   4   5
ENDBRANCH   3   4
ENDBRANCH   2   3
ENDBRANCH   1   2
BRANCH   1  20
HETATM   20  C3  UNK     1      19.106  -7.955  38.326  1.00  0.00     0.002 C 
BRANCH  20  21
HETATM   21  C5  UNK     1      18.442  -7.073  37.265  1.00  0.00     0.020 C 
BRANCH  21  22
HETATM   22  C7  UNK     1      19.448  -6.486  36.280  1.00  0.00     0.123 C 
BRANCH  22  23
HETATM   23  N2  UNK     1      19.242  -5.082  36.053  1.00  0.00    -0.357 N 
HETATM   24  C9  UNK     1      19.918  -4.096  36.755  1.00  0.00     0.257 C 
HETATM   25  O4  UNK     1      20.753  -4.272  37.634  1.00  0.00    -0.267 OA
HETATM   26  H16 UNK     1      18.585  -4.814  35.325  1.00  0.00     0.162 HD
BRANCH  24  27
HETATM   27  C11 UNK     1      19.537  -2.734  36.341  1.00  0.00     0.108 A 
HETATM   28  C17 UNK     1      19.909  -2.183  35.017  1.00  0.00     0.304 A 
HETATM   29  O2  UNK     1      19.492  -0.884  34.742  1.00  0.00    -0.274 OA
HETATM   30  O6  UNK     1      20.552  -2.834  34.201  1.00  0.00    -0.259 OA
HETATM   31  C19 UNK     1      18.753  -0.127  35.673  1.00  0.00     0.089 A 
HETATM   32  C15 UNK     1      18.414  -0.664  36.911  1.00  0.00    -0.001 A 
HETATM   33  C23 UNK     1      18.380   1.164  35.307  1.00  0.00     0.038 A 
HETATM   34  C13 UNK     1      18.836  -2.020  37.228  1.00  0.00     0.037 A 
HETATM   35  C21 UNK     1      17.680   0.116  37.807  1.00  0.00     0.014 A 
HETATM   36  C25 UNK     1      17.298   1.414  37.453  1.00  0.00     0.001 A 
HETATM   37  C27 UNK     1      17.648   1.936  36.206  1.00  0.00     0.003 A 
ENDBRANCH  24  27
ENDBRANCH  22  23
ENDBRANCH  21  22
ENDBRANCH  20  21
ENDBRANCH   1  20
TORSDOF 10
ENDMDL
MODEL 6
REMARK VINA RESULT:      -9.8      2.719      3.934
REMARK  10 active torsions:
REMARK  status: ('A' for Active; 'I' for Inactive)
REMARK    1  A    between atoms: C6_14  and  N1_7 
REMARK       I    between atoms: C8_16  and  N1_7 
REMARK    2  A    between atoms: C7_15  and  N2_8 
REMARK       I    between atoms: C9_17  and  N2_8 
REMARK    3  A    between atoms: C1_9  and  C2_10 
REMARK    4  A    between atoms: C1_9  and  C3_11 
REMARK    5  A    between atoms: C2_10  and  C4_12 
REMARK    6  A    between atoms: C3_11  and  C5_13 
REMARK    7  A    between atoms: C4_12  and  C6_14 
REMARK    8  A    between atoms: C5_13  and  C7_15 
REMARK    9  A    between atoms: C10_18  and  C8_16 
REMARK   10  A    between atoms: C11_19  and  C9_17 
ROOT
HETATM    1  C1  UNK     1      17.634   0.505  37.509  1.00  0.00     0.000 C 
ENDROOT
BRANCH   1   2
HETATM    2  C2  UNK     1      17.778   1.870  36.833  1.00  0.00     0.002 C 
BRANCH   2   3
HETATM    3  C4  UNK     1      18.846   1.837  35.737  1.00  0.00     0.020 C 
BRANCH   3   4
HETATM    4  C6  UNK     1      18.345   2.404  34.412  1.00  0.00     0.123 C 
BRANCH   4   5
HETATM    5  N1  UNK     1      18.427   3.837  34.364  1.00  0.00    -0.357 N 
HETATM    6  C8  UNK     1      18.067   4.578  33.250  1.00  0.00     0.257 C 
HETATM    7  O3  UNK     1      17.644   4.136  32.187  1.00  0.00    -0.267 OA
HETATM    8  H15 UNK     1      18.785   4.311  35.189  1.00  0.00     0.162 HD
BRANCH   6   9
HETATM    9  C10 UNK     1      18.238   6.030  33.446  1.00  0.00     0.108 A 
HETATM   10  C16 UNK     1      19.576   6.663  33.499  1.00  0.00     0.304 A 
HETATM   11  O1  UNK     1      19.607   8.041  33.687  1.00  0.00    -0.274 OA
HETATM   12  O5  UNK     1      20.607   6.010  33.381  1.00  0.00    -0.259 OA
HETATM   13  C18 UNK     1      18.429   8.801  33.823  1.00  0.00     0.089 A 
HETATM   14  C14 UNK     1      17.181   8.186  33.769  1.00  0.00    -0.001 A 
HETATM   15  C22 UNK     1      18.561  10.176  34.008  1.00  0.00     0.038 A 
HETATM   16  C12 UNK     1      17.115   6.745  33.574  1.00  0.00     0.037 A 
HETATM   17  C20 UNK     1      16.035   8.972  33.908  1.00  0.00     0.014 A 
HETATM   18  C24 UNK     1      16.153  10.352  34.094  1.00  0.00     0.001 A 
HETATM   19  C26 UNK     1      17.412  10.953  34.144  1.00  0.00     0.003 A 
ENDBRANCH   6   9
ENDBRANCH   4   5
ENDBRANCH   3   4
ENDBRANCH   2   3
ENDBRANCH   1   2
BRANCH   1  20
HETATM   20  C3  UNK     1      17.707  -0.633  36.488  1.00  0.00     0.002 C 
BRANCH  20  21
HETATM   21  C5  UNK     1      18.602  -1.770  36.990  1.00  0.00     0.020 C 
BRANCH  21  22
HETATM   22  C7  UNK     1      19.367  -2.453  35.861  1.00  0.00     0.123 C 
BRANCH  22  23
HETATM   23  N2  UNK     1      19.419  -3.881  36.015  1.00  0.00    -0.357 N 
HETATM   24  C9  UNK     1      20.401  -4.526  36.748  1.00  0.00     0.257 C 
HETATM   25  O4  UNK     1      21.330  -3.996  37.346  1.00  0.00    -0.267 OA
HETATM   26  H16 UNK     1      18.680  -4.428  35.579  1.00  0.00     0.162 HD
BRANCH  24  27
HETATM   27  C11 UNK     1      20.238  -5.992  36.760  1.00  0.00     0.108 A 
HETATM   28  C17 UNK     1      20.240  -6.792  35.514  1.00  0.00     0.304 A 
HETATM   29  O2  UNK     1      20.078  -8.167  35.656  1.00  0.00    -0.274 OA
HETATM   30  O6  UNK     1      20.377  -6.274  34.411  1.00  0.00    -0.259 OA
HETATM   31  C19 UNK     1      19.920  -8.772  36.918  1.00  0.00     0.089 A 
HETATM   32  C15 UNK     1      19.921  -8.001  38.076  1.00  0.00    -0.001 A 
HETATM   33  C23 UNK     1      19.764 -10.156  36.958  1.00  0.00     0.038 A 
HETATM   34  C13 UNK     1      20.088  -6.561  37.962  1.00  0.00     0.037 A 
HETATM   35  C21 UNK     1      19.762  -8.637  39.309  1.00  0.00     0.014 A 
HETATM   36  C25 UNK     1      19.605 -10.025  39.365  1.00  0.00     0.001 A 
HETATM   37  C27 UNK     1      19.606 -10.782  38.192  1.00  0.00     0.003 A 
ENDBRANCH  24  27
ENDBRANCH  22  23
ENDBRANCH  21  22
ENDBRANCH  20  21
ENDBRANCH   1  20
TORSDOF 10
ENDMDL
MODEL 7
REMARK VINA RESULT:      -9.8      2.772      3.959
REMARK  10 active torsions:
REMARK  status: ('A' for Active; 'I' for Inactive)
REMARK    1  A    between atoms: C6_14  and  N1_7 
REMARK       I    between atoms: C8_16  and  N1_7 
REMARK    2  A    between atoms: C7_15  and  N2_8 
REMARK       I    between atoms: C9_17  and  N2_8 
REMARK    3  A    between atoms: C1_9  and  C2_10 
REMARK    4  A    between atoms: C1_9  and  C3_11 
REMARK    5  A    between atoms: C2_10  and  C4_12 
REMARK    6  A    between atoms: C3_11  and  C5_13 
REMARK    7  A    between atoms: C4_12  and  C6_14 
REMARK    8  A    between atoms: C5_13  and  C7_15 
REMARK    9  A    between atoms: C10_18  and  C8_16 
REMARK   10  A    between atoms: C11_19  and  C9_17 
ROOT
HETATM    1  C1  UNK     1      17.864   1.552  37.242  1.00  0.00     0.000 C 
ENDROOT
BRANCH   1   2
HETATM    2  C2  UNK     1      18.200   2.335  35.971  1.00  0.00     0.002 C 
BRANCH   2   3
HETATM    3  C4  UNK     1      18.444   1.394  34.788  1.00  0.00     0.020 C 
BRANCH   3   4
HETATM    4  C6  UNK     1      18.129   2.047  33.446  1.00  0.00     0.123 C 
BRANCH   4   5
HETATM    5  N1  UNK     1      18.093   3.481  33.528  1.00  0.00    -0.357 N 
HETATM    6  C8  UNK     1      18.065   4.302  32.413  1.00  0.00     0.257 C 
HETATM    7  O3  UNK     1      18.068   3.940  31.242  1.00  0.00    -0.267 OA
HETATM    8  H15 UNK     1      18.107   3.893  34.458  1.00  0.00     0.162 HD
BRANCH   6   9
HETATM    9  C10 UNK     1      18.028   5.736  32.757  1.00  0.00     0.108 A 
HETATM   10  C16 UNK     1      16.813   6.559  32.561  1.00  0.00     0.304 A 
HETATM   11  O1  UNK     1      16.902   7.900  32.925  1.00  0.00    -0.274 OA
HETATM   12  O5  UNK     1      15.778   6.088  32.104  1.00  0.00    -0.259 OA
HETATM   13  C18 UNK     1      18.086   8.450  33.452  1.00  0.00     0.089 A 
HETATM   14  C14 UNK     1      19.217   7.659  33.628  1.00  0.00    -0.001 A 
HETATM   15  C22 UNK     1      18.078   9.803  33.787  1.00  0.00     0.038 A 
HETATM   16  C12 UNK     1      19.156   6.253  33.257  1.00  0.00     0.037 A 
HETATM   17  C20 UNK     1      20.373   8.241  34.153  1.00  0.00     0.014 A 
HETATM   18  C24 UNK     1      20.380   9.597  34.493  1.00  0.00     0.001 A 
HETATM   19  C26 UNK     1      19.236  10.376  34.311  1.00  0.00     0.003 A 
ENDBRANCH   6   9
ENDBRANCH   4   5
ENDBRANCH   3   4
ENDBRANCH   2   3
ENDBRANCH   1   2
BRANCH   1  20
HETATM   20  C3  UNK     1      17.128   0.251  36.917  1.00  0.00     0.002 C 
BRANCH  20  21
HETATM   21  C5  UNK     1      17.949  -0.971  37.341  1.00  0.00     0.020 C 
BRANCH  21  22
HETATM   22  C7  UNK     1      17.899  -2.094  36.311  1.00  0.00     0.123 C 
BRANCH  22  23
HETATM   23  N2  UNK     1      18.318  -3.358  36.853  1.00  0.00    -0.357 N 
HETATM   24  C9  UNK     1      19.490  -3.992  36.474  1.00  0.00     0.257 C 
HETATM   25  O4  UNK     1      20.306  -3.584  35.655  1.00  0.00    -0.267 OA
HETATM   26  H16 UNK     1      17.728  -3.783  37.564  1.00  0.00     0.162 HD
BRANCH  24  27
HETATM   27  C11 UNK     1      19.702  -5.273  37.172  1.00  0.00     0.108 A 
HETATM   28  C17 UNK     1      18.710  -6.371  37.114  1.00  0.00     0.304 A 
HETATM   29  O2  UNK     1      19.024  -7.532  37.815  1.00  0.00    -0.274 OA
HETATM   30  O6  UNK     1      17.665  -6.268  36.482  1.00  0.00    -0.259 OA
HETATM   31  C19 UNK     1      20.222  -7.661  38.544  1.00  0.00     0.089 A 
HETATM   32  C15 UNK     1      21.140  -6.616  38.585  1.00  0.00    -0.001 A 
HETATM   33  C23 UNK     1      20.447  -8.862  39.213  1.00  0.00     0.038 A 
HETATM   34  C13 UNK     1      20.841  -5.389  37.863  1.00  0.00     0.037 A 
HETATM   35  C21 UNK     1      22.317  -6.782  39.318  1.00  0.00     0.014 A 
HETATM   36  C25 UNK     1      22.557  -7.981  39.994  1.00  0.00     0.001 A 
HETATM   37  C27 UNK     1      21.624  -9.019  39.941  1.00  0.00     0.003 A 
ENDBRANCH  24  27
ENDBRANCH  22  23
ENDBRANCH  21  22
ENDBRANCH  20  21
ENDBRANCH   1  20
TORSDOF 10
ENDMDL
MODEL 8
REMARK VINA RESULT:      -9.7      4.017     10.979
REMARK  10 active torsions:
REMARK  status: ('A' for Active; 'I' for Inactive)
REMARK    1  A    between atoms: C6_14  and  N1_7 
REMARK       I    between atoms: C8_16  and  N1_7 
REMARK    2  A    between atoms: C7_15  and  N2_8 
REMARK       I    between atoms: C9_17  and  N2_8 
REMARK    3  A    between atoms: C1_9  and  C2_10 
REMARK    4  A    between atoms: C1_9  and  C3_11 
REMARK    5  A    between atoms: C2_10  and  C4_12 
REMARK    6  A    between atoms: C3_11  and  C5_13 
REMARK    7  A    between atoms: C4_12  and  C6_14 
REMARK    8  A    between atoms: C5_13  and  C7_15 
REMARK    9  A    between atoms: C10_18  and  C8_16 
REMARK   10  A    between atoms: C11_19  and  C9_17 
ROOT
HETATM    1  C1  UNK     1      19.408   0.792  29.544  1.00  0.00     0.000 C 
ENDROOT
BRANCH   1   2
HETATM    2  C2  UNK     1      19.799  -0.514  28.849  1.00  0.00     0.002 C 
BRANCH   2   3
HETATM    3  C4  UNK     1      20.903  -1.245  29.619  1.00  0.00     0.020 C 
BRANCH   3   4
HETATM    4  C6  UNK     1      20.380  -2.455  30.386  1.00  0.00     0.123 C 
BRANCH   4   5
HETATM    5  N1  UNK     1      19.818  -2.097  31.658  1.00  0.00    -0.357 N 
HETATM    6  C8  UNK     1      20.522  -2.184  32.848  1.00  0.00     0.257 C 
HETATM    7  O3  UNK     1      21.679  -2.565  32.983  1.00  0.00    -0.267 OA
HETATM    8  H15 UNK     1      18.851  -1.782  31.668  1.00  0.00     0.162 HD
BRANCH   6   9
HETATM    9  C10 UNK     1      19.730  -1.757  34.017  1.00  0.00     0.108 A 
HETATM   10  C16 UNK     1      20.109  -2.127  35.399  1.00  0.00     0.304 A 
HETATM   11  O1  UNK     1      19.283  -1.663  36.419  1.00  0.00    -0.274 OA
HETATM   12  O5  UNK     1      21.100  -2.807  35.640  1.00  0.00    -0.259 OA
HETATM   13  C18 UNK     1      18.143  -0.880  36.153  1.00  0.00     0.089 A 
HETATM   14  C14 UNK     1      17.805  -0.543  34.846  1.00  0.00    -0.001 A 
HETATM   15  C22 UNK     1      17.377  -0.461  37.240  1.00  0.00     0.038 A 
HETATM   16  C12 UNK     1      18.648  -1.014  33.758  1.00  0.00     0.037 A 
HETATM   17  C20 UNK     1      16.666   0.235  34.622  1.00  0.00     0.014 A 
HETATM   18  C24 UNK     1      15.889   0.662  35.703  1.00  0.00     0.001 A 
HETATM   19  C26 UNK     1      16.243   0.315  37.008  1.00  0.00     0.003 A 
ENDBRANCH   6   9
ENDBRANCH   4   5
ENDBRANCH   3   4
ENDBRANCH   2   3
ENDBRANCH   1   2
BRANCH   1  20
HETATM   20  C3  UNK     1      18.344   1.550  28.747  1.00  0.00     0.002 C 
BRANCH  20  21
HETATM   21  C5  UNK     1      18.057   2.919  29.371  1.00  0.00     0.020 C 
BRANCH  21  22
HETATM   22  C7  UNK     1      18.308   2.940  30.876  1.00  0.00     0.123 C 
BRANCH  22  23
HETATM   23  N2  UNK     1      18.307   4.273  31.416  1.00  0.00    -0.357 N 
HETATM   24  C9  UNK     1      18.127   4.541  32.763  1.00  0.00     0.257 C 
HETATM   25  O4  UNK     1      17.947   3.717  33.652  1.00  0.00    -0.267 OA
HETATM   26  H16 UNK     1      18.473   5.041  30.771  1.00  0.00     0.162 HD
BRANCH  24  27
HETATM   27  C11 UNK     1      18.170   5.982  33.071  1.00  0.00     0.108 A 
HETATM   28  C17 UNK     1      19.445   6.731  33.146  1.00  0.00     0.304 A 
HETATM   29  O2  UNK     1      19.355   8.088  33.445  1.00  0.00    -0.274 OA
HETATM   30  O6  UNK     1      20.528   6.189  32.955  1.00  0.00    -0.259 OA
HETATM   31  C19 UNK     1      18.117   8.721  33.666  1.00  0.00     0.089 A 
HETATM   32  C15 UNK     1      16.930   7.998  33.590  1.00  0.00    -0.001 A 
HETATM   33  C23 UNK     1      18.128  10.083  33.959  1.00  0.00     0.038 A 
HETATM   34  C13 UNK     1      16.990   6.578  33.280  1.00  0.00     0.037 A 
HETATM   35  C21 UNK     1      15.722   8.661  33.815  1.00  0.00     0.014 A 
HETATM   36  C25 UNK     1      15.717  10.027  34.110  1.00  0.00     0.001 A 
HETATM   37  C27 UNK     1      16.919  10.736  34.182  1.00  0.00     0.003 A 
ENDBRANCH  24  27
ENDBRANCH  22  23
ENDBRANCH  21  22
ENDBRANCH  20  21
ENDBRANCH   1  20
TORSDOF 10
ENDMDL
MODEL 9
REMARK VINA RESULT:      -9.7      4.508      7.614
REMARK  10 active torsions:
REMARK  status: ('A' for Active; 'I' for Inactive)
REMARK    1  A    between atoms: C6_14  and  N1_7 
REMARK       I    between atoms: C8_16  and  N1_7 
REMARK    2  A    between atoms: C7_15  and  N2_8 
REMARK       I    between atoms: C9_17  and  N2_8 
REMARK    3  A    between atoms: C1_9  and  C2_10 
REMARK    4  A    between atoms: C1_9  and  C3_11 
REMARK    5  A    between atoms: C2_10  and  C4_12 
REMARK    6  A    between atoms: C3_11  and  C5_13 
REMARK    7  A    between atoms: C4_12  and  C6_14 
REMARK    8  A    between atoms: C5_13  and  C7_15 
REMARK    9  A    between atoms: C10_18  and  C8_16 
REMARK   10  A    between atoms: C11_19  and  C9_17 
ROOT
HETATM    1  C1  UNK     1      18.860   4.091  30.065  1.00  0.00     0.000 C 
ENDROOT
BRANCH   1   2
HETATM    2  C2  UNK     1      19.071   4.608  31.490  1.00  0.00     0.002 C 
BRANCH   2   3
HETATM    3  C4  UNK     1      19.969   5.849  31.504  1.00  0.00     0.020 C 
BRANCH   3   4
HETATM    4  C6  UNK     1      19.843   6.649  32.797  1.00  0.00     0.123 C 
BRANCH   4   5
HETATM    5  N1  UNK     1      18.698   7.515  32.795  1.00  0.00    -0.357 N 
HETATM    6  C8  UNK     1      17.532   7.231  33.488  1.00  0.00     0.257 C 
HETATM    7  O3  UNK     1      17.318   6.237  34.174  1.00  0.00    -0.267 OA
HETATM    8  H15 UNK     1      18.758   8.366  32.241  1.00  0.00     0.162 HD
BRANCH   6   9
HETATM    9  C10 UNK     1      16.502   8.275  33.334  1.00  0.00     0.108 A 
HETATM   10  C16 UNK     1      15.999   8.691  32.005  1.00  0.00     0.304 A 
HETATM   11  O1  UNK     1      15.026   9.685  31.989  1.00  0.00    -0.274 OA
HETATM   12  O5  UNK     1      16.413   8.185  30.967  1.00  0.00    -0.259 OA
HETATM   13  C18 UNK     1      14.542  10.271  33.175  1.00  0.00     0.089 A 
HETATM   14  C14 UNK     1      15.028   9.866  34.414  1.00  0.00    -0.001 A 
HETATM   15  C22 UNK     1      13.567  11.260  33.058  1.00  0.00     0.038 A 
HETATM   16  C12 UNK     1      16.047   8.828  34.464  1.00  0.00     0.037 A 
HETATM   17  C20 UNK     1      14.525  10.470  35.567  1.00  0.00     0.014 A 
HETATM   18  C24 UNK     1      13.546  11.464  35.465  1.00  0.00     0.001 A 
HETATM   19  C26 UNK     1      13.069  11.858  34.214  1.00  0.00     0.003 A 
ENDBRANCH   6   9
ENDBRANCH   4   5
ENDBRANCH   3   4
ENDBRANCH   2   3
ENDBRANCH   1   2
BRANCH   1  20
HETATM   20  C3  UNK     1      17.984   2.837  30.051  1.00  0.00     0.002 C 
BRANCH  20  21
HETATM   21  C5  UNK     1      18.187   2.034  28.763  1.00  0.00     0.020 C 
BRANCH  21  22
HETATM   22  C7  UNK     1      18.749   0.641  29.025  1.00  0.00     0.123 C 
BRANCH  22  23
HETATM   23  N2  UNK     1      18.615   0.241  30.399  1.00  0.00    -0.357 N 
HETATM   24  C9  UNK     1      19.700   0.023  31.232  1.00  0.00     0.257 C 
HETATM   25  O4  UNK     1      20.883   0.132  30.930  1.00  0.00    -0.267 OA
HETATM   26  H16 UNK     1      17.673   0.142  30.770  1.00  0.00     0.162 HD
BRANCH  24  27
HETATM   27  C11 UNK     1      19.306  -0.375  32.596  1.00  0.00     0.108 A 
HETATM   28  C17 UNK     1      19.700  -1.679  33.177  1.00  0.00     0.304 A 
HETATM   29  O2  UNK     1      19.267  -1.940  34.474  1.00  0.00    -0.274 OA
HETATM   30  O6  UNK     1      20.373  -2.491  32.553  1.00  0.00    -0.259 OA
HETATM   31  C19 UNK     1      18.493  -1.014  35.201  1.00  0.00     0.089 A 
HETATM   32  C15 UNK     1      18.135   0.206  34.635  1.00  0.00    -0.001 A 
HETATM   33  C23 UNK     1      18.107  -1.365  36.493  1.00  0.00     0.038 A 
HETATM   34  C13 UNK     1      18.572   0.508  33.281  1.00  0.00     0.037 A 
HETATM   35  C21 UNK     1      17.367   1.098  35.387  1.00  0.00     0.014 A 
HETATM   36  C25 UNK     1      16.973   0.760  36.685  1.00  0.00     0.001 A 
HETATM   37  C27 UNK     1      17.342  -0.469  37.236  1.00  0.00     0.003 A 
ENDBRANCH  24  27
ENDBRANCH  22  23
ENDBRANCH  21  22
ENDBRANCH  20  21
ENDBRANCH   1  20
TORSDOF 10
ENDMDL
MODEL 10
REMARK VINA RESULT:      -9.5      2.664     12.987
REMARK  10 active torsions:
REMARK  status: ('A' for Active; 'I' for Inactive)
REMARK    1  A    between atoms: C6_14  and  N1_7 
REMARK       I    between atoms: C8_16  and  N1_7 
REMARK    2  A    between atoms: C7_15  and  N2_8 
REMARK       I    between atoms: C9_17  and  N2_8 
REMARK    3  A    between atoms: C1_9  and  C2_10 
REMARK    4  A    between atoms: C1_9  and  C3_11 
REMARK    5  A    between atoms: C2_10  and  C4_12 
REMARK    6  A    between atoms: C3_11  and  C5_13 
REMARK    7  A    between atoms: C4_12  and  C6_14 
REMARK    8  A    between atoms: C5_13  and  C7_15 
REMARK    9  A    between atoms: C10_18  and  C8_16 
REMARK   10  A    between atoms: C11_19  and  C9_17 
ROOT
HETATM    1  C1  UNK     1      17.247   0.920  35.776  1.00  0.00     0.000 C 
ENDROOT
BRANCH   1   2
HETATM    2  C2  UNK     1      17.767   0.769  37.207  1.00  0.00     0.002 C 
BRANCH   2   3
HETATM    3  C4  UNK     1      17.838  -0.704  37.620  1.00  0.00     0.020 C 
BRANCH   3   4
HETATM    4  C6  UNK     1      18.515  -1.575  36.566  1.00  0.00     0.123 C 
BRANCH   4   5
HETATM    5  N1  UNK     1      18.829  -2.888  37.059  1.00  0.00    -0.357 N 
HETATM    6  C8  UNK     1      19.712  -3.744  36.422  1.00  0.00     0.257 C 
HETATM    7  O3  UNK     1      20.328  -3.516  35.387  1.00  0.00    -0.267 OA
HETATM    8  H15 UNK     1      18.357  -3.191  37.907  1.00  0.00     0.162 HD
BRANCH   6   9
HETATM    9  C10 UNK     1      19.870  -5.032  37.123  1.00  0.00     0.108 A 
HETATM   10  C16 UNK     1      18.808  -6.064  37.116  1.00  0.00     0.304 A 
HETATM   11  O1  UNK     1      19.075  -7.239  37.813  1.00  0.00    -0.274 OA
HETATM   12  O5  UNK     1      17.747  -5.899  36.526  1.00  0.00    -0.259 OA
HETATM   13  C18 UNK     1      20.292  -7.440  38.493  1.00  0.00     0.089 A 
HETATM   14  C14 UNK     1      21.277  -6.456  38.487  1.00  0.00    -0.001 A 
HETATM   15  C22 UNK     1      20.469  -8.649  39.163  1.00  0.00     0.038 A 
HETATM   16  C12 UNK     1      21.027  -5.216  37.767  1.00  0.00     0.037 A 
HETATM   17  C20 UNK     1      22.470  -6.691  39.173  1.00  0.00     0.014 A 
HETATM   18  C24 UNK     1      22.661  -7.900  39.850  1.00  0.00     0.001 A 
HETATM   19  C26 UNK     1      21.663  -8.876  39.845  1.00  0.00     0.003 A 
ENDBRANCH   6   9
ENDBRANCH   4   5
ENDBRANCH   3   4
ENDBRANCH   2   3
ENDBRANCH   1   2
BRANCH   1  20
HETATM   20  C3  UNK     1      18.230   1.708  34.907  1.00  0.00     0.002 C 
BRANCH  20  21
HETATM   21  C5  UNK     1      18.298   1.134  33.488  1.00  0.00     0.020 C 
BRANCH  21  22
HETATM   22  C7  UNK     1      18.417   2.220  32.424  1.00  0.00     0.123 C 
BRANCH  22  23
HETATM   23  N2  UNK     1      18.013   3.512  32.907  1.00  0.00    -0.357 N 
HETATM   24  C9  UNK     1      18.080   4.661  32.137  1.00  0.00     0.257 C 
HETATM   25  O4  UNK     1      18.477   4.740  30.980  1.00  0.00    -0.267 OA
HETATM   26  H16 UNK     1      17.641   3.565  33.852  1.00  0.00     0.162 HD
BRANCH  24  27
HETATM   27  C11 UNK     1      17.607   5.860  32.852  1.00  0.00     0.108 A 
HETATM   28  C17 UNK     1      18.401   6.495  33.929  1.00  0.00     0.304 A 
HETATM   29  O2  UNK     1      17.849   7.623  34.530  1.00  0.00    -0.274 OA
HETATM   30  O6  UNK     1      19.491   6.055  34.277  1.00  0.00    -0.259 OA
HETATM   31  C19 UNK     1      16.598   8.138  34.137  1.00  0.00     0.089 A 
HETATM   32  C15 UNK     1      15.869   7.525  33.123  1.00  0.00    -0.001 A 
HETATM   33  C23 UNK     1      16.128   9.271  34.798  1.00  0.00     0.038 A 
HETATM   34  C13 UNK     1      16.419   6.345  32.476  1.00  0.00     0.037 A 
HETATM   35  C21 UNK     1      14.632   8.066  32.761  1.00  0.00     0.014 A 
HETATM   36  C25 UNK     1      14.147   9.202  33.415  1.00  0.00     0.001 A 
HETATM   37  C27 UNK     1      14.894   9.803  34.431  1.00  0.00     0.003 A 
ENDBRANCH  24  27
ENDBRANCH  22  23
ENDBRANCH  21  22
ENDBRANCH  20  21
ENDBRANCH   1  20
TORSDOF 10
ENDMDL
