MODEL 1
REMARK VINA RESULT:      -9.0      0.000      0.000
REMARK  4 active torsions:
REMARK  status: ('A' for Active; 'I' for Inactive)
REMARK    1  A    between atoms: C8_14  and  O1_2 
REMARK    2  A    between atoms: C6_12  and  N1_5 
REMARK    3  A    between atoms: C1_7  and  C2_8 
REMARK    4  A    between atoms: C3_9  and  C5_11 
ROOT
HETATM    1  N2  UNK     1      17.895   2.879  33.499  1.00  0.00    -0.191 NA
HETATM    2  C2  UNK     1      18.905   4.638  30.710  1.00  0.00     0.035 C 
HETATM    3  C5  UNK     1      18.645   3.347  31.054  1.00  0.00     0.055 C 
HETATM    4  C15 UNK     1      18.231   3.097  32.410  1.00  0.00     0.100 C 
ENDROOT
BRANCH   3   5
HETATM    5  C3  UNK     1      18.757   2.227  30.134  1.00  0.00    -0.015 A 
HETATM    6  C10 UNK     1      19.695   1.222  30.369  1.00  0.00     0.016 A 
HETATM    7  C12 UNK     1      19.802   0.147  29.486  1.00  0.00     0.043 A 
HETATM    8  C14 UNK     1      18.970   0.077  28.369  1.00  0.00     0.116 A 
HETATM    9  C13 UNK     1      18.032   1.083  28.133  1.00  0.00     0.043 A 
HETATM   10  F1  UNK     1      19.074  -0.953  27.520  1.00  0.00    -0.206 F 
HETATM   11  C11 UNK     1      17.926   2.158  29.016  1.00  0.00     0.016 A 
ENDBRANCH   3   5
BRANCH   2  12
HETATM   12  C1  UNK     1      18.798   5.800  31.604  1.00  0.00    -0.032 A 
HETATM   13  C4  UNK     1      17.641   6.565  31.595  1.00  0.00     0.050 A 
HETATM   14  C6  UNK     1      17.541   7.668  32.444  1.00  0.00     0.136 A 
HETATM   15  C8  UNK     1      18.599   7.992  33.293  1.00  0.00     0.098 A 
HETATM   16  C9  UNK     1      19.757   7.214  33.293  1.00  0.00     0.040 A 
HETATM   17  C7  UNK     1      19.857   6.113  32.444  1.00  0.00     0.014 A 
BRANCH  14  18
HETATM   18  N1  UNK     1      16.352   8.448  32.431  1.00  0.00    -0.113 N 
HETATM   19  O2  UNK     1      15.838   8.788  33.523  1.00  0.00    -0.532 OA
HETATM   20  O3  UNK     1      15.853   8.772  31.327  1.00  0.00    -0.532 OA
ENDBRANCH  14  18
BRANCH  15  21
HETATM   21  O1  UNK     1      18.524   9.064  34.132  1.00  0.00    -0.358 OA
HETATM   22  H9  UNK     1      19.390   9.199  34.554  1.00  0.00     0.217 HD
ENDBRANCH  15  21
ENDBRANCH   2  12
TORSDOF 4
ENDMDL
MODEL 2
REMARK VINA RESULT:      -8.8      2.197      3.082
REMARK  4 active torsions:
REMARK  status: ('A' for Active; 'I' for Inactive)
REMARK    1  A    between atoms: C8_14  and  O1_2 
REMARK    2  A    between atoms: C6_12  and  N1_5 
REMARK    3  A    between atoms: C1_7  and  C2_8 
REMARK    4  A    between atoms: C3_9  and  C5_11 
ROOT
HETATM    1  N2  UNK     1      17.783   2.439  28.109  1.00  0.00    -0.191 NA
HETATM    2  C2  UNK     1      19.149   2.740  31.261  1.00  0.00     0.035 C 
HETATM    3  C5  UNK     1      19.005   1.780  30.307  1.00  0.00     0.055 C 
HETATM    4  C15 UNK     1      18.326   2.154  29.093  1.00  0.00     0.100 C 
ENDROOT
BRANCH   3   5
HETATM    5  C3  UNK     1      19.499   0.420  30.447  1.00  0.00    -0.015 A 
HETATM    6  C10 UNK     1      19.296  -0.278  31.637  1.00  0.00     0.016 A 
HETATM    7  C12 UNK     1      19.771  -1.583  31.770  1.00  0.00     0.043 A 
HETATM    8  C14 UNK     1      20.449  -2.190  30.713  1.00  0.00     0.116 A 
HETATM    9  C13 UNK     1      20.652  -1.492  29.523  1.00  0.00     0.043 A 
HETATM   10  F1  UNK     1      20.907  -3.442  30.841  1.00  0.00    -0.206 F 
HETATM   11  C11 UNK     1      20.178  -0.186  29.390  1.00  0.00     0.016 A 
ENDBRANCH   3   5
BRANCH   2  12
HETATM   12  C1  UNK     1      18.672   4.126  31.159  1.00  0.00    -0.032 A 
HETATM   13  C4  UNK     1      17.821   4.629  32.133  1.00  0.00     0.050 A 
HETATM   14  C6  UNK     1      17.369   5.945  32.035  1.00  0.00     0.136 A 
HETATM   15  C8  UNK     1      17.772   6.744  30.966  1.00  0.00     0.098 A 
HETATM   16  C9  UNK     1      18.628   6.227  29.993  1.00  0.00     0.040 A 
HETATM   17  C7  UNK     1      19.080   4.911  30.090  1.00  0.00     0.014 A 
BRANCH  14  18
HETATM   18  N1  UNK     1      16.497   6.456  33.037  1.00  0.00    -0.113 N 
HETATM   19  O2  UNK     1      15.365   6.875  32.698  1.00  0.00    -0.532 OA
HETATM   20  O3  UNK     1      16.888   6.473  34.228  1.00  0.00    -0.532 OA
ENDBRANCH  14  18
BRANCH  15  21
HETATM   21  O1  UNK     1      17.345   8.033  30.849  1.00  0.00    -0.358 OA
HETATM   22  H9  UNK     1      16.373   8.043  30.798  1.00  0.00     0.217 HD
ENDBRANCH  15  21
ENDBRANCH   2  12
TORSDOF 4
ENDMDL
MODEL 3
REMARK VINA RESULT:      -8.8      5.218      7.791
REMARK  4 active torsions:
REMARK  status: ('A' for Active; 'I' for Inactive)
REMARK    1  A    between atoms: C8_14  and  O1_2 
REMARK    2  A    between atoms: C6_12  and  N1_5 
REMARK    3  A    between atoms: C1_7  and  C2_8 
REMARK    4  A    between atoms: C3_9  and  C5_11 
ROOT
HETATM    1  N2  UNK     1      20.131   5.519  29.930  1.00  0.00    -0.191 NA
HETATM    2  C2  UNK     1      17.898   3.580  31.703  1.00  0.00     0.035 C 
HETATM    3  C5  UNK     1      18.367   4.856  31.722  1.00  0.00     0.055 C 
HETATM    4  C15 UNK     1      19.344   5.214  30.726  1.00  0.00     0.100 C 
ENDROOT
BRANCH   3   5
HETATM    5  C3  UNK     1      17.935   5.864  32.678  1.00  0.00    -0.015 A 
HETATM    6  C10 UNK     1      18.833   6.361  33.622  1.00  0.00     0.016 A 
HETATM    7  C12 UNK     1      18.417   7.327  34.539  1.00  0.00     0.043 A 
HETATM    8  C14 UNK     1      17.104   7.796  34.510  1.00  0.00     0.116 A 
HETATM    9  C13 UNK     1      16.206   7.298  33.566  1.00  0.00     0.043 A 
HETATM   10  F1  UNK     1      16.704   8.722  35.391  1.00  0.00    -0.206 F 
HETATM   11  C11 UNK     1      16.622   6.331  32.650  1.00  0.00     0.016 A 
ENDBRANCH   3   5
BRANCH   2  12
HETATM   12  C1  UNK     1      18.302   2.533  30.753  1.00  0.00    -0.032 A 
HETATM   13  C4  UNK     1      19.093   1.481  31.192  1.00  0.00     0.050 A 
HETATM   14  C6  UNK     1      19.476   0.488  30.289  1.00  0.00     0.136 A 
HETATM   15  C8  UNK     1      19.063   0.558  28.959  1.00  0.00     0.098 A 
HETATM   16  C9  UNK     1      18.267   1.621  28.531  1.00  0.00     0.040 A 
HETATM   17  C7  UNK     1      17.885   2.614  29.432  1.00  0.00     0.014 A 
BRANCH  14  18
HETATM   18  N1  UNK     1      20.286  -0.588  30.744  1.00  0.00    -0.113 N 
HETATM   19  O2  UNK     1      19.911  -1.765  30.523  1.00  0.00    -0.532 OA
HETATM   20  O3  UNK     1      21.350  -0.330  31.354  1.00  0.00    -0.532 OA
ENDBRANCH  14  18
BRANCH  15  21
HETATM   21  O1  UNK     1      19.423  -0.400  28.059  1.00  0.00    -0.358 OA
HETATM   22  H9  UNK     1      19.186  -0.102  27.165  1.00  0.00     0.217 HD
ENDBRANCH  15  21
ENDBRANCH   2  12
TORSDOF 4
ENDMDL
MODEL 4
REMARK VINA RESULT:      -8.7      5.097      7.725
REMARK  4 active torsions:
REMARK  status: ('A' for Active; 'I' for Inactive)
REMARK    1  A    between atoms: C8_14  and  O1_2 
REMARK    2  A    between atoms: C6_12  and  N1_5 
REMARK    3  A    between atoms: C1_7  and  C2_8 
REMARK    4  A    between atoms: C3_9  and  C5_11 
ROOT
HETATM    1  N2  UNK     1      17.668   1.997  33.307  1.00  0.00    -0.191 NA
HETATM    2  C2  UNK     1      18.648   4.027  30.697  1.00  0.00     0.035 C 
HETATM    3  C5  UNK     1      18.295   4.158  32.004  1.00  0.00     0.055 C 
HETATM    4  C15 UNK     1      17.949   2.956  32.717  1.00  0.00     0.100 C 
ENDROOT
BRANCH   3   5
HETATM    5  C3  UNK     1      18.256   5.430  32.708  1.00  0.00    -0.015 A 
HETATM    6  C10 UNK     1      17.102   6.213  32.671  1.00  0.00     0.016 A 
HETATM    7  C12 UNK     1      17.066   7.434  33.346  1.00  0.00     0.043 A 
HETATM    8  C14 UNK     1      18.183   7.870  34.058  1.00  0.00     0.116 A 
HETATM    9  C13 UNK     1      19.337   7.087  34.095  1.00  0.00     0.043 A 
HETATM   10  F1  UNK     1      18.149   9.042  34.705  1.00  0.00    -0.206 F 
HETATM   11  C11 UNK     1      19.373   5.867  33.419  1.00  0.00     0.016 A 
ENDBRANCH   3   5
BRANCH   2  12
HETATM   12  C1  UNK     1      18.708   2.763  29.949  1.00  0.00    -0.032 A 
HETATM   13  C4  UNK     1      19.673   1.821  30.276  1.00  0.00     0.050 A 
HETATM   14  C6  UNK     1      19.729   0.621  29.566  1.00  0.00     0.136 A 
HETATM   15  C8  UNK     1      18.818   0.376  28.538  1.00  0.00     0.098 A 
HETATM   16  C9  UNK     1      17.852   1.331  28.220  1.00  0.00     0.040 A 
HETATM   17  C7  UNK     1      17.797   2.531  28.929  1.00  0.00     0.014 A 
BRANCH  14  18
HETATM   18  N1  UNK     1      20.719  -0.341  29.905  1.00  0.00    -0.113 N 
HETATM   19  O2  UNK     1      21.021  -0.501  31.112  1.00  0.00    -0.532 OA
HETATM   20  O3  UNK     1      21.264  -0.999  28.987  1.00  0.00    -0.532 OA
ENDBRANCH  14  18
BRANCH  15  21
HETATM   21  O1  UNK     1      18.852  -0.789  27.831  1.00  0.00    -0.358 OA
HETATM   22  H9  UNK     1      18.222  -0.731  27.092  1.00  0.00     0.217 HD
ENDBRANCH  15  21
ENDBRANCH   2  12
TORSDOF 4
ENDMDL
MODEL 5
REMARK VINA RESULT:      -7.8      1.445      2.520
REMARK  4 active torsions:
REMARK  status: ('A' for Active; 'I' for Inactive)
REMARK    1  A    between atoms: C8_14  and  O1_2 
REMARK    2  A    between atoms: C6_12  and  N1_5 
REMARK    3  A    between atoms: C1_7  and  C2_8 
REMARK    4  A    between atoms: C3_9  and  C5_11 
ROOT
HETATM    1  N2  UNK     1      17.915   2.607  33.971  1.00  0.00    -0.191 NA
HETATM    2  C2  UNK     1      18.165   4.578  31.153  1.00  0.00     0.035 C 
HETATM    3  C5  UNK     1      18.288   3.264  31.483  1.00  0.00     0.055 C 
HETATM    4  C15 UNK     1      18.080   2.909  32.863  1.00  0.00     0.100 C 
ENDROOT
BRANCH   3   5
HETATM    5  C3  UNK     1      18.608   2.215  30.528  1.00  0.00    -0.015 A 
HETATM    6  C10 UNK     1      17.989   2.198  29.278  1.00  0.00     0.016 A 
HETATM    7  C12 UNK     1      18.296   1.191  28.362  1.00  0.00     0.043 A 
HETATM    8  C14 UNK     1      19.221   0.203  28.696  1.00  0.00     0.116 A 
HETATM    9  C13 UNK     1      19.840   0.220  29.946  1.00  0.00     0.043 A 
HETATM   10  F1  UNK     1      19.515  -0.765  27.818  1.00  0.00    -0.206 F 
HETATM   11  C11 UNK     1      19.532   1.227  30.862  1.00  0.00     0.016 A 
ENDBRANCH   3   5
BRANCH   2  12
HETATM   12  C1  UNK     1      17.837   5.667  32.083  1.00  0.00    -0.032 A 
HETATM   13  C4  UNK     1      18.846   6.245  32.841  1.00  0.00     0.050 A 
HETATM   14  C6  UNK     1      18.534   7.279  33.724  1.00  0.00     0.136 A 
HETATM   15  C8  UNK     1      17.217   7.725  33.838  1.00  0.00     0.098 A 
HETATM   16  C9  UNK     1      16.212   7.136  33.070  1.00  0.00     0.040 A 
HETATM   17  C7  UNK     1      16.524   6.102  32.188  1.00  0.00     0.014 A 
BRANCH  14  18
HETATM   18  N1  UNK     1      19.571   7.868  34.498  1.00  0.00    -0.113 N 
HETATM   19  O2  UNK     1      20.496   8.478  33.909  1.00  0.00    -0.532 OA
HETATM   20  O3  UNK     1      19.532   7.758  35.746  1.00  0.00    -0.532 OA
ENDBRANCH  14  18
BRANCH  15  21
HETATM   21  O1  UNK     1      16.888   8.735  34.693  1.00  0.00    -0.358 OA
HETATM   22  H9  UNK     1      16.208   9.293  34.278  1.00  0.00     0.217 HD
ENDBRANCH  15  21
ENDBRANCH   2  12
TORSDOF 4
ENDMDL
MODEL 6
REMARK VINA RESULT:      -7.6      4.834      7.504
REMARK  4 active torsions:
REMARK  status: ('A' for Active; 'I' for Inactive)
REMARK    1  A    between atoms: C8_14  and  O1_2 
REMARK    2  A    between atoms: C6_12  and  N1_5 
REMARK    3  A    between atoms: C1_7  and  C2_8 
REMARK    4  A    between atoms: C3_9  and  C5_11 
ROOT
HETATM    1  N2  UNK     1      20.743   5.686  31.037  1.00  0.00    -0.191 NA
HETATM    2  C2  UNK     1      17.817   4.860  32.664  1.00  0.00     0.035 C 
HETATM    3  C5  UNK     1      18.577   5.967  32.449  1.00  0.00     0.055 C 
HETATM    4  C15 UNK     1      19.775   5.802  31.666  1.00  0.00     0.100 C 
ENDROOT
BRANCH   3   5
HETATM    5  C3  UNK     1      18.244   7.288  32.955  1.00  0.00    -0.015 A 
HETATM    6  C10 UNK     1      19.195   8.025  33.662  1.00  0.00     0.016 A 
HETATM    7  C12 UNK     1      18.874   9.293  34.148  1.00  0.00     0.043 A 
HETATM    8  C14 UNK     1      17.604   9.824  33.926  1.00  0.00     0.116 A 
HETATM    9  C13 UNK     1      16.653   9.087  33.219  1.00  0.00     0.043 A 
HETATM   10  F1  UNK     1      17.295  11.040  34.394  1.00  0.00    -0.206 F 
HETATM   11  C11 UNK     1      16.974   7.819  32.734  1.00  0.00     0.016 A 
ENDBRANCH   3   5
BRANCH   2  12
HETATM   12  C1  UNK     1      18.112   3.508  32.167  1.00  0.00    -0.032 A 
HETATM   13  C4  UNK     1      18.181   3.284  30.799  1.00  0.00     0.050 A 
HETATM   14  C6  UNK     1      18.462   2.001  30.328  1.00  0.00     0.136 A 
HETATM   15  C8  UNK     1      18.670   0.957  31.229  1.00  0.00     0.098 A 
HETATM   16  C9  UNK     1      18.599   1.196  32.602  1.00  0.00     0.040 A 
HETATM   17  C7  UNK     1      18.318   2.478  33.073  1.00  0.00     0.014 A 
BRANCH  14  18
HETATM   18  N1  UNK     1      18.531   1.777  28.925  1.00  0.00    -0.113 N 
HETATM   19  O2  UNK     1      17.846   2.498  28.161  1.00  0.00    -0.532 OA
HETATM   20  O3  UNK     1      19.275   0.864  28.494  1.00  0.00    -0.532 OA
ENDBRANCH  14  18
BRANCH  15  21
HETATM   21  O1  UNK     1      18.947  -0.304  30.792  1.00  0.00    -0.358 OA
HETATM   22  H9  UNK     1      18.537  -0.436  29.920  1.00  0.00     0.217 HD
ENDBRANCH  15  21
ENDBRANCH   2  12
TORSDOF 4
ENDMDL
MODEL 7
REMARK VINA RESULT:      -7.6      7.886      9.223
REMARK  4 active torsions:
REMARK  status: ('A' for Active; 'I' for Inactive)
REMARK    1  A    between atoms: C8_14  and  O1_2 
REMARK    2  A    between atoms: C6_12  and  N1_5 
REMARK    3  A    between atoms: C1_7  and  C2_8 
REMARK    4  A    between atoms: C3_9  and  C5_11 
ROOT
HETATM    1  N2  UNK     1      21.551  -1.845  35.650  1.00  0.00    -0.191 NA
HETATM    2  C2  UNK     1      18.586  -3.134  36.849  1.00  0.00     0.035 C 
HETATM    3  C5  UNK     1      19.800  -3.595  36.444  1.00  0.00     0.055 C 
HETATM    4  C15 UNK     1      20.763  -2.618  36.005  1.00  0.00     0.100 C 
ENDROOT
BRANCH   3   5
HETATM    5  C3  UNK     1      20.170  -5.001  36.436  1.00  0.00    -0.015 A 
HETATM    6  C10 UNK     1      20.920  -5.531  37.486  1.00  0.00     0.016 A 
HETATM    7  C12 UNK     1      21.276  -6.880  37.477  1.00  0.00     0.043 A 
HETATM    8  C14 UNK     1      20.880  -7.699  36.420  1.00  0.00     0.116 A 
HETATM    9  C13 UNK     1      20.130  -7.169  35.370  1.00  0.00     0.043 A 
HETATM   10  F1  UNK     1      21.222  -8.994  36.410  1.00  0.00    -0.206 F 
HETATM   11  C11 UNK     1      19.775  -5.820  35.378  1.00  0.00     0.016 A 
ENDBRANCH   3   5
BRANCH   2  12
HETATM   12  C1  UNK     1      18.173  -1.723  36.880  1.00  0.00    -0.032 A 
HETATM   13  C4  UNK     1      17.682  -1.131  35.725  1.00  0.00     0.050 A 
HETATM   14  C6  UNK     1      17.290   0.208  35.755  1.00  0.00     0.136 A 
HETATM   15  C8  UNK     1      17.393   0.939  36.939  1.00  0.00     0.098 A 
HETATM   16  C9  UNK     1      17.887   0.331  38.093  1.00  0.00     0.040 A 
HETATM   17  C7  UNK     1      18.280  -1.007  38.063  1.00  0.00     0.014 A 
BRANCH  14  18
HETATM   18  N1  UNK     1      16.787   0.811  34.569  1.00  0.00    -0.113 N 
HETATM   19  O2  UNK     1      15.617   0.546  34.204  1.00  0.00    -0.532 OA
HETATM   20  O3  UNK     1      17.529   1.588  33.923  1.00  0.00    -0.532 OA
ENDBRANCH  14  18
BRANCH  15  21
HETATM   21  O1  UNK     1      17.015   2.247  36.993  1.00  0.00    -0.358 OA
HETATM   22  H9  UNK     1      17.169   2.659  36.126  1.00  0.00     0.217 HD
ENDBRANCH  15  21
ENDBRANCH   2  12
TORSDOF 4
ENDMDL
MODEL 8
REMARK VINA RESULT:      -7.6     11.803     14.143
REMARK  4 active torsions:
REMARK  status: ('A' for Active; 'I' for Inactive)
REMARK    1  A    between atoms: C8_14  and  O1_2 
REMARK    2  A    between atoms: C6_12  and  N1_5 
REMARK    3  A    between atoms: C1_7  and  C2_8 
REMARK    4  A    between atoms: C3_9  and  C5_11 
ROOT
HETATM    1  N2  UNK     1      22.188  -5.324  38.174  1.00  0.00    -0.191 NA
HETATM    2  C2  UNK     1      19.394  -6.062  36.294  1.00  0.00     0.035 C 
HETATM    3  C5  UNK     1      20.093  -4.960  36.678  1.00  0.00     0.055 C 
HETATM    4  C15 UNK     1      21.252  -5.171  37.507  1.00  0.00     0.100 C 
ENDROOT
BRANCH   3   5
HETATM    5  C3  UNK     1      19.739  -3.603  36.295  1.00  0.00    -0.015 A 
HETATM    6  C10 UNK     1      20.104  -3.114  35.041  1.00  0.00     0.016 A 
HETATM    7  C12 UNK     1      19.765  -1.811  34.675  1.00  0.00     0.043 A 
HETATM    8  C14 UNK     1      19.061  -0.998  35.562  1.00  0.00     0.116 A 
HETATM    9  C13 UNK     1      18.696  -1.487  36.817  1.00  0.00     0.043 A 
HETATM   10  F1  UNK     1      18.736   0.253  35.212  1.00  0.00    -0.206 F 
HETATM   11  C11 UNK     1      19.036  -2.790  37.183  1.00  0.00     0.016 A 
ENDBRANCH   3   5
BRANCH   2  12
HETATM   12  C1  UNK     1      19.719  -7.450  36.651  1.00  0.00    -0.032 A 
HETATM   13  C4  UNK     1      20.650  -8.150  35.895  1.00  0.00     0.050 A 
HETATM   14  C6  UNK     1      20.958  -9.467  36.236  1.00  0.00     0.136 A 
HETATM   15  C8  UNK     1      20.333 -10.070  37.327  1.00  0.00     0.098 A 
HETATM   16  C9  UNK     1      19.399  -9.356  38.079  1.00  0.00     0.040 A 
HETATM   17  C7  UNK     1      19.090  -8.040  37.738  1.00  0.00     0.014 A 
BRANCH  14  18
HETATM   18  N1  UNK     1      21.913 -10.179  35.459  1.00  0.00    -0.113 N 
HETATM   19  O2  UNK     1      21.712 -10.316  34.228  1.00  0.00    -0.532 OA
HETATM   20  O3  UNK     1      22.926 -10.651  36.027  1.00  0.00    -0.532 OA
ENDBRANCH  14  18
BRANCH  15  21
HETATM   21  O1  UNK     1      20.619 -11.356  37.680  1.00  0.00    -0.358 OA
HETATM   22  H9  UNK     1      21.215 -11.743  37.016  1.00  0.00     0.217 HD
ENDBRANCH  15  21
ENDBRANCH   2  12
TORSDOF 4
ENDMDL
MODEL 9
REMARK VINA RESULT:      -7.6      5.070      8.197
REMARK  4 active torsions:
REMARK  status: ('A' for Active; 'I' for Inactive)
REMARK    1  A    between atoms: C8_14  and  O1_2 
REMARK    2  A    between atoms: C6_12  and  N1_5 
REMARK    3  A    between atoms: C1_7  and  C2_8 
REMARK    4  A    between atoms: C3_9  and  C5_11 
ROOT
HETATM    1  N2  UNK     1      14.491   6.919  31.573  1.00  0.00    -0.191 NA
HETATM    2  C2  UNK     1      17.553   7.753  32.922  1.00  0.00     0.035 C 
HETATM    3  C5  UNK     1      16.275   8.219  32.947  1.00  0.00     0.055 C 
HETATM    4  C15 UNK     1      15.293   7.493  32.183  1.00  0.00     0.100 C 
ENDROOT
BRANCH   3   5
HETATM    5  C3  UNK     1      15.855   9.389  33.701  1.00  0.00    -0.015 A 
HETATM    6  C10 UNK     1      16.748  10.439  33.915  1.00  0.00     0.016 A 
HETATM    7  C12 UNK     1      16.344  11.562  34.638  1.00  0.00     0.043 A 
HETATM    8  C14 UNK     1      15.048  11.635  35.146  1.00  0.00     0.116 A 
HETATM    9  C13 UNK     1      14.154  10.585  34.932  1.00  0.00     0.043 A 
HETATM   10  F1  UNK     1      14.660  12.711  35.842  1.00  0.00    -0.206 F 
HETATM   11  C11 UNK     1      14.559   9.462  34.210  1.00  0.00     0.016 A 
ENDBRANCH   3   5
BRANCH   2  12
HETATM   12  C1  UNK     1      18.019   6.573  32.181  1.00  0.00    -0.032 A 
HETATM   13  C4  UNK     1      17.871   5.312  32.742  1.00  0.00     0.050 A 
HETATM   14  C6  UNK     1      18.313   4.192  32.038  1.00  0.00     0.136 A 
HETATM   15  C8  UNK     1      18.898   4.344  30.781  1.00  0.00     0.098 A 
HETATM   16  C9  UNK     1      19.041   5.617  30.228  1.00  0.00     0.040 A 
HETATM   17  C7  UNK     1      18.600   6.737  30.931  1.00  0.00     0.014 A 
BRANCH  14  18
HETATM   18  N1  UNK     1      18.159   2.902  32.617  1.00  0.00    -0.113 N 
HETATM   19  O2  UNK     1      17.904   1.928  31.869  1.00  0.00    -0.532 OA
HETATM   20  O3  UNK     1      18.279   2.777  33.858  1.00  0.00    -0.532 OA
ENDBRANCH  14  18
BRANCH  15  21
HETATM   21  O1  UNK     1      19.337   3.265  30.074  1.00  0.00    -0.358 OA
HETATM   22  H9  UNK     1      19.361   3.492  29.128  1.00  0.00     0.217 HD
ENDBRANCH  15  21
ENDBRANCH   2  12
TORSDOF 4
ENDMDL
MODEL 10
REMARK VINA RESULT:      -7.5      9.896     11.400
REMARK  4 active torsions:
REMARK  status: ('A' for Active; 'I' for Inactive)
REMARK    1  A    between atoms: C8_14  and  O1_2 
REMARK    2  A    between atoms: C6_12  and  N1_5 
REMARK    3  A    between atoms: C1_7  and  C2_8 
REMARK    4  A    between atoms: C3_9  and  C5_11 
ROOT
HETATM    1  N2  UNK     1      17.788  -5.910  36.404  1.00  0.00    -0.191 NA
HETATM    2  C2  UNK     1      20.503  -3.942  37.207  1.00  0.00     0.035 C 
HETATM    3  C5  UNK     1      20.053  -5.199  37.464  1.00  0.00     0.055 C 
HETATM    4  C15 UNK     1      18.798  -5.584  36.873  1.00  0.00     0.100 C 
ENDROOT
BRANCH   3   5
HETATM    5  C3  UNK     1      20.768  -6.162  38.287  1.00  0.00    -0.015 A 
HETATM    6  C10 UNK     1      22.130  -5.993  38.536  1.00  0.00     0.016 A 
HETATM    7  C12 UNK     1      22.815  -6.917  39.325  1.00  0.00     0.043 A 
HETATM    8  C14 UNK     1      22.138  -8.010  39.865  1.00  0.00     0.116 A 
HETATM    9  C13 UNK     1      20.775  -8.180  39.616  1.00  0.00     0.043 A 
HETATM   10  F1  UNK     1      22.795  -8.899  40.621  1.00  0.00    -0.206 F 
HETATM   11  C11 UNK     1      20.091  -7.256  38.826  1.00  0.00     0.016 A 
ENDBRANCH   3   5
BRANCH   2  12
HETATM   12  C1  UNK     1      19.817  -2.940  36.377  1.00  0.00    -0.032 A 
HETATM   13  C4  UNK     1      20.144  -2.828  35.033  1.00  0.00     0.050 A 
HETATM   14  C6  UNK     1      19.493  -1.878  34.247  1.00  0.00     0.136 A 
HETATM   15  C8  UNK     1      18.522  -1.051  34.812  1.00  0.00     0.098 A 
HETATM   16  C9  UNK     1      18.203  -1.174  36.164  1.00  0.00     0.040 A 
HETATM   17  C7  UNK     1      18.854  -2.123  36.951  1.00  0.00     0.014 A 
BRANCH  14  18
HETATM   18  N1  UNK     1      19.831  -1.767  32.870  1.00  0.00    -0.113 N 
HETATM   19  O2  UNK     1      18.913  -1.600  32.031  1.00  0.00    -0.532 OA
HETATM   20  O3  UNK     1      21.037  -1.841  32.534  1.00  0.00    -0.532 OA
ENDBRANCH  14  18
BRANCH  15  21
HETATM   21  O1  UNK     1      17.872  -0.116  34.063  1.00  0.00    -0.358 OA
HETATM   22  H9  UNK     1      16.999   0.055  34.456  1.00  0.00     0.217 HD
ENDBRANCH  15  21
ENDBRANCH   2  12
TORSDOF 4
ENDMDL
